MODEL 1
REMARK VINA RESULT:      -6.9      0.000      0.000
REMARK  Name = 
REMARK  14 active torsions:
REMARK  status: ('A' for Active; 'I' for Inactive)
REMARK    1  A    between atoms: C_1  and  O_2
REMARK    2  A    between atoms: O_2  and  C_3
REMARK    3  A    between atoms: C_5  and  C_6
REMARK    4  A    between atoms: C_7  and  C_8
REMARK    5  A    between atoms: C_8  and  O_10
REMARK    6  A    between atoms: C_12  and  S_13
REMARK    7  A    between atoms: S_13  and  N_16
REMARK    8  A    between atoms: N_16  and  C_17
REMARK    9  A    between atoms: C_17  and  C_18
REMARK   10  A    between atoms: C_18  and  C_19
REMARK   11  A    between atoms: C_19  and  C_20
REMARK   12  A    between atoms: C_20  and  O_22
REMARK   13  A    between atoms: C_23  and  O_24
REMARK   14  A    between atoms: O_24  and  C_25
REMARK                            x       y       z     vdW  Elec       q    Type
REMARK                         _______ _______ _______ _____ _____    ______ ____
ROOT
ATOM      1  C   UNL     1       2.398   4.492  18.191  0.00  0.00    +0.000 A 
ATOM      2  C   UNL     1       1.850   5.793  18.137  0.00  0.00    +0.000 A 
ATOM      3  C   UNL     1       2.667   6.921  18.132  0.00  0.00    +0.000 A 
ATOM      4  C   UNL     1       4.029   6.750  18.365  0.00  0.00    +0.000 A 
ATOM      5  C   UNL     1       4.582   5.465  18.488  0.00  0.00    +0.000 A 
ATOM      6  C   UNL     1       3.782   4.314  18.401  0.00  0.00    +0.000 A 
ENDROOT
BRANCH   5   7
ATOM      7  S   UNL     1       6.353   5.378  18.531  0.00  0.00    +0.000 S 
ATOM      8  O   UNL     1       6.897   6.623  18.048  0.00  0.00    +0.000 OA
ATOM      9  O   UNL     1       6.749   4.874  19.834  0.00  0.00    +0.000 OA
BRANCH   7  10
ATOM     10  N   UNL     1       6.770   4.190  17.406  0.00  0.00    +0.000 NA
ATOM     11  H   UNL     1       6.249   3.333  17.601  0.00  0.00    +0.000 HD
BRANCH  10  12
ATOM     12  C   UNL     1       6.929   4.589  16.006  0.00  0.00    +0.000 C 
BRANCH  12  13
ATOM     13  C   UNL     1       6.227   3.578  15.103  0.00  0.00    +0.000 C 
BRANCH  13  14
ATOM     14  C   UNL     1       5.722   4.239  13.820  0.00  0.00    +0.000 C 
BRANCH  14  15
ATOM     15  C   UNL     1       6.402   3.681  12.592  0.00  0.00    +0.000 C 
ATOM     16  O   UNL     1       7.242   4.263  11.925  0.00  0.00    +0.000 OA
BRANCH  15  17
ATOM     17  O   UNL     1       5.978   2.432  12.292  0.00  0.00    +0.000 OA
ATOM     18  H   UNL     1       5.662   1.920  13.061  0.00  0.00    +0.000 HD
ENDBRANCH  15  17
ENDBRANCH  14  15
ENDBRANCH  13  14
ENDBRANCH  12  13
ENDBRANCH  10  12
ENDBRANCH   7  10
ENDBRANCH   5   7
BRANCH   1  20
ATOM     19  C   UNL     1       0.844   2.975  19.129  0.00  0.00    +0.000 C 
ATOM     20  O   UNL     1       1.589   3.403  17.982  0.00  0.00    +0.000 OA
ENDBRANCH   1  20
BRANCH   3  21
ATOM     21  C   UNL     1       2.094   8.232  17.781  0.00  0.00    +0.000 C 
ATOM     22  C   UNL     1       1.536   9.048  18.696  0.00  0.00    +0.000 C 
BRANCH  22  23
ATOM     23  C   UNL     1       1.082  10.397  18.313  0.00  0.00    +0.000 C 
ATOM     24  O   UNL     1       1.709  11.422  18.516  0.00  0.00    +0.000 OA
BRANCH  23  25
ATOM     25  O   UNL     1      -0.128  10.367  17.715  0.00  0.00    +0.000 OA
ATOM     26  H   UNL     1      -0.440   9.502  17.400  0.00  0.00    +0.000 HD
ENDBRANCH  23  25
ENDBRANCH  22  23
ENDBRANCH   3  21
BRANCH   6  27
ATOM     27  O   UNL     1       4.462   3.131  18.456  0.00  0.00    +0.000 OA
ATOM     28  C   UNL     1       4.380   2.305  19.606  0.00  0.00    +0.000 C 
ENDBRANCH   6  27
TORSDOF 12
ENDMDL
MODEL 2
REMARK VINA RESULT:      -6.8      3.502      7.263
REMARK  Name = 
REMARK  14 active torsions:
REMARK  status: ('A' for Active; 'I' for Inactive)
REMARK    1  A    between atoms: C_1  and  O_2
REMARK    2  A    between atoms: O_2  and  C_3
REMARK    3  A    between atoms: C_5  and  C_6
REMARK    4  A    between atoms: C_7  and  C_8
REMARK    5  A    between atoms: C_8  and  O_10
REMARK    6  A    between atoms: C_12  and  S_13
REMARK    7  A    between atoms: S_13  and  N_16
REMARK    8  A    between atoms: N_16  and  C_17
REMARK    9  A    between atoms: C_17  and  C_18
REMARK   10  A    between atoms: C_18  and  C_19
REMARK   11  A    between atoms: C_19  and  C_20
REMARK   12  A    between atoms: C_20  and  O_22
REMARK   13  A    between atoms: C_23  and  O_24
REMARK   14  A    between atoms: O_24  and  C_25
REMARK                            x       y       z     vdW  Elec       q    Type
REMARK                         _______ _______ _______ _____ _____    ______ ____
ROOT
ATOM      1  C   UNL     1       7.111   5.923  16.643  0.00  0.00    +0.000 A 
ATOM      2  C   UNL     1       6.781   5.336  15.401  0.00  0.00    +0.000 A 
ATOM      3  C   UNL     1       5.718   4.444  15.284  0.00  0.00    +0.000 A 
ATOM      4  C   UNL     1       5.099   3.999  16.450  0.00  0.00    +0.000 A 
ATOM      5  C   UNL     1       5.461   4.524  17.701  0.00  0.00    +0.000 A 
ATOM      6  C   UNL     1       6.467   5.494  17.823  0.00  0.00    +0.000 A 
ENDROOT
BRANCH   5   7
ATOM      7  S   UNL     1       4.430   4.060  19.069  0.00  0.00    +0.000 S 
ATOM      8  O   UNL     1       4.999   2.903  19.715  0.00  0.00    +0.000 OA
ATOM      9  O   UNL     1       4.145   5.253  19.844  0.00  0.00    +0.000 OA
BRANCH   7  10
ATOM     10  N   UNL     1       2.968   3.570  18.380  0.00  0.00    +0.000 NA
ATOM     11  H   UNL     1       2.777   4.128  17.545  0.00  0.00    +0.000 HD
BRANCH  10  12
ATOM     12  C   UNL     1       2.676   2.136  18.325  0.00  0.00    +0.000 C 
BRANCH  12  13
ATOM     13  C   UNL     1       1.516   1.815  19.265  0.00  0.00    +0.000 C 
BRANCH  13  14
ATOM     14  C   UNL     1       0.998   3.078  19.954  0.00  0.00    +0.000 C 
BRANCH  14  15
ATOM     15  C   UNL     1       1.528   3.209  21.363  0.00  0.00    +0.000 C 
ATOM     16  O   UNL     1       1.409   2.371  22.242  0.00  0.00    +0.000 OA
BRANCH  15  17
ATOM     17  O   UNL     1       2.170   4.383  21.564  0.00  0.00    +0.000 OA
ATOM     18  H   UNL     1       2.302   4.912  20.755  0.00  0.00    +0.000 HD
ENDBRANCH  15  17
ENDBRANCH  14  15
ENDBRANCH  13  14
ENDBRANCH  12  13
ENDBRANCH  10  12
ENDBRANCH   7  10
ENDBRANCH   5   7
BRANCH   1  20
ATOM     19  C   UNL     1       7.548   8.144  17.332  0.00  0.00    +0.000 C 
ATOM     20  O   UNL     1       8.019   6.953  16.689  0.00  0.00    +0.000 OA
ENDBRANCH   1  20
BRANCH   3  21
ATOM     21  C   UNL     1       5.216   4.081  13.947  0.00  0.00    +0.000 C 
ATOM     22  C   UNL     1       5.940   3.356  13.073  0.00  0.00    +0.000 C 
BRANCH  22  23
ATOM     23  C   UNL     1       5.349   2.922  11.795  0.00  0.00    +0.000 C 
ATOM     24  O   UNL     1       4.507   3.547  11.174  0.00  0.00    +0.000 OA
BRANCH  23  25
ATOM     25  O   UNL     1       5.848   1.734  11.390  0.00  0.00    +0.000 OA
ATOM     26  H   UNL     1       5.960   1.051  12.073  0.00  0.00    +0.000 HD
ENDBRANCH  23  25
ENDBRANCH  22  23
ENDBRANCH   3  21
BRANCH   6  27
ATOM     27  O   UNL     1       6.659   5.975  19.087  0.00  0.00    +0.000 OA
ATOM     28  C   UNL     1       7.785   5.571  19.849  0.00  0.00    +0.000 C 
ENDBRANCH   6  27
TORSDOF 12
ENDMDL
MODEL 3
REMARK VINA RESULT:      -6.7      1.401      1.650
REMARK  Name = 
REMARK  14 active torsions:
REMARK  status: ('A' for Active; 'I' for Inactive)
REMARK    1  A    between atoms: C_1  and  O_2
REMARK    2  A    between atoms: O_2  and  C_3
REMARK    3  A    between atoms: C_5  and  C_6
REMARK    4  A    between atoms: C_7  and  C_8
REMARK    5  A    between atoms: C_8  and  O_10
REMARK    6  A    between atoms: C_12  and  S_13
REMARK    7  A    between atoms: S_13  and  N_16
REMARK    8  A    between atoms: N_16  and  C_17
REMARK    9  A    between atoms: C_17  and  C_18
REMARK   10  A    between atoms: C_18  and  C_19
REMARK   11  A    between atoms: C_19  and  C_20
REMARK   12  A    between atoms: C_20  and  O_22
REMARK   13  A    between atoms: C_23  and  O_24
REMARK   14  A    between atoms: O_24  and  C_25
REMARK                            x       y       z     vdW  Elec       q    Type
REMARK                         _______ _______ _______ _____ _____    ______ ____
ROOT
ATOM      1  C   UNL     1       2.507   4.514  18.054  0.00  0.00    +0.000 A 
ATOM      2  C   UNL     1       2.250   5.870  18.352  0.00  0.00    +0.000 A 
ATOM      3  C   UNL     1       3.186   6.862  18.069  0.00  0.00    +0.000 A 
ATOM      4  C   UNL     1       4.456   6.470  17.653  0.00  0.00    +0.000 A 
ATOM      5  C   UNL     1       4.750   5.118  17.415  0.00  0.00    +0.000 A 
ATOM      6  C   UNL     1       3.785   4.116  17.606  0.00  0.00    +0.000 A 
ENDROOT
BRANCH   5   7
ATOM      7  S   UNL     1       6.317   4.782  16.653  0.00  0.00    +0.000 S 
ATOM      8  O   UNL     1       6.793   5.981  16.010  0.00  0.00    +0.000 OA
ATOM      9  O   UNL     1       7.154   4.102  17.624  0.00  0.00    +0.000 OA
BRANCH   7  10
ATOM     10  N   UNL     1       5.988   3.665  15.430  0.00  0.00    +0.000 NA
ATOM     11  H   UNL     1       5.552   2.833  15.832  0.00  0.00    +0.000 HD
BRANCH  10  12
ATOM     12  C   UNL     1       5.461   4.167  14.159  0.00  0.00    +0.000 C 
BRANCH  12  13
ATOM     13  C   UNL     1       6.379   3.733  13.019  0.00  0.00    +0.000 C 
BRANCH  13  14
ATOM     14  C   UNL     1       5.645   2.823  12.034  0.00  0.00    +0.000 C 
BRANCH  14  15
ATOM     15  C   UNL     1       6.566   1.791  11.425  0.00  0.00    +0.000 C 
ATOM     16  O   UNL     1       7.664   2.022  10.944  0.00  0.00    +0.000 OA
BRANCH  15  17
ATOM     17  O   UNL     1       6.042   0.545  11.466  0.00  0.00    +0.000 OA
ATOM     18  H   UNL     1       6.486  -0.098  10.882  0.00  0.00    +0.000 HD
ENDBRANCH  15  17
ENDBRANCH  14  15
ENDBRANCH  13  14
ENDBRANCH  12  13
ENDBRANCH  10  12
ENDBRANCH   7  10
ENDBRANCH   5   7
BRANCH   1  20
ATOM     19  C   UNL     1       0.948   3.423  19.460  0.00  0.00    +0.000 C 
ATOM     20  O   UNL     1       1.493   3.592  18.145  0.00  0.00    +0.000 OA
ENDBRANCH   1  20
BRANCH   3  21
ATOM     21  C   UNL     1       2.783   8.278  18.115  0.00  0.00    +0.000 C 
ATOM     22  C   UNL     1       1.534   8.686  17.816  0.00  0.00    +0.000 C 
BRANCH  22  23
ATOM     23  C   UNL     1       1.150  10.098  17.989  0.00  0.00    +0.000 C 
ATOM     24  O   UNL     1       0.113  10.475  18.507  0.00  0.00    +0.000 OA
BRANCH  23  25
ATOM     25  O   UNL     1       2.085  10.936  17.492  0.00  0.00    +0.000 OA
ATOM     26  H   UNL     1       2.013  11.164  16.549  0.00  0.00    +0.000 HD
ENDBRANCH  23  25
ENDBRANCH  22  23
ENDBRANCH   3  21
BRANCH   6  27
ATOM     27  O   UNL     1       4.182   2.857  17.259  0.00  0.00    +0.000 OA
ATOM     28  C   UNL     1       3.890   1.752  18.098  0.00  0.00    +0.000 C 
ENDBRANCH   6  27
TORSDOF 12
ENDMDL
MODEL 4
REMARK VINA RESULT:      -6.7      3.051      7.223
REMARK  Name = 
REMARK  14 active torsions:
REMARK  status: ('A' for Active; 'I' for Inactive)
REMARK    1  A    between atoms: C_1  and  O_2
REMARK    2  A    between atoms: O_2  and  C_3
REMARK    3  A    between atoms: C_5  and  C_6
REMARK    4  A    between atoms: C_7  and  C_8
REMARK    5  A    between atoms: C_8  and  O_10
REMARK    6  A    between atoms: C_12  and  S_13
REMARK    7  A    between atoms: S_13  and  N_16
REMARK    8  A    between atoms: N_16  and  C_17
REMARK    9  A    between atoms: C_17  and  C_18
REMARK   10  A    between atoms: C_18  and  C_19
REMARK   11  A    between atoms: C_19  and  C_20
REMARK   12  A    between atoms: C_20  and  O_22
REMARK   13  A    between atoms: C_23  and  O_24
REMARK   14  A    between atoms: O_24  and  C_25
REMARK                            x       y       z     vdW  Elec       q    Type
REMARK                         _______ _______ _______ _____ _____    ______ ____
ROOT
ATOM      1  C   UNL     1       7.271   5.744  16.503  0.00  0.00    +0.000 A 
ATOM      2  C   UNL     1       7.223   5.094  15.250  0.00  0.00    +0.000 A 
ATOM      3  C   UNL     1       6.236   4.154  14.961  0.00  0.00    +0.000 A 
ATOM      4  C   UNL     1       5.405   3.732  15.996  0.00  0.00    +0.000 A 
ATOM      5  C   UNL     1       5.484   4.321  17.268  0.00  0.00    +0.000 A 
ATOM      6  C   UNL     1       6.412   5.337  17.547  0.00  0.00    +0.000 A 
ENDROOT
BRANCH   5   7
ATOM      7  S   UNL     1       4.209   3.870  18.417  0.00  0.00    +0.000 S 
ATOM      8  O   UNL     1       3.074   3.366  17.685  0.00  0.00    +0.000 OA
ATOM      9  O   UNL     1       4.810   3.064  19.464  0.00  0.00    +0.000 OA
BRANCH   7  10
ATOM     10  N   UNL     1       3.727   5.319  19.139  0.00  0.00    +0.000 NA
ATOM     11  H   UNL     1       4.335   6.079  18.826  0.00  0.00    +0.000 HD
BRANCH  10  12
ATOM     12  C   UNL     1       2.292   5.592  19.248  0.00  0.00    +0.000 C 
BRANCH  12  13
ATOM     13  C   UNL     1       1.782   5.107  20.603  0.00  0.00    +0.000 C 
BRANCH  13  14
ATOM     14  C   UNL     1       0.860   3.897  20.445  0.00  0.00    +0.000 C 
BRANCH  14  15
ATOM     15  C   UNL     1       1.487   2.635  20.990  0.00  0.00    +0.000 C 
ATOM     16  O   UNL     1       1.588   2.352  22.173  0.00  0.00    +0.000 OA
BRANCH  15  17
ATOM     17  O   UNL     1       1.939   1.821  20.009  0.00  0.00    +0.000 OA
ATOM     18  H   UNL     1       2.873   1.554  20.107  0.00  0.00    +0.000 HD
ENDBRANCH  15  17
ENDBRANCH  14  15
ENDBRANCH  13  14
ENDBRANCH  12  13
ENDBRANCH  10  12
ENDBRANCH   7  10
ENDBRANCH   5   7
BRANCH   1  20
ATOM     19  C   UNL     1       7.507   7.970  17.269  0.00  0.00    +0.000 C 
ATOM     20  O   UNL     1       8.116   6.811  16.686  0.00  0.00    +0.000 OA
ENDBRANCH   1  20
BRANCH   3  21
ATOM     21  C   UNL     1       6.032   3.718  13.569  0.00  0.00    +0.000 C 
ATOM     22  C   UNL     1       4.814   3.439  13.068  0.00  0.00    +0.000 C 
BRANCH  22  23
ATOM     23  C   UNL     1       4.651   3.118  11.638  0.00  0.00    +0.000 C 
ATOM     24  O   UNL     1       3.974   3.763  10.857  0.00  0.00    +0.000 OA
BRANCH  23  25
ATOM     25  O   UNL     1       5.339   2.008  11.293  0.00  0.00    +0.000 OA
ATOM     26  H   UNL     1       5.793   2.024  10.433  0.00  0.00    +0.000 HD
ENDBRANCH  23  25
ENDBRANCH  22  23
ENDBRANCH   3  21
BRANCH   6  27
ATOM     27  O   UNL     1       6.323   5.875  18.799  0.00  0.00    +0.000 OA
ATOM     28  C   UNL     1       7.301   5.578  19.782  0.00  0.00    +0.000 C 
ENDBRANCH   6  27
TORSDOF 12
ENDMDL
MODEL 5
REMARK VINA RESULT:      -6.5      1.116      1.388
REMARK  Name = 
REMARK  14 active torsions:
REMARK  status: ('A' for Active; 'I' for Inactive)
REMARK    1  A    between atoms: C_1  and  O_2
REMARK    2  A    between atoms: O_2  and  C_3
REMARK    3  A    between atoms: C_5  and  C_6
REMARK    4  A    between atoms: C_7  and  C_8
REMARK    5  A    between atoms: C_8  and  O_10
REMARK    6  A    between atoms: C_12  and  S_13
REMARK    7  A    between atoms: S_13  and  N_16
REMARK    8  A    between atoms: N_16  and  C_17
REMARK    9  A    between atoms: C_17  and  C_18
REMARK   10  A    between atoms: C_18  and  C_19
REMARK   11  A    between atoms: C_19  and  C_20
REMARK   12  A    between atoms: C_20  and  O_22
REMARK   13  A    between atoms: C_23  and  O_24
REMARK   14  A    between atoms: O_24  and  C_25
REMARK                            x       y       z     vdW  Elec       q    Type
REMARK                         _______ _______ _______ _____ _____    ______ ____
ROOT
ATOM      1  C   UNL     1       2.210   4.551  17.910  0.00  0.00    +0.000 A 
ATOM      2  C   UNL     1       1.850   5.907  18.075  0.00  0.00    +0.000 A 
ATOM      3  C   UNL     1       2.776   6.929  17.879  0.00  0.00    +0.000 A 
ATOM      4  C   UNL     1       4.112   6.582  17.697  0.00  0.00    +0.000 A 
ATOM      5  C   UNL     1       4.499   5.236  17.597  0.00  0.00    +0.000 A 
ATOM      6  C   UNL     1       3.560   4.197  17.698  0.00  0.00    +0.000 A 
ENDROOT
BRANCH   5   7
ATOM      7  S   UNL     1       6.181   4.940  17.118  0.00  0.00    +0.000 S 
ATOM      8  O   UNL     1       6.748   6.166  16.614  0.00  0.00    +0.000 OA
ATOM      9  O   UNL     1       6.840   4.229  18.197  0.00  0.00    +0.000 OA
BRANCH   7  10
ATOM     10  N   UNL     1       6.091   3.868  15.815  0.00  0.00    +0.000 NA
ATOM     11  H   UNL     1       5.739   2.965  16.137  0.00  0.00    +0.000 HD
BRANCH  10  12
ATOM     12  C   UNL     1       5.600   4.378  14.533  0.00  0.00    +0.000 C 
BRANCH  12  13
ATOM     13  C   UNL     1       6.412   3.763  13.395  0.00  0.00    +0.000 C 
BRANCH  13  14
ATOM     14  C   UNL     1       5.499   3.122  12.349  0.00  0.00    +0.000 C 
BRANCH  14  15
ATOM     15  C   UNL     1       6.208   2.040  11.568  0.00  0.00    +0.000 C 
ATOM     16  O   UNL     1       5.682   1.035  11.119  0.00  0.00    +0.000 OA
BRANCH  15  17
ATOM     17  O   UNL     1       7.525   2.302  11.408  0.00  0.00    +0.000 OA
ATOM     18  H   UNL     1       7.718   3.193  11.059  0.00  0.00    +0.000 HD
ENDBRANCH  15  17
ENDBRANCH  14  15
ENDBRANCH  13  14
ENDBRANCH  12  13
ENDBRANCH  10  12
ENDBRANCH   7  10
ENDBRANCH   5   7
BRANCH   1  20
ATOM     19  C   UNL     1       0.777   3.176  19.195  0.00  0.00    +0.000 C 
ATOM     20  O   UNL     1       1.236   3.584  17.900  0.00  0.00    +0.000 OA
ENDBRANCH   1  20
BRANCH   3  21
ATOM     21  C   UNL     1       2.309   8.322  17.768  0.00  0.00    +0.000 C 
ATOM     22  C   UNL     1       1.573   8.918  18.725  0.00  0.00    +0.000 C 
BRANCH  22  23
ATOM     23  C   UNL     1       1.229  10.348  18.619  0.00  0.00    +0.000 C 
ATOM     24  O   UNL     1       2.018  11.230  18.331  0.00  0.00    +0.000 OA
BRANCH  23  25
ATOM     25  O   UNL     1      -0.075  10.570  18.890  0.00  0.00    +0.000 OA
ATOM     26  H   UNL     1      -0.723  10.044  18.391  0.00  0.00    +0.000 HD
ENDBRANCH  23  25
ENDBRANCH  22  23
ENDBRANCH   3  21
BRANCH   6  27
ATOM     27  O   UNL     1       4.061   2.942  17.501  0.00  0.00    +0.000 OA
ATOM     28  C   UNL     1       4.043   1.985  18.548  0.00  0.00    +0.000 C 
ENDBRANCH   6  27
TORSDOF 12
ENDMDL
MODEL 6
REMARK VINA RESULT:      -6.5      0.966      1.077
REMARK  Name = 
REMARK  14 active torsions:
REMARK  status: ('A' for Active; 'I' for Inactive)
REMARK    1  A    between atoms: C_1  and  O_2
REMARK    2  A    between atoms: O_2  and  C_3
REMARK    3  A    between atoms: C_5  and  C_6
REMARK    4  A    between atoms: C_7  and  C_8
REMARK    5  A    between atoms: C_8  and  O_10
REMARK    6  A    between atoms: C_12  and  S_13
REMARK    7  A    between atoms: S_13  and  N_16
REMARK    8  A    between atoms: N_16  and  C_17
REMARK    9  A    between atoms: C_17  and  C_18
REMARK   10  A    between atoms: C_18  and  C_19
REMARK   11  A    between atoms: C_19  and  C_20
REMARK   12  A    between atoms: C_20  and  O_22
REMARK   13  A    between atoms: C_23  and  O_24
REMARK   14  A    between atoms: O_24  and  C_25
REMARK                            x       y       z     vdW  Elec       q    Type
REMARK                         _______ _______ _______ _____ _____    ______ ____
ROOT
ATOM      1  C   UNL     1       2.519   4.537  19.410  0.00  0.00    +0.000 A 
ATOM      2  C   UNL     1       2.029   5.855  19.278  0.00  0.00    +0.000 A 
ATOM      3  C   UNL     1       2.754   6.830  18.597  0.00  0.00    +0.000 A 
ATOM      4  C   UNL     1       4.056   6.529  18.204  0.00  0.00    +0.000 A 
ATOM      5  C   UNL     1       4.583   5.240  18.387  0.00  0.00    +0.000 A 
ATOM      6  C   UNL     1       3.828   4.221  18.988  0.00  0.00    +0.000 A 
ENDROOT
BRANCH   5   7
ATOM      7  S   UNL     1       6.151   4.923  17.621  0.00  0.00    +0.000 S 
ATOM      8  O   UNL     1       6.557   6.091  16.879  0.00  0.00    +0.000 OA
ATOM      9  O   UNL     1       7.037   4.359  18.622  0.00  0.00    +0.000 OA
BRANCH   7  10
ATOM     10  N   UNL     1       5.857   3.701  16.492  0.00  0.00    +0.000 NA
ATOM     11  H   UNL     1       4.861   3.470  16.487  0.00  0.00    +0.000 HD
BRANCH  10  12
ATOM     12  C   UNL     1       6.550   3.768  15.204  0.00  0.00    +0.000 C 
BRANCH  12  13
ATOM     13  C   UNL     1       5.607   4.334  14.145  0.00  0.00    +0.000 C 
BRANCH  13  14
ATOM     14  C   UNL     1       5.477   3.383  12.955  0.00  0.00    +0.000 C 
BRANCH  14  15
ATOM     15  C   UNL     1       6.703   3.414  12.072  0.00  0.00    +0.000 C 
ATOM     16  O   UNL     1       7.341   4.414  11.786  0.00  0.00    +0.000 OA
BRANCH  15  17
ATOM     17  O   UNL     1       7.038   2.185  11.615  0.00  0.00    +0.000 OA
ATOM     18  H   UNL     1       7.574   2.193  10.799  0.00  0.00    +0.000 HD
ENDBRANCH  15  17
ENDBRANCH  14  15
ENDBRANCH  13  14
ENDBRANCH  12  13
ENDBRANCH  10  12
ENDBRANCH   7  10
ENDBRANCH   5   7
BRANCH   1  20
ATOM     19  C   UNL     1       0.942   2.848  18.901  0.00  0.00    +0.000 C 
ATOM     20  O   UNL     1       1.697   3.550  19.896  0.00  0.00    +0.000 OA
ENDBRANCH   1  20
BRANCH   3  21
ATOM     21  C   UNL     1       2.099   8.095  18.223  0.00  0.00    +0.000 C 
ATOM     22  C   UNL     1       1.539   8.917  19.131  0.00  0.00    +0.000 C 
BRANCH  22  23
ATOM     23  C   UNL     1       0.998  10.225  18.720  0.00  0.00    +0.000 C 
ATOM     24  O   UNL     1       0.105  10.818  19.299  0.00  0.00    +0.000 OA
BRANCH  23  25
ATOM     25  O   UNL     1       1.608  10.692  17.609  0.00  0.00    +0.000 OA
ATOM     26  H   UNL     1       1.057  10.786  16.813  0.00  0.00    +0.000 HD
ENDBRANCH  23  25
ENDBRANCH  22  23
ENDBRANCH   3  21
BRANCH   6  27
ATOM     27  O   UNL     1       4.435   2.998  19.029  0.00  0.00    +0.000 OA
ATOM     28  C   UNL     1       4.570   2.300  20.256  0.00  0.00    +0.000 C 
ENDBRANCH   6  27
TORSDOF 12
ENDMDL
MODEL 7
REMARK VINA RESULT:      -6.5      2.355      5.627
REMARK  Name = 
REMARK  14 active torsions:
REMARK  status: ('A' for Active; 'I' for Inactive)
REMARK    1  A    between atoms: C_1  and  O_2
REMARK    2  A    between atoms: O_2  and  C_3
REMARK    3  A    between atoms: C_5  and  C_6
REMARK    4  A    between atoms: C_7  and  C_8
REMARK    5  A    between atoms: C_8  and  O_10
REMARK    6  A    between atoms: C_12  and  S_13
REMARK    7  A    between atoms: S_13  and  N_16
REMARK    8  A    between atoms: N_16  and  C_17
REMARK    9  A    between atoms: C_17  and  C_18
REMARK   10  A    between atoms: C_18  and  C_19
REMARK   11  A    between atoms: C_19  and  C_20
REMARK   12  A    between atoms: C_20  and  O_22
REMARK   13  A    between atoms: C_23  and  O_24
REMARK   14  A    between atoms: O_24  and  C_25
REMARK                            x       y       z     vdW  Elec       q    Type
REMARK                         _______ _______ _______ _____ _____    ______ ____
ROOT
ATOM      1  C   UNL     1       5.479   6.803  16.981  0.00  0.00    +0.000 A 
ATOM      2  C   UNL     1       4.415   7.664  17.330  0.00  0.00    +0.000 A 
ATOM      3  C   UNL     1       3.225   7.166  17.856  0.00  0.00    +0.000 A 
ATOM      4  C   UNL     1       3.033   5.787  17.861  0.00  0.00    +0.000 A 
ATOM      5  C   UNL     1       4.057   4.916  17.453  0.00  0.00    +0.000 A 
ATOM      6  C   UNL     1       5.296   5.403  17.010  0.00  0.00    +0.000 A 
ENDROOT
BRANCH   5   7
ATOM      7  S   UNL     1       3.774   3.189  17.743  0.00  0.00    +0.000 S 
ATOM      8  O   UNL     1       4.314   2.433  16.641  0.00  0.00    +0.000 OA
ATOM      9  O   UNL     1       4.189   2.886  19.100  0.00  0.00    +0.000 OA
BRANCH   7  10
ATOM     10  N   UNL     1       2.096   2.998  17.696  0.00  0.00    +0.000 NA
ATOM     11  H   UNL     1       1.784   2.937  16.725  0.00  0.00    +0.000 HD
BRANCH  10  12
ATOM     12  C   UNL     1       1.475   2.101  18.673  0.00  0.00    +0.000 C 
BRANCH  12  13
ATOM     13  C   UNL     1       0.514   2.893  19.556  0.00  0.00    +0.000 C 
BRANCH  13  14
ATOM     14  C   UNL     1       1.269   3.677  20.629  0.00  0.00    +0.000 C 
BRANCH  14  15
ATOM     15  C   UNL     1       1.749   2.783  21.749  0.00  0.00    +0.000 C 
ATOM     16  O   UNL     1       1.046   2.318  22.630  0.00  0.00    +0.000 OA
BRANCH  15  17
ATOM     17  O   UNL     1       3.077   2.538  21.677  0.00  0.00    +0.000 OA
ATOM     18  H   UNL     1       3.305   1.673  21.286  0.00  0.00    +0.000 HD
ENDBRANCH  15  17
ENDBRANCH  14  15
ENDBRANCH  13  14
ENDBRANCH  12  13
ENDBRANCH  10  12
ENDBRANCH   7  10
ENDBRANCH   5   7
BRANCH   1  20
ATOM     19  C   UNL     1       7.598   7.485  17.780  0.00  0.00    +0.000 C 
ATOM     20  O   UNL     1       6.708   7.329  16.668  0.00  0.00    +0.000 OA
ENDBRANCH   1  20
BRANCH   3  21
ATOM     21  C   UNL     1       2.263   8.091  18.480  0.00  0.00    +0.000 C 
ATOM     22  C   UNL     1       1.641   9.065  17.788  0.00  0.00    +0.000 C 
BRANCH  22  23
ATOM     23  C   UNL     1       0.601   9.888  18.430  0.00  0.00    +0.000 C 
ATOM     24  O   UNL     1      -0.502  10.103  17.958  0.00  0.00    +0.000 OA
BRANCH  23  25
ATOM     25  O   UNL     1       1.020  10.392  19.611  0.00  0.00    +0.000 OA
ATOM     26  H   UNL     1       1.921  10.756  19.638  0.00  0.00    +0.000 HD
ENDBRANCH  23  25
ENDBRANCH  22  23
ENDBRANCH   3  21
BRANCH   6  27
ATOM     27  O   UNL     1       6.226   4.445  16.723  0.00  0.00    +0.000 OA
ATOM     28  C   UNL     1       6.747   4.316  15.410  0.00  0.00    +0.000 C 
ENDBRANCH   6  27
TORSDOF 12
ENDMDL
MODEL 8
REMARK VINA RESULT:      -6.4      3.033      3.754
REMARK  Name = 
REMARK  14 active torsions:
REMARK  status: ('A' for Active; 'I' for Inactive)
REMARK    1  A    between atoms: C_1  and  O_2
REMARK    2  A    between atoms: O_2  and  C_3
REMARK    3  A    between atoms: C_5  and  C_6
REMARK    4  A    between atoms: C_7  and  C_8
REMARK    5  A    between atoms: C_8  and  O_10
REMARK    6  A    between atoms: C_12  and  S_13
REMARK    7  A    between atoms: S_13  and  N_16
REMARK    8  A    between atoms: N_16  and  C_17
REMARK    9  A    between atoms: C_17  and  C_18
REMARK   10  A    between atoms: C_18  and  C_19
REMARK   11  A    between atoms: C_19  and  C_20
REMARK   12  A    between atoms: C_20  and  O_22
REMARK   13  A    between atoms: C_23  and  O_24
REMARK   14  A    between atoms: O_24  and  C_25
REMARK                            x       y       z     vdW  Elec       q    Type
REMARK                         _______ _______ _______ _____ _____    ______ ____
ROOT
ATOM      1  C   UNL     1       1.826   4.182  20.301  0.00  0.00    +0.000 A 
ATOM      2  C   UNL     1       1.498   5.484  20.741  0.00  0.00    +0.000 A 
ATOM      3  C   UNL     1       1.996   6.612  20.093  0.00  0.00    +0.000 A 
ATOM      4  C   UNL     1       2.971   6.433  19.114  0.00  0.00    +0.000 A 
ATOM      5  C   UNL     1       3.357   5.145  18.710  0.00  0.00    +0.000 A 
ATOM      6  C   UNL     1       2.793   3.998  19.290  0.00  0.00    +0.000 A 
ENDROOT
BRANCH   5   7
ATOM      7  S   UNL     1       4.416   5.057  17.289  0.00  0.00    +0.000 S 
ATOM      8  O   UNL     1       3.773   4.263  16.272  0.00  0.00    +0.000 OA
ATOM      9  O   UNL     1       4.867   6.402  16.979  0.00  0.00    +0.000 OA
BRANCH   7  10
ATOM     10  N   UNL     1       5.776   4.196  17.799  0.00  0.00    +0.000 NA
ATOM     11  H   UNL     1       6.304   3.873  16.986  0.00  0.00    +0.000 HD
BRANCH  10  12
ATOM     12  C   UNL     1       6.531   4.710  18.944  0.00  0.00    +0.000 C 
BRANCH  12  13
ATOM     13  C   UNL     1       7.863   5.281  18.463  0.00  0.00    +0.000 C 
BRANCH  13  14
ATOM     14  C   UNL     1       7.996   6.759  18.832  0.00  0.00    +0.000 C 
BRANCH  14  15
ATOM     15  C   UNL     1       7.837   7.657  17.627  0.00  0.00    +0.000 C 
ATOM     16  O   UNL     1       7.896   8.876  17.643  0.00  0.00    +0.000 OA
BRANCH  15  17
ATOM     17  O   UNL     1       7.616   6.958  16.490  0.00  0.00    +0.000 OA
ATOM     18  H   UNL     1       7.005   6.204  16.595  0.00  0.00    +0.000 HD
ENDBRANCH  15  17
ENDBRANCH  14  15
ENDBRANCH  13  14
ENDBRANCH  12  13
ENDBRANCH  10  12
ENDBRANCH   7  10
ENDBRANCH   5   7
BRANCH   1  20
ATOM     19  C   UNL     1       1.771   2.509  21.972  0.00  0.00    +0.000 C 
ATOM     20  O   UNL     1       1.158   3.100  20.820  0.00  0.00    +0.000 OA
ENDBRANCH   1  20
BRANCH   3  21
ATOM     21  C   UNL     1       1.413   7.934  20.381  0.00  0.00    +0.000 C 
ATOM     22  C   UNL     1       1.430   8.480  21.612  0.00  0.00    +0.000 C 
BRANCH  22  23
ATOM     23  C   UNL     1       0.936   9.853  21.825  0.00  0.00    +0.000 C 
ATOM     24  O   UNL     1       1.016  10.751  21.006  0.00  0.00    +0.000 OA
BRANCH  23  25
ATOM     25  O   UNL     1       0.388  10.004  23.049  0.00  0.00    +0.000 OA
ATOM     26  H   UNL     1      -0.265   9.337  23.322  0.00  0.00    +0.000 HD
ENDBRANCH  23  25
ENDBRANCH  22  23
ENDBRANCH   3  21
BRANCH   6  27
ATOM     27  O   UNL     1       3.201   2.813  18.746  0.00  0.00    +0.000 OA
ATOM     28  C   UNL     1       2.280   1.980  18.061  0.00  0.00    +0.000 C 
ENDBRANCH   6  27
TORSDOF 12
ENDMDL
MODEL 9
REMARK VINA RESULT:      -6.4      0.912      1.104
REMARK  Name = 
REMARK  14 active torsions:
REMARK  status: ('A' for Active; 'I' for Inactive)
REMARK    1  A    between atoms: C_1  and  O_2
REMARK    2  A    between atoms: O_2  and  C_3
REMARK    3  A    between atoms: C_5  and  C_6
REMARK    4  A    between atoms: C_7  and  C_8
REMARK    5  A    between atoms: C_8  and  O_10
REMARK    6  A    between atoms: C_12  and  S_13
REMARK    7  A    between atoms: S_13  and  N_16
REMARK    8  A    between atoms: N_16  and  C_17
REMARK    9  A    between atoms: C_17  and  C_18
REMARK   10  A    between atoms: C_18  and  C_19
REMARK   11  A    between atoms: C_19  and  C_20
REMARK   12  A    between atoms: C_20  and  O_22
REMARK   13  A    between atoms: C_23  and  O_24
REMARK   14  A    between atoms: O_24  and  C_25
REMARK                            x       y       z     vdW  Elec       q    Type
REMARK                         _______ _______ _______ _____ _____    ______ ____
ROOT
ATOM      1  C   UNL     1       2.872   4.415  19.396  0.00  0.00    +0.000 A 
ATOM      2  C   UNL     1       2.219   5.631  19.097  0.00  0.00    +0.000 A 
ATOM      3  C   UNL     1       2.935   6.749  18.673  0.00  0.00    +0.000 A 
ATOM      4  C   UNL     1       4.325   6.700  18.727  0.00  0.00    +0.000 A 
ATOM      5  C   UNL     1       4.991   5.517  19.087  0.00  0.00    +0.000 A 
ATOM      6  C   UNL     1       4.281   4.354  19.425  0.00  0.00    +0.000 A 
ENDROOT
BRANCH   5   7
ATOM      7  S   UNL     1       6.752   5.517  18.873  0.00  0.00    +0.000 S 
ATOM      8  O   UNL     1       7.128   6.651  18.066  0.00  0.00    +0.000 OA
ATOM      9  O   UNL     1       7.364   5.321  20.174  0.00  0.00    +0.000 OA
BRANCH   7  10
ATOM     10  N   UNL     1       7.090   4.133  17.966  0.00  0.00    +0.000 NA
ATOM     11  H   UNL     1       6.545   3.345  18.323  0.00  0.00    +0.000 HD
BRANCH  10  12
ATOM     12  C   UNL     1       7.220   4.273  16.513  0.00  0.00    +0.000 C 
BRANCH  12  13
ATOM     13  C   UNL     1       5.904   3.886  15.843  0.00  0.00    +0.000 C 
BRANCH  13  14
ATOM     14  C   UNL     1       5.632   4.757  14.616  0.00  0.00    +0.000 C 
BRANCH  14  15
ATOM     15  C   UNL     1       6.562   4.425  13.472  0.00  0.00    +0.000 C 
ATOM     16  O   UNL     1       6.450   3.464  12.729  0.00  0.00    +0.000 OA
BRANCH  15  17
ATOM     17  O   UNL     1       7.563   5.326  13.345  0.00  0.00    +0.000 OA
ATOM     18  H   UNL     1       7.695   5.654  12.436  0.00  0.00    +0.000 HD
ENDBRANCH  15  17
ENDBRANCH  14  15
ENDBRANCH  13  14
ENDBRANCH  12  13
ENDBRANCH  10  12
ENDBRANCH   7  10
ENDBRANCH   5   7
BRANCH   1  20
ATOM     19  C   UNL     1       1.184   2.977  18.570  0.00  0.00    +0.000 C 
ATOM     20  O   UNL     1       2.130   3.277  19.604  0.00  0.00    +0.000 OA
ENDBRANCH   1  20
BRANCH   3  21
ATOM     21  C   UNL     1       2.215   7.895  18.092  0.00  0.00    +0.000 C 
ATOM     22  C   UNL     1       1.666   8.865  18.848  0.00  0.00    +0.000 C 
BRANCH  22  23
ATOM     23  C   UNL     1       1.058  10.049  18.214  0.00  0.00    +0.000 C 
ATOM     24  O   UNL     1       1.537  11.169  18.238  0.00  0.00    +0.000 OA
BRANCH  23  25
ATOM     25  O   UNL     1      -0.110   9.748  17.607  0.00  0.00    +0.000 OA
ATOM     26  H   UNL     1      -0.268  10.152  16.737  0.00  0.00    +0.000 HD
ENDBRANCH  23  25
ENDBRANCH  22  23
ENDBRANCH   3  21
BRANCH   6  27
ATOM     27  O   UNL     1       5.054   3.256  19.675  0.00  0.00    +0.000 OA
ATOM     28  C   UNL     1       4.575   1.955  19.379  0.00  0.00    +0.000 C 
ENDBRANCH   6  27
TORSDOF 12
ENDMDL
