MODEL 1
REMARK VINA RESULT:      -8.6      0.000      0.000
REMARK  Name = 
REMARK  8 active torsions:
REMARK  status: ('A' for Active; 'I' for Inactive)
REMARK    1  A    between atoms: C_1  and  C_2
REMARK    2  A    between atoms: C_2  and  C_3
REMARK    3  A    between atoms: C_3  and  C_4
REMARK    4  A    between atoms: C_4  and  C_5
REMARK    5  A    between atoms: C_5  and  N_6
REMARK    6  A    between atoms: C_7  and  C_8
REMARK    7  A    between atoms: C_9  and  C_10
REMARK    8  A    between atoms: C_10  and  C_12
REMARK                            x       y       z     vdW  Elec       q    Type
REMARK                         _______ _______ _______ _____ _____    ______ ____
ROOT
ATOM      1  N   UNL     1       4.435   5.094  18.351  0.00  0.00    +0.000 N 
ATOM      2  C   UNL     1       4.247   6.448  18.104  0.00  0.00    +0.000 A 
ATOM      3  C   UNL     1       5.187   7.235  17.239  0.00  0.00    +0.000 C 
ATOM      4  C   UNL     1       3.028   6.862  18.713  0.00  0.00    +0.000 A 
ATOM      5  C   UNL     1       2.556   5.709  19.442  0.00  0.00    +0.000 A 
ATOM      6  C   UNL     1       1.397   5.424  20.170  0.00  0.00    +0.000 A 
ATOM      7  C   UNL     1       1.199   4.152  20.722  0.00  0.00    +0.000 A 
ATOM      8  C   UNL     1       2.120   3.153  20.547  0.00  0.00    +0.000 A 
ATOM      9  C   UNL     1       3.284   3.382  19.799  0.00  0.00    +0.000 A 
ATOM     10  C   UNL     1       3.468   4.654  19.237  0.00  0.00    +0.000 A 
ENDROOT
BRANCH   4  11
ATOM     11  C   UNL     1       2.245   8.050  18.259  0.00  0.00    +0.000 C 
ATOM     12  O   UNL     1       2.577   8.464  17.136  0.00  0.00    +0.000 OA
BRANCH  11  13
ATOM     13  C   UNL     1       1.237   8.992  18.988  0.00  0.00    +0.000 A 
ATOM     14  C   UNL     1       0.471   9.613  17.973  0.00  0.00    +0.000 A 
ATOM     15  C   UNL     1      -0.703  10.288  18.240  0.00  0.00    +0.000 A 
ATOM     16  C   UNL     1      -0.686  11.025  19.382  0.00  0.00    +0.000 A 
ATOM     17  C   UNL     1      -0.033  10.471  20.484  0.00  0.00    +0.000 A 
ATOM     18  C   UNL     1      -0.456  11.041  21.688  0.00  0.00    +0.000 A 
ATOM     19  C   UNL     1      -0.305  10.353  22.869  0.00  0.00    +0.000 A 
ATOM     20  C   UNL     1       0.282   9.093  22.825  0.00  0.00    +0.000 A 
ATOM     21  C   UNL     1       0.853   8.595  21.619  0.00  0.00    +0.000 A 
ATOM     22  C   UNL     1       0.771   9.285  20.359  0.00  0.00    +0.000 A 
ENDBRANCH  11  13
ENDBRANCH   4  11
BRANCH   1  23
ATOM     23  C   UNL     1       5.456   4.195  17.796  0.00  0.00    +0.000 C 
BRANCH  23  24
ATOM     24  C   UNL     1       5.523   4.060  16.254  0.00  0.00    +0.000 C 
BRANCH  24  25
ATOM     25  C   UNL     1       6.899   4.326  15.641  0.00  0.00    +0.000 C 
BRANCH  25  27
ATOM     26  C   UNL     1       6.093   3.711  13.326  0.00  0.00    +0.000 C 
ATOM     27  C   UNL     1       6.787   4.764  14.173  0.00  0.00    +0.000 C 
ENDBRANCH  25  27
ENDBRANCH  24  25
ENDBRANCH  23  24
ENDBRANCH   1  23
TORSDOF 6
ENDMDL
MODEL 2
REMARK VINA RESULT:      -8.5      1.410      2.307
REMARK  Name = 
REMARK  8 active torsions:
REMARK  status: ('A' for Active; 'I' for Inactive)
REMARK    1  A    between atoms: C_1  and  C_2
REMARK    2  A    between atoms: C_2  and  C_3
REMARK    3  A    between atoms: C_3  and  C_4
REMARK    4  A    between atoms: C_4  and  C_5
REMARK    5  A    between atoms: C_5  and  N_6
REMARK    6  A    between atoms: C_7  and  C_8
REMARK    7  A    between atoms: C_9  and  C_10
REMARK    8  A    between atoms: C_10  and  C_12
REMARK                            x       y       z     vdW  Elec       q    Type
REMARK                         _______ _______ _______ _____ _____    ______ ____
ROOT
ATOM      1  N   UNL     1       5.045   4.856  17.393  0.00  0.00    +0.000 N 
ATOM      2  C   UNL     1       4.803   6.190  17.699  0.00  0.00    +0.000 A 
ATOM      3  C   UNL     1       5.850   7.249  17.513  0.00  0.00    +0.000 C 
ATOM      4  C   UNL     1       3.442   6.331  18.094  0.00  0.00    +0.000 A 
ATOM      5  C   UNL     1       2.913   4.988  18.126  0.00  0.00    +0.000 A 
ATOM      6  C   UNL     1       1.643   4.446  18.346  0.00  0.00    +0.000 A 
ATOM      7  C   UNL     1       1.433   3.066  18.244  0.00  0.00    +0.000 A 
ATOM      8  C   UNL     1       2.453   2.216  17.906  0.00  0.00    +0.000 A 
ATOM      9  C   UNL     1       3.737   2.716  17.645  0.00  0.00    +0.000 A 
ATOM     10  C   UNL     1       3.937   4.102  17.736  0.00  0.00    +0.000 A 
ENDROOT
BRANCH   4  11
ATOM     11  C   UNL     1       2.689   7.618  17.998  0.00  0.00    +0.000 C 
ATOM     12  O   UNL     1       2.931   8.259  16.963  0.00  0.00    +0.000 OA
BRANCH  11  13
ATOM     13  C   UNL     1       1.815   8.408  19.020  0.00  0.00    +0.000 A 
ATOM     14  C   UNL     1       1.794   7.634  20.205  0.00  0.00    +0.000 A 
ATOM     15  C   UNL     1       1.365   8.143  21.414  0.00  0.00    +0.000 A 
ATOM     16  C   UNL     1       0.288   8.968  21.331  0.00  0.00    +0.000 A 
ATOM     17  C   UNL     1       0.242   9.844  20.246  0.00  0.00    +0.000 A 
ATOM     18  C   UNL     1      -0.603  10.932  20.483  0.00  0.00    +0.000 A 
ATOM     19  C   UNL     1      -0.438  12.101  19.779  0.00  0.00    +0.000 A 
ATOM     20  C   UNL     1       0.579  12.161  18.833  0.00  0.00    +0.000 A 
ATOM     21  C   UNL     1       1.325  10.997  18.489  0.00  0.00    +0.000 A 
ATOM     22  C   UNL     1       1.170   9.731  19.153  0.00  0.00    +0.000 A 
ENDBRANCH  11  13
ENDBRANCH   4  11
BRANCH   1  23
ATOM     23  C   UNL     1       6.245   4.258  16.792  0.00  0.00    +0.000 C 
BRANCH  23  24
ATOM     24  C   UNL     1       6.089   3.597  15.399  0.00  0.00    +0.000 C 
BRANCH  24  25
ATOM     25  C   UNL     1       5.535   4.515  14.307  0.00  0.00    +0.000 C 
BRANCH  25  27
ATOM     26  C   UNL     1       6.550   3.526  12.214  0.00  0.00    +0.000 C 
ATOM     27  C   UNL     1       5.271   3.744  13.005  0.00  0.00    +0.000 C 
ENDBRANCH  25  27
ENDBRANCH  24  25
ENDBRANCH  23  24
ENDBRANCH   1  23
TORSDOF 6
ENDMDL
MODEL 3
REMARK VINA RESULT:      -8.3      1.738      4.341
REMARK  Name = 
REMARK  8 active torsions:
REMARK  status: ('A' for Active; 'I' for Inactive)
REMARK    1  A    between atoms: C_1  and  C_2
REMARK    2  A    between atoms: C_2  and  C_3
REMARK    3  A    between atoms: C_3  and  C_4
REMARK    4  A    between atoms: C_4  and  C_5
REMARK    5  A    between atoms: C_5  and  N_6
REMARK    6  A    between atoms: C_7  and  C_8
REMARK    7  A    between atoms: C_9  and  C_10
REMARK    8  A    between atoms: C_10  and  C_12
REMARK                            x       y       z     vdW  Elec       q    Type
REMARK                         _______ _______ _______ _____ _____    ______ ____
ROOT
ATOM      1  N   UNL     1       4.008   4.285  17.962  0.00  0.00    +0.000 N 
ATOM      2  C   UNL     1       2.984   5.178  17.670  0.00  0.00    +0.000 A 
ATOM      3  C   UNL     1       1.544   4.755  17.649  0.00  0.00    +0.000 C 
ATOM      4  C   UNL     1       3.540   6.479  17.508  0.00  0.00    +0.000 A 
ATOM      5  C   UNL     1       4.969   6.295  17.600  0.00  0.00    +0.000 A 
ATOM      6  C   UNL     1       6.064   7.165  17.612  0.00  0.00    +0.000 A 
ATOM      7  C   UNL     1       7.363   6.670  17.783  0.00  0.00    +0.000 A 
ATOM      8  C   UNL     1       7.593   5.332  17.964  0.00  0.00    +0.000 A 
ATOM      9  C   UNL     1       6.524   4.424  17.990  0.00  0.00    +0.000 A 
ATOM     10  C   UNL     1       5.224   4.929  17.832  0.00  0.00    +0.000 A 
ENDROOT
BRANCH   4  11
ATOM     11  C   UNL     1       2.757   7.736  17.699  0.00  0.00    +0.000 C 
ATOM     12  O   UNL     1       2.923   8.568  16.792  0.00  0.00    +0.000 OA
BRANCH  11  13
ATOM     13  C   UNL     1       1.930   8.293  18.900  0.00  0.00    +0.000 A 
ATOM     14  C   UNL     1       2.130   7.390  19.971  0.00  0.00    +0.000 A 
ATOM     15  C   UNL     1       1.794   7.699  21.273  0.00  0.00    +0.000 A 
ATOM     16  C   UNL     1       0.634   8.395  21.409  0.00  0.00    +0.000 A 
ATOM     17  C   UNL     1       0.371   9.381  20.457  0.00  0.00    +0.000 A 
ATOM     18  C   UNL     1      -0.550  10.326  20.918  0.00  0.00    +0.000 A 
ATOM     19  C   UNL     1      -0.591  11.581  20.358  0.00  0.00    +0.000 A 
ATOM     20  C   UNL     1       0.297  11.870  19.327  0.00  0.00    +0.000 A 
ATOM     21  C   UNL     1       1.115  10.851  18.761  0.00  0.00    +0.000 A 
ATOM     22  C   UNL     1       1.171   9.506  19.268  0.00  0.00    +0.000 A 
ENDBRANCH  11  13
ENDBRANCH   4  11
BRANCH   1  23
ATOM     23  C   UNL     1       3.906   2.876  18.366  0.00  0.00    +0.000 C 
BRANCH  23  24
ATOM     24  C   UNL     1       3.481   2.583  19.827  0.00  0.00    +0.000 C 
BRANCH  24  25
ATOM     25  C   UNL     1       2.036   2.108  19.997  0.00  0.00    +0.000 C 
BRANCH  25  27
ATOM     26  C   UNL     1       2.129   4.126  21.516  0.00  0.00    +0.000 C 
ATOM     27  C   UNL     1       1.267   2.990  20.992  0.00  0.00    +0.000 C 
ENDBRANCH  25  27
ENDBRANCH  24  25
ENDBRANCH  23  24
ENDBRANCH   1  23
TORSDOF 6
ENDMDL
MODEL 4
REMARK VINA RESULT:      -8.2      1.208      1.786
REMARK  Name = 
REMARK  8 active torsions:
REMARK  status: ('A' for Active; 'I' for Inactive)
REMARK    1  A    between atoms: C_1  and  C_2
REMARK    2  A    between atoms: C_2  and  C_3
REMARK    3  A    between atoms: C_3  and  C_4
REMARK    4  A    between atoms: C_4  and  C_5
REMARK    5  A    between atoms: C_5  and  N_6
REMARK    6  A    between atoms: C_7  and  C_8
REMARK    7  A    between atoms: C_9  and  C_10
REMARK    8  A    between atoms: C_10  and  C_12
REMARK                            x       y       z     vdW  Elec       q    Type
REMARK                         _______ _______ _______ _____ _____    ______ ____
ROOT
ATOM      1  N   UNL     1       4.330   5.281  17.949  0.00  0.00    +0.000 N 
ATOM      2  C   UNL     1       4.057   6.620  17.694  0.00  0.00    +0.000 A 
ATOM      3  C   UNL     1       4.733   7.369  16.583  0.00  0.00    +0.000 C 
ATOM      4  C   UNL     1       3.022   7.054  18.570  0.00  0.00    +0.000 A 
ATOM      5  C   UNL     1       2.773   5.935  19.448  0.00  0.00    +0.000 A 
ATOM      6  C   UNL     1       1.840   5.678  20.457  0.00  0.00    +0.000 A 
ATOM      7  C   UNL     1       1.814   4.435  21.101  0.00  0.00    +0.000 A 
ATOM      8  C   UNL     1       2.682   3.436  20.747  0.00  0.00    +0.000 A 
ATOM      9  C   UNL     1       3.615   3.636  19.719  0.00  0.00    +0.000 A 
ATOM     10  C   UNL     1       3.626   4.879  19.070  0.00  0.00    +0.000 A 
ENDROOT
BRANCH   4  11
ATOM     11  C   UNL     1       2.126   8.211  18.272  0.00  0.00    +0.000 C 
ATOM     12  O   UNL     1       2.056   8.488  17.064  0.00  0.00    +0.000 OA
BRANCH  11  13
ATOM     13  C   UNL     1       1.419   9.260  19.184  0.00  0.00    +0.000 A 
ATOM     14  C   UNL     1       1.319  10.447  18.420  0.00  0.00    +0.000 A 
ATOM     15  C   UNL     1       0.501  11.497  18.784  0.00  0.00    +0.000 A 
ATOM     16  C   UNL     1       0.467  11.752  20.119  0.00  0.00    +0.000 A 
ATOM     17  C   UNL     1       0.470  10.651  20.976  0.00  0.00    +0.000 A 
ATOM     18  C   UNL     1      -0.028  10.967  22.242  0.00  0.00    +0.000 A 
ATOM     19  C   UNL     1      -0.536   9.979  23.052  0.00  0.00    +0.000 A 
ATOM     20  C   UNL     1      -0.530   8.672  22.576  0.00  0.00    +0.000 A 
ATOM     21  C   UNL     1       0.126   8.342  21.356  0.00  0.00    +0.000 A 
ATOM     22  C   UNL     1       0.719   9.321  20.485  0.00  0.00    +0.000 A 
ENDBRANCH  11  13
ENDBRANCH   4  11
BRANCH   1  23
ATOM     23  C   UNL     1       5.197   4.364  17.197  0.00  0.00    +0.000 C 
BRANCH  23  24
ATOM     24  C   UNL     1       6.670   4.793  16.982  0.00  0.00    +0.000 C 
BRANCH  24  25
ATOM     25  C   UNL     1       7.583   4.597  18.193  0.00  0.00    +0.000 C 
BRANCH  25  27
ATOM     26  C   UNL     1       7.840   7.109  18.094  0.00  0.00    +0.000 C 
ATOM     27  C   UNL     1       7.735   5.895  19.000  0.00  0.00    +0.000 C 
ENDBRANCH  25  27
ENDBRANCH  24  25
ENDBRANCH  23  24
ENDBRANCH   1  23
TORSDOF 6
ENDMDL
MODEL 5
REMARK VINA RESULT:      -8.2      1.178      1.279
REMARK  Name = 
REMARK  8 active torsions:
REMARK  status: ('A' for Active; 'I' for Inactive)
REMARK    1  A    between atoms: C_1  and  C_2
REMARK    2  A    between atoms: C_2  and  C_3
REMARK    3  A    between atoms: C_3  and  C_4
REMARK    4  A    between atoms: C_4  and  C_5
REMARK    5  A    between atoms: C_5  and  N_6
REMARK    6  A    between atoms: C_7  and  C_8
REMARK    7  A    between atoms: C_9  and  C_10
REMARK    8  A    between atoms: C_10  and  C_12
REMARK                            x       y       z     vdW  Elec       q    Type
REMARK                         _______ _______ _______ _____ _____    ______ ____
ROOT
ATOM      1  N   UNL     1       4.935   4.998  17.393  0.00  0.00    +0.000 N 
ATOM      2  C   UNL     1       4.767   6.367  17.568  0.00  0.00    +0.000 A 
ATOM      3  C   UNL     1       5.871   7.344  17.288  0.00  0.00    +0.000 C 
ATOM      4  C   UNL     1       3.415   6.621  17.939  0.00  0.00    +0.000 A 
ATOM      5  C   UNL     1       2.813   5.318  18.095  0.00  0.00    +0.000 A 
ATOM      6  C   UNL     1       1.514   4.871  18.358  0.00  0.00    +0.000 A 
ATOM      7  C   UNL     1       1.227   3.501  18.387  0.00  0.00    +0.000 A 
ATOM      8  C   UNL     1       2.198   2.568  18.138  0.00  0.00    +0.000 A 
ATOM      9  C   UNL     1       3.509   2.969  17.839  0.00  0.00    +0.000 A 
ATOM     10  C   UNL     1       3.786   4.344  17.798  0.00  0.00    +0.000 A 
ENDROOT
BRANCH   4  11
ATOM     11  C   UNL     1       2.735   7.932  17.715  0.00  0.00    +0.000 C 
ATOM     12  O   UNL     1       3.211   8.584  16.772  0.00  0.00    +0.000 OA
BRANCH  11  13
ATOM     13  C   UNL     1       1.684   8.730  18.546  0.00  0.00    +0.000 A 
ATOM     14  C   UNL     1       0.820   9.343  17.607  0.00  0.00    +0.000 A 
ATOM     15  C   UNL     1      -0.394   9.891  17.965  0.00  0.00    +0.000 A 
ATOM     16  C   UNL     1      -0.390  10.552  19.153  0.00  0.00    +0.000 A 
ATOM     17  C   UNL     1       0.359   9.991  20.188  0.00  0.00    +0.000 A 
ATOM     18  C   UNL     1      -0.056  10.443  21.444  0.00  0.00    +0.000 A 
ATOM     19  C   UNL     1       0.209   9.698  22.568  0.00  0.00    +0.000 A 
ATOM     20  C   UNL     1       0.901   8.501  22.416  0.00  0.00    +0.000 A 
ATOM     21  C   UNL     1       1.457   8.134  21.158  0.00  0.00    +0.000 A 
ATOM     22  C   UNL     1       1.258   8.892  19.951  0.00  0.00    +0.000 A 
ENDBRANCH  11  13
ENDBRANCH   4  11
BRANCH   1  23
ATOM     23  C   UNL     1       6.100   4.280  16.859  0.00  0.00    +0.000 C 
BRANCH  23  24
ATOM     24  C   UNL     1       5.917   3.522  15.520  0.00  0.00    +0.000 C 
BRANCH  24  25
ATOM     25  C   UNL     1       5.754   4.416  14.289  0.00  0.00    +0.000 C 
BRANCH  25  27
ATOM     26  C   UNL     1       5.214   3.322  12.075  0.00  0.00    +0.000 C 
ATOM     27  C   UNL     1       6.319   3.745  13.027  0.00  0.00    +0.000 C 
ENDBRANCH  25  27
ENDBRANCH  24  25
ENDBRANCH  23  24
ENDBRANCH   1  23
TORSDOF 6
ENDMDL
MODEL 6
REMARK VINA RESULT:      -8.1      0.827      1.982
REMARK  Name = 
REMARK  8 active torsions:
REMARK  status: ('A' for Active; 'I' for Inactive)
REMARK    1  A    between atoms: C_1  and  C_2
REMARK    2  A    between atoms: C_2  and  C_3
REMARK    3  A    between atoms: C_3  and  C_4
REMARK    4  A    between atoms: C_4  and  C_5
REMARK    5  A    between atoms: C_5  and  N_6
REMARK    6  A    between atoms: C_7  and  C_8
REMARK    7  A    between atoms: C_9  and  C_10
REMARK    8  A    between atoms: C_10  and  C_12
REMARK                            x       y       z     vdW  Elec       q    Type
REMARK                         _______ _______ _______ _____ _____    ______ ____
ROOT
ATOM      1  N   UNL     1       4.196   4.936  18.431  0.00  0.00    +0.000 N 
ATOM      2  C   UNL     1       3.942   6.301  18.376  0.00  0.00    +0.000 A 
ATOM      3  C   UNL     1       4.787   7.234  17.558  0.00  0.00    +0.000 C 
ATOM      4  C   UNL     1       2.757   6.579  19.115  0.00  0.00    +0.000 A 
ATOM      5  C   UNL     1       2.382   5.322  19.719  0.00  0.00    +0.000 A 
ATOM      6  C   UNL     1       1.290   4.895  20.480  0.00  0.00    +0.000 A 
ATOM      7  C   UNL     1       1.179   3.555  20.874  0.00  0.00    +0.000 A 
ATOM      8  C   UNL     1       2.120   2.629  20.508  0.00  0.00    +0.000 A 
ATOM      9  C   UNL     1       3.217   3.004  19.719  0.00  0.00    +0.000 A 
ATOM     10  C   UNL     1       3.313   4.345  19.316  0.00  0.00    +0.000 A 
ENDROOT
BRANCH   4  11
ATOM     11  C   UNL     1       1.901   7.779  18.874  0.00  0.00    +0.000 C 
ATOM     12  O   UNL     1       1.872   8.138  17.686  0.00  0.00    +0.000 OA
BRANCH  11  13
ATOM     13  C   UNL     1       1.197   8.784  19.837  0.00  0.00    +0.000 A 
ATOM     14  C   UNL     1       1.460   8.326  21.150  0.00  0.00    +0.000 A 
ATOM     15  C   UNL     1       1.246   9.110  22.265  0.00  0.00    +0.000 A 
ATOM     16  C   UNL     1       0.124   9.875  22.213  0.00  0.00    +0.000 A 
ATOM     17  C   UNL     1      -0.190  10.458  20.985  0.00  0.00    +0.000 A 
ATOM     18  C   UNL     1      -1.039  11.559  21.126  0.00  0.00    +0.000 A 
ATOM     19  C   UNL     1      -1.089  12.522  20.146  0.00  0.00    +0.000 A 
ATOM     20  C   UNL     1      -0.284  12.361  19.023  0.00  0.00    +0.000 A 
ATOM     21  C   UNL     1       0.451  11.158  18.819  0.00  0.00    +0.000 A 
ATOM     22  C   UNL     1       0.510  10.091  19.782  0.00  0.00    +0.000 A 
ENDBRANCH  11  13
ENDBRANCH   4  11
BRANCH   1  23
ATOM     23  C   UNL     1       5.205   4.163  17.695  0.00  0.00    +0.000 C 
BRANCH  23  24
ATOM     24  C   UNL     1       4.939   3.892  16.193  0.00  0.00    +0.000 C 
BRANCH  24  25
ATOM     25  C   UNL     1       6.193   3.678  15.343  0.00  0.00    +0.000 C 
BRANCH  25  27
ATOM     26  C   UNL     1       6.109   3.587  12.818  0.00  0.00    +0.000 C 
ATOM     27  C   UNL     1       6.134   4.490  14.040  0.00  0.00    +0.000 C 
ENDBRANCH  25  27
ENDBRANCH  24  25
ENDBRANCH  23  24
ENDBRANCH   1  23
TORSDOF 6
ENDMDL
MODEL 7
REMARK VINA RESULT:      -8.1      2.664      7.479
REMARK  Name = 
REMARK  8 active torsions:
REMARK  status: ('A' for Active; 'I' for Inactive)
REMARK    1  A    between atoms: C_1  and  C_2
REMARK    2  A    between atoms: C_2  and  C_3
REMARK    3  A    between atoms: C_3  and  C_4
REMARK    4  A    between atoms: C_4  and  C_5
REMARK    5  A    between atoms: C_5  and  N_6
REMARK    6  A    between atoms: C_7  and  C_8
REMARK    7  A    between atoms: C_9  and  C_10
REMARK    8  A    between atoms: C_10  and  C_12
REMARK                            x       y       z     vdW  Elec       q    Type
REMARK                         _______ _______ _______ _____ _____    ______ ____
ROOT
ATOM      1  N   UNL     1      -0.128  10.972  19.479  0.00  0.00    +0.000 N 
ATOM      2  C   UNL     1       0.493   9.764  19.184  0.00  0.00    +0.000 A 
ATOM      3  C   UNL     1       1.075   9.482  17.829  0.00  0.00    +0.000 C 
ATOM      4  C   UNL     1       0.541   8.970  20.364  0.00  0.00    +0.000 A 
ATOM      5  C   UNL     1      -0.196   9.718  21.356  0.00  0.00    +0.000 A 
ATOM      6  C   UNL     1      -0.446   9.543  22.720  0.00  0.00    +0.000 A 
ATOM      7  C   UNL     1      -1.163  10.506  23.440  0.00  0.00    +0.000 A 
ATOM      8  C   UNL     1      -1.617  11.649  22.836  0.00  0.00    +0.000 A 
ATOM      9  C   UNL     1      -1.364  11.883  21.477  0.00  0.00    +0.000 A 
ATOM     10  C   UNL     1      -0.633  10.920  20.766  0.00  0.00    +0.000 A 
ENDROOT
BRANCH   4  11
ATOM     11  C   UNL     1       1.542   7.884  20.584  0.00  0.00    +0.000 C 
ATOM     12  O   UNL     1       2.297   8.091  21.547  0.00  0.00    +0.000 OA
BRANCH  11  13
ATOM     13  C   UNL     1       1.957   6.644  19.733  0.00  0.00    +0.000 A 
ATOM     14  C   UNL     1       3.015   7.073  18.896  0.00  0.00    +0.000 A 
ATOM     15  C   UNL     1       3.826   6.189  18.215  0.00  0.00    +0.000 A 
ATOM     16  C   UNL     1       3.180   5.110  17.698  0.00  0.00    +0.000 A 
ATOM     17  C   UNL     1       2.173   4.541  18.478  0.00  0.00    +0.000 A 
ATOM     18  C   UNL     1       1.906   3.219  18.111  0.00  0.00    +0.000 A 
ATOM     19  C   UNL     1       1.318   2.359  19.008  0.00  0.00    +0.000 A 
ATOM     20  C   UNL     1       0.997   2.844  20.271  0.00  0.00    +0.000 A 
ATOM     21  C   UNL     1       1.125   4.230  20.575  0.00  0.00    +0.000 A 
ATOM     22  C   UNL     1       1.688   5.192  19.666  0.00  0.00    +0.000 A 
ENDBRANCH  11  13
ENDBRANCH   4  11
BRANCH   1  23
ATOM     23  C   UNL     1      -0.261  12.164  18.631  0.00  0.00    +0.000 C 
BRANCH  23  24
ATOM     24  C   UNL     1      -1.380  12.154  17.559  0.00  0.00    +0.000 C 
BRANCH  24  25
ATOM     25  C   UNL     1      -2.666  11.438  17.975  0.00  0.00    +0.000 C 
BRANCH  25  27
ATOM     26  C   UNL     1      -2.685  10.085  15.841  0.00  0.00    +0.000 C 
ATOM     27  C   UNL     1      -2.755  10.034  17.357  0.00  0.00    +0.000 C 
ENDBRANCH  25  27
ENDBRANCH  24  25
ENDBRANCH  23  24
ENDBRANCH   1  23
TORSDOF 6
ENDMDL
MODEL 8
REMARK VINA RESULT:      -8.0      1.604      3.872
REMARK  Name = 
REMARK  8 active torsions:
REMARK  status: ('A' for Active; 'I' for Inactive)
REMARK    1  A    between atoms: C_1  and  C_2
REMARK    2  A    between atoms: C_2  and  C_3
REMARK    3  A    between atoms: C_3  and  C_4
REMARK    4  A    between atoms: C_4  and  C_5
REMARK    5  A    between atoms: C_5  and  N_6
REMARK    6  A    between atoms: C_7  and  C_8
REMARK    7  A    between atoms: C_9  and  C_10
REMARK    8  A    between atoms: C_10  and  C_12
REMARK                            x       y       z     vdW  Elec       q    Type
REMARK                         _______ _______ _______ _____ _____    ______ ____
ROOT
ATOM      1  N   UNL     1       2.860   3.777  17.744  0.00  0.00    +0.000 N 
ATOM      2  C   UNL     1       2.018   4.525  18.558  0.00  0.00    +0.000 A 
ATOM      3  C   UNL     1       0.862   3.903  19.288  0.00  0.00    +0.000 C 
ATOM      4  C   UNL     1       2.505   5.861  18.621  0.00  0.00    +0.000 A 
ATOM      5  C   UNL     1       3.617   5.904  17.701  0.00  0.00    +0.000 A 
ATOM      6  C   UNL     1       4.566   6.874  17.364  0.00  0.00    +0.000 A 
ATOM      7  C   UNL     1       5.589   6.581  16.454  0.00  0.00    +0.000 A 
ATOM      8  C   UNL     1       5.702   5.338  15.891  0.00  0.00    +0.000 A 
ATOM      9  C   UNL     1       4.793   4.323  16.222  0.00  0.00    +0.000 A 
ATOM     10  C   UNL     1       3.779   4.619  17.144  0.00  0.00    +0.000 A 
ENDROOT
BRANCH   4  11
ATOM     11  C   UNL     1       2.204   6.793  19.748  0.00  0.00    +0.000 C 
ATOM     12  O   UNL     1       2.322   6.272  20.869  0.00  0.00    +0.000 OA
BRANCH  11  13
ATOM     13  C   UNL     1       1.583   8.223  19.798  0.00  0.00    +0.000 A 
ATOM     14  C   UNL     1       1.663   8.737  18.482  0.00  0.00    +0.000 A 
ATOM     15  C   UNL     1       0.959   9.852  18.078  0.00  0.00    +0.000 A 
ATOM     16  C   UNL     1       0.891  10.846  19.003  0.00  0.00    +0.000 A 
ATOM     17  C   UNL     1       0.720  10.462  20.334  0.00  0.00    +0.000 A 
ATOM     18  C   UNL     1       0.202  11.496  21.118  0.00  0.00    +0.000 A 
ATOM     19  C   UNL     1      -0.460  11.210  22.289  0.00  0.00    +0.000 A 
ATOM     20  C   UNL     1      -0.586   9.876  22.664  0.00  0.00    +0.000 A 
ATOM     21  C   UNL     1       0.085   8.849  21.942  0.00  0.00    +0.000 A 
ATOM     22  C   UNL     1       0.833   9.085  20.736  0.00  0.00    +0.000 A 
ENDBRANCH  11  13
ENDBRANCH   4  11
BRANCH   1  23
ATOM     23  C   UNL     1       2.856   2.326  17.510  0.00  0.00    +0.000 C 
BRANCH  23  24
ATOM     24  C   UNL     1       3.520   1.430  18.585  0.00  0.00    +0.000 C 
BRANCH  24  25
ATOM     25  C   UNL     1       4.490   2.155  19.520  0.00  0.00    +0.000 C 
BRANCH  25  27
ATOM     26  C   UNL     1       2.897   2.527  21.447  0.00  0.00    +0.000 C 
ATOM     27  C   UNL     1       4.181   1.854  20.995  0.00  0.00    +0.000 C 
ENDBRANCH  25  27
ENDBRANCH  24  25
ENDBRANCH  23  24
ENDBRANCH   1  23
TORSDOF 6
ENDMDL
MODEL 9
REMARK VINA RESULT:      -7.8      1.310      2.497
REMARK  Name = 
REMARK  8 active torsions:
REMARK  status: ('A' for Active; 'I' for Inactive)
REMARK    1  A    between atoms: C_1  and  C_2
REMARK    2  A    between atoms: C_2  and  C_3
REMARK    3  A    between atoms: C_3  and  C_4
REMARK    4  A    between atoms: C_4  and  C_5
REMARK    5  A    between atoms: C_5  and  N_6
REMARK    6  A    between atoms: C_7  and  C_8
REMARK    7  A    between atoms: C_9  and  C_10
REMARK    8  A    between atoms: C_10  and  C_12
REMARK                            x       y       z     vdW  Elec       q    Type
REMARK                         _______ _______ _______ _____ _____    ______ ____
ROOT
ATOM      1  N   UNL     1       3.818   5.179  17.935  0.00  0.00    +0.000 N 
ATOM      2  C   UNL     1       3.595   6.550  17.991  0.00  0.00    +0.000 A 
ATOM      3  C   UNL     1       4.334   7.511  17.106  0.00  0.00    +0.000 C 
ATOM      4  C   UNL     1       2.542   6.807  18.914  0.00  0.00    +0.000 A 
ATOM      5  C   UNL     1       2.227   5.525  19.499  0.00  0.00    +0.000 A 
ATOM      6  C   UNL     1       1.250   5.076  20.393  0.00  0.00    +0.000 A 
ATOM      7  C   UNL     1       1.163   3.718  20.727  0.00  0.00    +0.000 A 
ATOM      8  C   UNL     1       2.014   2.797  20.175  0.00  0.00    +0.000 A 
ATOM      9  C   UNL     1       2.990   3.196  19.250  0.00  0.00    +0.000 A 
ATOM     10  C   UNL     1       3.061   4.555  18.910  0.00  0.00    +0.000 A 
ENDROOT
BRANCH   4  11
ATOM     11  C   UNL     1       1.692   8.034  18.869  0.00  0.00    +0.000 C 
ATOM     12  O   UNL     1       1.604   8.537  17.737  0.00  0.00    +0.000 OA
BRANCH  11  13
ATOM     13  C   UNL     1       1.056   8.920  19.985  0.00  0.00    +0.000 A 
ATOM     14  C   UNL     1       1.498   8.382  21.218  0.00  0.00    +0.000 A 
ATOM     15  C   UNL     1       1.378   9.067  22.409  0.00  0.00    +0.000 A 
ATOM     16  C   UNL     1       0.219   9.763  22.550  0.00  0.00    +0.000 A 
ATOM     17  C   UNL     1      -0.270  10.414  21.417  0.00  0.00    +0.000 A 
ATOM     18  C   UNL     1      -1.153  11.447  21.743  0.00  0.00    +0.000 A 
ATOM     19  C   UNL     1      -1.372  12.475  20.857  0.00  0.00    +0.000 A 
ATOM     20  C   UNL     1      -0.699  12.448  19.639  0.00  0.00    +0.000 A 
ATOM     21  C   UNL     1       0.069  11.312  19.255  0.00  0.00    +0.000 A 
ATOM     22  C   UNL     1       0.299  10.182  20.116  0.00  0.00    +0.000 A 
ENDBRANCH  11  13
ENDBRANCH   4  11
BRANCH   1  23
ATOM     23  C   UNL     1       4.685   4.430  17.015  0.00  0.00    +0.000 C 
BRANCH  23  24
ATOM     24  C   UNL     1       6.094   4.039  17.526  0.00  0.00    +0.000 C 
BRANCH  24  25
ATOM     25  C   UNL     1       7.237   4.911  17.002  0.00  0.00    +0.000 C 
BRANCH  25  27
ATOM     26  C   UNL     1       7.811   5.765  19.310  0.00  0.00    +0.000 C 
ATOM     27  C   UNL     1       7.450   6.149  17.886  0.00  0.00    +0.000 C 
ENDBRANCH  25  27
ENDBRANCH  24  25
ENDBRANCH  23  24
ENDBRANCH   1  23
TORSDOF 6
ENDMDL
