MODEL 1
REMARK VINA RESULT:      -7.1      0.000      0.000
REMARK  Name = 
REMARK  5 active torsions:
REMARK  status: ('A' for Active; 'I' for Inactive)
REMARK    1  A    between atoms: N_1  and  S_2
REMARK    2  A    between atoms: S_2  and  C_5
REMARK    3  A    between atoms: C_7  and  S_8
REMARK    4  A    between atoms: S_8  and  C_11
REMARK    5  A    between atoms: C_15  and  O_16
REMARK                            x       y       z     vdW  Elec       q    Type
REMARK                         _______ _______ _______ _____ _____    ______ ____
ROOT
ATOM      1  C   UNL     1       5.628   5.374  16.834  0.00  0.00    +0.000 A 
ATOM      2  C   UNL     1       4.758   4.302  16.905  0.00  0.00    +0.000 A 
ATOM      3  C   UNL     1       3.461   4.690  17.361  0.00  0.00    +0.000 A 
ATOM      4  C   UNL     1       3.386   6.043  17.620  0.00  0.00    +0.000 A 
ATOM      5  S   UNL     1       4.871   6.834  17.313  0.00  0.00    +0.000 S 
ENDROOT
BRANCH   1   6
ATOM      6  S   UNL     1       7.326   5.504  16.339  0.00  0.00    +0.000 S 
ATOM      7  O   UNL     1       8.007   4.402  16.972  0.00  0.00    +0.000 OA
ATOM      8  O   UNL     1       7.705   6.880  16.558  0.00  0.00    +0.000 OA
BRANCH   6   9
ATOM      9  N   UNL     1       7.396   5.250  14.680  0.00  0.00    +0.000 NA
ATOM     10  H   UNL     1       7.735   6.099  14.222  0.00  0.00    +0.000 HD
ATOM     11  H   UNL     1       6.481   4.970  14.326  0.00  0.00    +0.000 HD
ENDBRANCH   6   9
ENDBRANCH   1   6
BRANCH   3  12
ATOM     12  S   UNL     1       2.131   3.594  17.555  0.00  0.00    +0.000 S 
ATOM     13  O   UNL     1       0.952   4.405  17.325  0.00  0.00    +0.000 OA
ATOM     14  O   UNL     1       2.465   2.458  16.721  0.00  0.00    +0.000 OA
BRANCH  12  15
ATOM     15  C   UNL     1       2.176   3.097  19.251  0.00  0.00    +0.000 A 
ATOM     16  C   UNL     1       1.060   3.313  20.067  0.00  0.00    +0.000 A 
ATOM     17  C   UNL     1       1.120   2.973  21.419  0.00  0.00    +0.000 A 
ATOM     18  C   UNL     1       2.289   2.427  21.953  0.00  0.00    +0.000 A 
ATOM     19  C   UNL     1       3.393   2.226  21.128  0.00  0.00    +0.000 A 
ATOM     20  C   UNL     1       3.353   2.563  19.780  0.00  0.00    +0.000 A 
BRANCH  19  21
ATOM     21  O   UNL     1       4.552   1.697  21.612  0.00  0.00    +0.000 OA
ATOM     22  H   UNL     1       4.488   0.728  21.597  0.00  0.00    +0.000 HD
ENDBRANCH  19  21
ENDBRANCH  12  15
ENDBRANCH   3  12
TORSDOF 5
ENDMDL
MODEL 2
REMARK VINA RESULT:      -6.8      3.374      6.107
REMARK  Name = 
REMARK  5 active torsions:
REMARK  status: ('A' for Active; 'I' for Inactive)
REMARK    1  A    between atoms: N_1  and  S_2
REMARK    2  A    between atoms: S_2  and  C_5
REMARK    3  A    between atoms: C_7  and  S_8
REMARK    4  A    between atoms: S_8  and  C_11
REMARK    5  A    between atoms: C_15  and  O_16
REMARK                            x       y       z     vdW  Elec       q    Type
REMARK                         _______ _______ _______ _____ _____    ______ ____
ROOT
ATOM      1  C   UNL     1       2.997   3.551  19.453  0.00  0.00    +0.000 A 
ATOM      2  C   UNL     1       3.762   4.427  18.706  0.00  0.00    +0.000 A 
ATOM      3  C   UNL     1       4.408   3.778  17.610  0.00  0.00    +0.000 A 
ATOM      4  C   UNL     1       4.112   2.432  17.556  0.00  0.00    +0.000 A 
ATOM      5  S   UNL     1       3.063   1.960  18.822  0.00  0.00    +0.000 S 
ENDROOT
BRANCH   1   6
ATOM      6  S   UNL     1       1.983   3.776  20.890  0.00  0.00    +0.000 S 
ATOM      7  O   UNL     1       1.892   5.202  21.090  0.00  0.00    +0.000 OA
ATOM      8  O   UNL     1       2.506   2.883  21.897  0.00  0.00    +0.000 OA
BRANCH   6   9
ATOM      9  N   UNL     1       0.441   3.223  20.520  0.00  0.00    +0.000 NA
ATOM     10  H   UNL     1       0.457   2.204  20.439  0.00  0.00    +0.000 HD
ATOM     11  H   UNL     1       0.102   3.663  19.664  0.00  0.00    +0.000 HD
ENDBRANCH   6   9
ENDBRANCH   1   6
BRANCH   3  12
ATOM     12  S   UNL     1       5.433   4.588  16.468  0.00  0.00    +0.000 S 
ATOM     13  O   UNL     1       6.201   3.527  15.850  0.00  0.00    +0.000 OA
ATOM     14  O   UNL     1       4.540   5.442  15.712  0.00  0.00    +0.000 OA
BRANCH  12  15
ATOM     15  C   UNL     1       6.510   5.598  17.441  0.00  0.00    +0.000 A 
ATOM     16  C   UNL     1       6.921   6.843  16.952  0.00  0.00    +0.000 A 
ATOM     17  C   UNL     1       7.817   7.612  17.696  0.00  0.00    +0.000 A 
ATOM     18  C   UNL     1       8.302   7.138  18.917  0.00  0.00    +0.000 A 
ATOM     19  C   UNL     1       7.888   5.893  19.384  0.00  0.00    +0.000 A 
ATOM     20  C   UNL     1       7.001   5.111  18.654  0.00  0.00    +0.000 A 
BRANCH  19  21
ATOM     21  O   UNL     1       8.341   5.396  20.570  0.00  0.00    +0.000 OA
ATOM     22  H   UNL     1       7.717   5.638  21.273  0.00  0.00    +0.000 HD
ENDBRANCH  19  21
ENDBRANCH  12  15
ENDBRANCH   3  12
TORSDOF 5
ENDMDL
MODEL 3
REMARK VINA RESULT:      -6.8      3.141      4.566
REMARK  Name = 
REMARK  5 active torsions:
REMARK  status: ('A' for Active; 'I' for Inactive)
REMARK    1  A    between atoms: N_1  and  S_2
REMARK    2  A    between atoms: S_2  and  C_5
REMARK    3  A    between atoms: C_7  and  S_8
REMARK    4  A    between atoms: S_8  and  C_11
REMARK    5  A    between atoms: C_15  and  O_16
REMARK                            x       y       z     vdW  Elec       q    Type
REMARK                         _______ _______ _______ _____ _____    ______ ____
ROOT
ATOM      1  C   UNL     1       5.896   5.030  18.329  0.00  0.00    +0.000 A 
ATOM      2  C   UNL     1       4.929   5.361  19.261  0.00  0.00    +0.000 A 
ATOM      3  C   UNL     1       3.639   4.874  18.892  0.00  0.00    +0.000 A 
ATOM      4  C   UNL     1       3.664   4.188  17.696  0.00  0.00    +0.000 A 
ATOM      5  S   UNL     1       5.238   4.135  17.026  0.00  0.00    +0.000 S 
ENDROOT
BRANCH   1   6
ATOM      6  S   UNL     1       7.640   5.346  18.253  0.00  0.00    +0.000 S 
ATOM      7  O   UNL     1       7.775   6.703  17.784  0.00  0.00    +0.000 OA
ATOM      8  O   UNL     1       8.223   4.222  17.558  0.00  0.00    +0.000 OA
BRANCH   6   9
ATOM      9  N   UNL     1       8.237   5.296  19.822  0.00  0.00    +0.000 NA
ATOM     10  H   UNL     1       8.415   6.249  20.147  0.00  0.00    +0.000 HD
ATOM     11  H   UNL     1       9.079   4.721  19.863  0.00  0.00    +0.000 HD
ENDBRANCH   6   9
ENDBRANCH   1   6
BRANCH   3  12
ATOM     12  S   UNL     1       2.205   5.104  19.842  0.00  0.00    +0.000 S 
ATOM     13  O   UNL     1       1.171   4.388  19.124  0.00  0.00    +0.000 OA
ATOM     14  O   UNL     1       2.598   4.753  21.192  0.00  0.00    +0.000 OA
BRANCH  12  15
ATOM     15  C   UNL     1       1.871   6.839  19.772  0.00  0.00    +0.000 A 
ATOM     16  C   UNL     1       1.321   7.484  20.885  0.00  0.00    +0.000 A 
ATOM     17  C   UNL     1       1.004   8.841  20.808  0.00  0.00    +0.000 A 
ATOM     18  C   UNL     1       1.230   9.546  19.624  0.00  0.00    +0.000 A 
ATOM     19  C   UNL     1       1.771   8.886  18.523  0.00  0.00    +0.000 A 
ATOM     20  C   UNL     1       2.088   7.534  18.581  0.00  0.00    +0.000 A 
BRANCH  19  21
ATOM     21  O   UNL     1       2.005   9.539  17.350  0.00  0.00    +0.000 OA
ATOM     22  H   UNL     1       2.964   9.609  17.212  0.00  0.00    +0.000 HD
ENDBRANCH  19  21
ENDBRANCH  12  15
ENDBRANCH   3  12
TORSDOF 5
ENDMDL
MODEL 4
REMARK VINA RESULT:      -6.8      3.192      6.075
REMARK  Name = 
REMARK  5 active torsions:
REMARK  status: ('A' for Active; 'I' for Inactive)
REMARK    1  A    between atoms: N_1  and  S_2
REMARK    2  A    between atoms: S_2  and  C_5
REMARK    3  A    between atoms: C_7  and  S_8
REMARK    4  A    between atoms: S_8  and  C_11
REMARK    5  A    between atoms: C_15  and  O_16
REMARK                            x       y       z     vdW  Elec       q    Type
REMARK                         _______ _______ _______ _____ _____    ______ ____
ROOT
ATOM      1  C   UNL     1       2.374   3.692  18.400  0.00  0.00    +0.000 A 
ATOM      2  C   UNL     1       3.529   3.579  17.648  0.00  0.00    +0.000 A 
ATOM      3  C   UNL     1       4.026   4.852  17.232  0.00  0.00    +0.000 A 
ATOM      4  C   UNL     1       3.237   5.890  17.681  0.00  0.00    +0.000 A 
ATOM      5  S   UNL     1       1.906   5.328  18.599  0.00  0.00    +0.000 S 
ENDROOT
BRANCH   1   6
ATOM      6  S   UNL     1       1.334   2.486  19.181  0.00  0.00    +0.000 S 
ATOM      7  O   UNL     1       2.203   1.397  19.552  0.00  0.00    +0.000 OA
ATOM      8  O   UNL     1       0.196   2.310  18.309  0.00  0.00    +0.000 OA
BRANCH   6   9
ATOM      9  N   UNL     1       0.744   3.162  20.601  0.00  0.00    +0.000 NA
ATOM     10  H   UNL     1       0.361   2.423  21.194  0.00  0.00    +0.000 HD
ATOM     11  H   UNL     1       0.045   3.876  20.390  0.00  0.00    +0.000 HD
ENDBRANCH   6   9
ENDBRANCH   1   6
BRANCH   3  12
ATOM     12  S   UNL     1       5.462   5.071  16.284  0.00  0.00    +0.000 S 
ATOM     13  O   UNL     1       5.964   3.730  16.065  0.00  0.00    +0.000 OA
ATOM     14  O   UNL     1       5.055   5.935  15.194  0.00  0.00    +0.000 OA
BRANCH  12  15
ATOM     15  C   UNL     1       6.583   5.952  17.330  0.00  0.00    +0.000 A 
ATOM     16  C   UNL     1       6.957   7.259  17.000  0.00  0.00    +0.000 A 
ATOM     17  C   UNL     1       7.886   7.930  17.795  0.00  0.00    +0.000 A 
ATOM     18  C   UNL     1       8.442   7.297  18.909  0.00  0.00    +0.000 A 
ATOM     19  C   UNL     1       8.064   5.993  19.218  0.00  0.00    +0.000 A 
ATOM     20  C   UNL     1       7.144   5.307  18.435  0.00  0.00    +0.000 A 
BRANCH  19  21
ATOM     21  O   UNL     1       8.586   5.341  20.296  0.00  0.00    +0.000 OA
ATOM     22  H   UNL     1       8.300   5.793  21.107  0.00  0.00    +0.000 HD
ENDBRANCH  19  21
ENDBRANCH  12  15
ENDBRANCH   3  12
TORSDOF 5
ENDMDL
MODEL 5
REMARK VINA RESULT:      -6.8      3.159      6.062
REMARK  Name = 
REMARK  5 active torsions:
REMARK  status: ('A' for Active; 'I' for Inactive)
REMARK    1  A    between atoms: N_1  and  S_2
REMARK    2  A    between atoms: S_2  and  C_5
REMARK    3  A    between atoms: C_7  and  S_8
REMARK    4  A    between atoms: S_8  and  C_11
REMARK    5  A    between atoms: C_15  and  O_16
REMARK                            x       y       z     vdW  Elec       q    Type
REMARK                         _______ _______ _______ _____ _____    ______ ____
ROOT
ATOM      1  C   UNL     1       2.952   3.654  19.367  0.00  0.00    +0.000 A 
ATOM      2  C   UNL     1       3.765   4.475  18.608  0.00  0.00    +0.000 A 
ATOM      3  C   UNL     1       4.381   3.773  17.528  0.00  0.00    +0.000 A 
ATOM      4  C   UNL     1       4.016   2.444  17.497  0.00  0.00    +0.000 A 
ATOM      5  S   UNL     1       2.938   2.050  18.766  0.00  0.00    +0.000 S 
ENDROOT
BRANCH   1   6
ATOM      6  S   UNL     1       1.945   3.958  20.795  0.00  0.00    +0.000 S 
ATOM      7  O   UNL     1       2.442   3.076  21.823  0.00  0.00    +0.000 OA
ATOM      8  O   UNL     1       0.576   3.923  20.337  0.00  0.00    +0.000 OA
BRANCH   6   9
ATOM      9  N   UNL     1       2.237   5.532  21.301  0.00  0.00    +0.000 NA
ATOM     10  H   UNL     1       2.139   5.585  22.317  0.00  0.00    +0.000 HD
ATOM     11  H   UNL     1       1.606   6.180  20.828  0.00  0.00    +0.000 HD
ENDBRANCH   6   9
ENDBRANCH   1   6
BRANCH   3  12
ATOM     12  S   UNL     1       5.452   4.507  16.377  0.00  0.00    +0.000 S 
ATOM     13  O   UNL     1       6.223   3.404  15.840  0.00  0.00    +0.000 OA
ATOM     14  O   UNL     1       4.594   5.331  15.549  0.00  0.00    +0.000 OA
BRANCH  12  15
ATOM     15  C   UNL     1       6.514   5.554  17.327  0.00  0.00    +0.000 A 
ATOM     16  C   UNL     1       6.780   6.854  16.886  0.00  0.00    +0.000 A 
ATOM     17  C   UNL     1       7.664   7.658  17.607  0.00  0.00    +0.000 A 
ATOM     18  C   UNL     1       8.281   7.163  18.758  0.00  0.00    +0.000 A 
ATOM     19  C   UNL     1       8.010   5.864  19.178  0.00  0.00    +0.000 A 
ATOM     20  C   UNL     1       7.136   5.048  18.470  0.00  0.00    +0.000 A 
BRANCH  19  21
ATOM     21  O   UNL     1       8.593   5.345  20.296  0.00  0.00    +0.000 OA
ATOM     22  H   UNL     1       9.527   5.155  20.106  0.00  0.00    +0.000 HD
ENDBRANCH  19  21
ENDBRANCH  12  15
ENDBRANCH   3  12
TORSDOF 5
ENDMDL
MODEL 6
REMARK VINA RESULT:      -6.7      2.944      4.372
REMARK  Name = 
REMARK  5 active torsions:
REMARK  status: ('A' for Active; 'I' for Inactive)
REMARK    1  A    between atoms: N_1  and  S_2
REMARK    2  A    between atoms: S_2  and  C_5
REMARK    3  A    between atoms: C_7  and  S_8
REMARK    4  A    between atoms: S_8  and  C_11
REMARK    5  A    between atoms: C_15  and  O_16
REMARK                            x       y       z     vdW  Elec       q    Type
REMARK                         _______ _______ _______ _____ _____    ______ ____
ROOT
ATOM      1  C   UNL     1       5.753   4.949  17.928  0.00  0.00    +0.000 A 
ATOM      2  C   UNL     1       4.880   5.284  18.946  0.00  0.00    +0.000 A 
ATOM      3  C   UNL     1       3.555   4.816  18.694  0.00  0.00    +0.000 A 
ATOM      4  C   UNL     1       3.462   4.141  17.495  0.00  0.00    +0.000 A 
ATOM      5  S   UNL     1       4.967   4.073  16.684  0.00  0.00    +0.000 S 
ENDROOT
BRANCH   1   6
ATOM      6  S   UNL     1       7.487   5.243  17.695  0.00  0.00    +0.000 S 
ATOM      7  O   UNL     1       7.910   4.319  16.671  0.00  0.00    +0.000 OA
ATOM      8  O   UNL     1       8.073   5.262  19.015  0.00  0.00    +0.000 OA
BRANCH   6   9
ATOM      9  N   UNL     1       7.664   6.793  17.074  0.00  0.00    +0.000 NA
ATOM     10  H   UNL     1       6.985   7.415  17.519  0.00  0.00    +0.000 HD
ATOM     11  H   UNL     1       7.557   6.784  16.059  0.00  0.00    +0.000 HD
ENDBRANCH   6   9
ENDBRANCH   1   6
BRANCH   3  12
ATOM     12  S   UNL     1       2.218   5.056  19.773  0.00  0.00    +0.000 S 
ATOM     13  O   UNL     1       1.116   4.347  19.154  0.00  0.00    +0.000 OA
ATOM     14  O   UNL     1       2.732   4.702  21.080  0.00  0.00    +0.000 OA
BRANCH  12  15
ATOM     15  C   UNL     1       1.890   6.793  19.733  0.00  0.00    +0.000 A 
ATOM     16  C   UNL     1       1.384   7.429  20.873  0.00  0.00    +0.000 A 
ATOM     17  C   UNL     1       1.073   8.788  20.821  0.00  0.00    +0.000 A 
ATOM     18  C   UNL     1       1.260   9.505  19.637  0.00  0.00    +0.000 A 
ATOM     19  C   UNL     1       1.757   8.854  18.511  0.00  0.00    +0.000 A 
ATOM     20  C   UNL     1       2.068   7.500  18.543  0.00  0.00    +0.000 A 
BRANCH  19  21
ATOM     21  O   UNL     1       1.952   9.520  17.337  0.00  0.00    +0.000 OA
ATOM     22  H   UNL     1       1.871  10.474  17.497  0.00  0.00    +0.000 HD
ENDBRANCH  19  21
ENDBRANCH  12  15
ENDBRANCH   3  12
TORSDOF 5
ENDMDL
MODEL 7
REMARK VINA RESULT:      -6.7      3.107      6.655
REMARK  Name = 
REMARK  5 active torsions:
REMARK  status: ('A' for Active; 'I' for Inactive)
REMARK    1  A    between atoms: N_1  and  S_2
REMARK    2  A    between atoms: S_2  and  C_5
REMARK    3  A    between atoms: C_7  and  S_8
REMARK    4  A    between atoms: S_8  and  C_11
REMARK    5  A    between atoms: C_15  and  O_16
REMARK                            x       y       z     vdW  Elec       q    Type
REMARK                         _______ _______ _______ _____ _____    ______ ____
ROOT
ATOM      1  C   UNL     1       3.246   3.973  19.453  0.00  0.00    +0.000 A 
ATOM      2  C   UNL     1       4.560   3.884  19.031  0.00  0.00    +0.000 A 
ATOM      3  C   UNL     1       5.012   5.094  18.421  0.00  0.00    +0.000 A 
ATOM      4  C   UNL     1       4.031   6.063  18.400  0.00  0.00    +0.000 A 
ATOM      5  S   UNL     1       2.576   5.512  19.114  0.00  0.00    +0.000 S 
ENDROOT
BRANCH   1   6
ATOM      6  S   UNL     1       2.173   2.820  20.269  0.00  0.00    +0.000 S 
ATOM      7  O   UNL     1       2.745   2.605  21.575  0.00  0.00    +0.000 OA
ATOM      8  O   UNL     1       1.950   1.744  19.332  0.00  0.00    +0.000 OA
BRANCH   6   9
ATOM      9  N   UNL     1       0.688   3.573  20.490  0.00  0.00    +0.000 NA
ATOM     10  H   UNL     1       0.552   4.273  19.758  0.00  0.00    +0.000 HD
ATOM     11  H   UNL     1       0.635   3.986  21.422  0.00  0.00    +0.000 HD
ENDBRANCH   6   9
ENDBRANCH   1   6
BRANCH   3  12
ATOM     12  S   UNL     1       6.611   5.326  17.790  0.00  0.00    +0.000 S 
ATOM     13  O   UNL     1       6.847   6.751  17.907  0.00  0.00    +0.000 OA
ATOM     14  O   UNL     1       7.424   4.346  18.480  0.00  0.00    +0.000 OA
BRANCH  12  15
ATOM     15  C   UNL     1       6.508   4.889  16.080  0.00  0.00    +0.000 A 
ATOM     16  C   UNL     1       5.591   3.916  15.668  0.00  0.00    +0.000 A 
ATOM     17  C   UNL     1       5.553   3.532  14.327  0.00  0.00    +0.000 A 
ATOM     18  C   UNL     1       6.428   4.112  13.406  0.00  0.00    +0.000 A 
ATOM     19  C   UNL     1       7.339   5.073  13.836  0.00  0.00    +0.000 A 
ATOM     20  C   UNL     1       7.395   5.465  15.168  0.00  0.00    +0.000 A 
BRANCH  19  21
ATOM     21  O   UNL     1       8.210   5.661  12.968  0.00  0.00    +0.000 OA
ATOM     22  H   UNL     1       8.788   4.979  12.589  0.00  0.00    +0.000 HD
ENDBRANCH  19  21
ENDBRANCH  12  15
ENDBRANCH   3  12
TORSDOF 5
ENDMDL
MODEL 8
REMARK VINA RESULT:      -6.7      2.937      4.366
REMARK  Name = 
REMARK  5 active torsions:
REMARK  status: ('A' for Active; 'I' for Inactive)
REMARK    1  A    between atoms: N_1  and  S_2
REMARK    2  A    between atoms: S_2  and  C_5
REMARK    3  A    between atoms: C_7  and  S_8
REMARK    4  A    between atoms: S_8  and  C_11
REMARK    5  A    between atoms: C_15  and  O_16
REMARK                            x       y       z     vdW  Elec       q    Type
REMARK                         _______ _______ _______ _____ _____    ______ ____
ROOT
ATOM      1  C   UNL     1       5.647   4.973  17.055  0.00  0.00    +0.000 A 
ATOM      2  C   UNL     1       4.294   4.959  17.339  0.00  0.00    +0.000 A 
ATOM      3  C   UNL     1       4.035   5.145  18.731  0.00  0.00    +0.000 A 
ATOM      4  C   UNL     1       5.195   5.296  19.460  0.00  0.00    +0.000 A 
ATOM      5  S   UNL     1       6.586   5.213  18.467  0.00  0.00    +0.000 S 
ENDROOT
BRANCH   1   6
ATOM      6  S   UNL     1       6.551   4.805  15.539  0.00  0.00    +0.000 S 
ATOM      7  O   UNL     1       7.925   4.585  15.921  0.00  0.00    +0.000 OA
ATOM      8  O   UNL     1       6.145   5.911  14.703  0.00  0.00    +0.000 OA
BRANCH   6   9
ATOM      9  N   UNL     1       6.014   3.409  14.774  0.00  0.00    +0.000 NA
ATOM     10  H   UNL     1       6.713   3.106  14.093  0.00  0.00    +0.000 HD
ATOM     11  H   UNL     1       5.106   3.572  14.336  0.00  0.00    +0.000 HD
ENDBRANCH   6   9
ENDBRANCH   1   6
BRANCH   3  12
ATOM     12  S   UNL     1       2.446   5.191  19.426  0.00  0.00    +0.000 S 
ATOM     13  O   UNL     1       1.599   4.542  18.446  0.00  0.00    +0.000 OA
ATOM     14  O   UNL     1       2.616   4.673  20.769  0.00  0.00    +0.000 OA
BRANCH  12  15
ATOM     15  C   UNL     1       2.024   6.905  19.519  0.00  0.00    +0.000 A 
ATOM     16  C   UNL     1       1.476   7.421  20.697  0.00  0.00    +0.000 A 
ATOM     17  C   UNL     1       1.091   8.762  20.748  0.00  0.00    +0.000 A 
ATOM     18  C   UNL     1       1.247   9.578  19.626  0.00  0.00    +0.000 A 
ATOM     19  C   UNL     1       1.788   9.046  18.459  0.00  0.00    +0.000 A 
ATOM     20  C   UNL     1       2.173   7.712  18.389  0.00  0.00    +0.000 A 
BRANCH  19  21
ATOM     21  O   UNL     1       1.956   9.811  17.343  0.00  0.00    +0.000 OA
ATOM     22  H   UNL     1       2.617  10.498  17.526  0.00  0.00    +0.000 HD
ENDBRANCH  19  21
ENDBRANCH  12  15
ENDBRANCH   3  12
TORSDOF 5
ENDMDL
MODEL 9
REMARK VINA RESULT:      -6.6      4.116      5.991
REMARK  Name = 
REMARK  5 active torsions:
REMARK  status: ('A' for Active; 'I' for Inactive)
REMARK    1  A    between atoms: N_1  and  S_2
REMARK    2  A    between atoms: S_2  and  C_5
REMARK    3  A    between atoms: C_7  and  S_8
REMARK    4  A    between atoms: S_8  and  C_11
REMARK    5  A    between atoms: C_15  and  O_16
REMARK                            x       y       z     vdW  Elec       q    Type
REMARK                         _______ _______ _______ _____ _____    ______ ____
ROOT
ATOM      1  C   UNL     1       1.621   8.052  20.041  0.00  0.00    +0.000 A 
ATOM      2  C   UNL     1       1.993   6.722  20.116  0.00  0.00    +0.000 A 
ATOM      3  C   UNL     1       2.570   6.256  18.896  0.00  0.00    +0.000 A 
ATOM      4  C   UNL     1       2.621   7.243  17.934  0.00  0.00    +0.000 A 
ATOM      5  S   UNL     1       1.975   8.721  18.505  0.00  0.00    +0.000 S 
ENDROOT
BRANCH   1   6
ATOM      6  S   UNL     1       0.880   9.153  21.217  0.00  0.00    +0.000 S 
ATOM      7  O   UNL     1      -0.353   8.525  21.624  0.00  0.00    +0.000 OA
ATOM      8  O   UNL     1       0.921  10.468  20.620  0.00  0.00    +0.000 OA
BRANCH   6   9
ATOM      9  N   UNL     1       1.881   9.212  22.564  0.00  0.00    +0.000 NA
ATOM     10  H   UNL     1       2.572   9.954  22.439  0.00  0.00    +0.000 HD
ATOM     11  H   UNL     1       2.324   8.305  22.716  0.00  0.00    +0.000 HD
ENDBRANCH   6   9
ENDBRANCH   1   6
BRANCH   3  12
ATOM     12  S   UNL     1       3.154   4.640  18.652  0.00  0.00    +0.000 S 
ATOM     13  O   UNL     1       2.950   3.981  19.926  0.00  0.00    +0.000 OA
ATOM     14  O   UNL     1       2.506   4.194  17.435  0.00  0.00    +0.000 OA
BRANCH  12  15
ATOM     15  C   UNL     1       4.888   4.810  18.352  0.00  0.00    +0.000 A 
ATOM     16  C   UNL     1       5.406   4.501  17.090  0.00  0.00    +0.000 A 
ATOM     17  C   UNL     1       6.783   4.580  16.873  0.00  0.00    +0.000 A 
ATOM     18  C   UNL     1       7.635   4.959  17.913  0.00  0.00    +0.000 A 
ATOM     19  C   UNL     1       7.102   5.255  19.165  0.00  0.00    +0.000 A 
ATOM     20  C   UNL     1       5.735   5.177  19.400  0.00  0.00    +0.000 A 
BRANCH  19  21
ATOM     21  O   UNL     1       7.902   5.627  20.205  0.00  0.00    +0.000 OA
ATOM     22  H   UNL     1       8.157   4.835  20.707  0.00  0.00    +0.000 HD
ENDBRANCH  19  21
ENDBRANCH  12  15
ENDBRANCH   3  12
TORSDOF 5
ENDMDL
