MODEL 1
REMARK VINA RESULT:      -8.4      0.000      0.000
REMARK  Name = 
REMARK  7 active torsions:
REMARK  status: ('A' for Active; 'I' for Inactive)
REMARK    1  A    between atoms: C_2  and  C_12
REMARK    2  A    between atoms: N_3  and  C_4
REMARK    3  A    between atoms: C_4  and  C_5
REMARK    4  A    between atoms: C_5  and  C_6
REMARK    5  A    between atoms: N_14  and  N_15
REMARK    6  A    between atoms: C_16  and  C_17
REMARK    7  A    between atoms: C_22  and  C_23
REMARK                            x       y       z     vdW  Elec       q    Type
REMARK                         _______ _______ _______ _____ _____    ______ ____
ROOT
ATOM      1  C   UNL     1       7.769   7.308  17.976  0.00  0.00    +0.000 C 
ATOM      2  O   UNL     1       8.284   6.757  18.944  0.00  0.00    +0.000 OA
ATOM      3  N   UNL     1       7.826   8.655  17.634  0.00  0.00    +0.000 N 
ATOM      4  H   UNL     1       7.366   8.963  16.780  0.00  0.00    +0.000 HD
ENDROOT
BRANCH   1   6
ATOM      5  O   UNL     1       7.485   6.016  15.971  0.00  0.00    +0.000 OA
ATOM      6  C   UNL     1       6.955   6.451  16.983  0.00  0.00    +0.000 C 
ATOM      7  N   UNL     1       5.641   6.249  17.365  0.00  0.00    +0.000 N 
ATOM      8  H   UNL     1       5.362   6.674  18.249  0.00  0.00    +0.000 HD
BRANCH   7   9
ATOM      9  C   UNL     1       4.704   5.469  16.576  0.00  0.00    +0.000 C 
BRANCH   9  10
ATOM     10  C   UNL     1       4.755   3.969  16.891  0.00  0.00    +0.000 C 
BRANCH  10  11
ATOM     11  C   UNL     1       3.518   3.480  17.611  0.00  0.00    +0.000 A 
ATOM     12  C   UNL     1       3.524   2.259  18.299  0.00  0.00    +0.000 A 
ATOM     13  C   UNL     1       2.376   1.803  18.953  0.00  0.00    +0.000 A 
ATOM     14  C   UNL     1       1.208   2.562  18.926  0.00  0.00    +0.000 A 
ATOM     15  C   UNL     1       1.188   3.778  18.246  0.00  0.00    +0.000 A 
ATOM     16  C   UNL     1       2.336   4.235  17.591  0.00  0.00    +0.000 A 
ENDBRANCH  10  11
ENDBRANCH   9  10
ENDBRANCH   7   9
ENDBRANCH   1   6
BRANCH   3  17
ATOM     17  N   UNL     1       8.589   9.507  18.381  0.00  0.00    +0.000 NA
ATOM     18  C   UNL     1       8.695  10.729  17.961  0.00  0.00    +0.000 C 
BRANCH  18  19
ATOM     19  C   UNL     1       9.548  11.705  18.696  0.00  0.00    +0.000 A 
ATOM     20  C   UNL     1      10.678  11.188  19.354  0.00  0.00    +0.000 A 
ATOM     21  C   UNL     1      11.548  12.020  20.061  0.00  0.00    +0.000 A 
ATOM     22  C   UNL     1      11.304  13.385  20.116  0.00  0.00    +0.000 A 
ATOM     23  C   UNL     1      10.189  13.912  19.465  0.00  0.00    +0.000 A 
ATOM     24  C   UNL     1       9.289  13.087  18.749  0.00  0.00    +0.000 A 
BRANCH  24  25
ATOM     25  C   UNL     1       8.141  13.784  18.066  0.00  0.00    +0.000 C 
ATOM     26  F   UNL     1       7.051  14.023  18.840  0.00  0.00    +0.000 F 
ATOM     27  F   UNL     1       8.511  15.001  17.572  0.00  0.00    +0.000 F 
ATOM     28  F   UNL     1       7.678  13.081  16.994  0.00  0.00    +0.000 F 
ENDBRANCH  24  25
ENDBRANCH  18  19
ENDBRANCH   3  17
TORSDOF 7
ENDMDL
MODEL 2
REMARK VINA RESULT:      -8.3      5.472      7.873
REMARK  Name = 
REMARK  7 active torsions:
REMARK  status: ('A' for Active; 'I' for Inactive)
REMARK    1  A    between atoms: C_2  and  C_12
REMARK    2  A    between atoms: N_3  and  C_4
REMARK    3  A    between atoms: C_4  and  C_5
REMARK    4  A    between atoms: C_5  and  C_6
REMARK    5  A    between atoms: N_14  and  N_15
REMARK    6  A    between atoms: C_16  and  C_17
REMARK    7  A    between atoms: C_22  and  C_23
REMARK                            x       y       z     vdW  Elec       q    Type
REMARK                         _______ _______ _______ _____ _____    ______ ____
ROOT
ATOM      1  C   UNL     1       1.966   4.863  20.149  0.00  0.00    +0.000 C 
ATOM      2  O   UNL     1       0.930   4.327  20.530  0.00  0.00    +0.000 OA
ATOM      3  N   UNL     1       2.313   6.206  20.243  0.00  0.00    +0.000 N 
ATOM      4  H   UNL     1       3.226   6.501  19.902  0.00  0.00    +0.000 HD
ENDROOT
BRANCH   1   6
ATOM      5  O   UNL     1       3.686   3.186  20.155  0.00  0.00    +0.000 OA
ATOM      6  C   UNL     1       3.051   3.988  19.486  0.00  0.00    +0.000 C 
ATOM      7  N   UNL     1       3.197   4.211  18.128  0.00  0.00    +0.000 N 
ATOM      8  H   UNL     1       2.577   4.911  17.721  0.00  0.00    +0.000 HD
BRANCH   7   9
ATOM      9  C   UNL     1       4.158   3.491  17.312  0.00  0.00    +0.000 C 
BRANCH   9  10
ATOM     10  C   UNL     1       4.931   4.401  16.349  0.00  0.00    +0.000 C 
BRANCH  10  11
ATOM     11  C   UNL     1       5.966   5.251  17.053  0.00  0.00    +0.000 A 
ATOM     12  C   UNL     1       6.790   4.703  18.045  0.00  0.00    +0.000 A 
ATOM     13  C   UNL     1       7.737   5.493  18.703  0.00  0.00    +0.000 A 
ATOM     14  C   UNL     1       7.871   6.842  18.376  0.00  0.00    +0.000 A 
ATOM     15  C   UNL     1       7.059   7.399  17.391  0.00  0.00    +0.000 A 
ATOM     16  C   UNL     1       6.110   6.609  16.734  0.00  0.00    +0.000 A 
ENDBRANCH  10  11
ENDBRANCH   9  10
ENDBRANCH   7   9
ENDBRANCH   1   6
BRANCH   3  17
ATOM     17  N   UNL     1       1.479   7.074  20.889  0.00  0.00    +0.000 NA
ATOM     18  C   UNL     1       1.410   8.284  20.427  0.00  0.00    +0.000 C 
BRANCH  18  19
ATOM     19  C   UNL     1       0.559   9.299  21.108  0.00  0.00    +0.000 A 
ATOM     20  C   UNL     1       0.324   9.112  22.482  0.00  0.00    +0.000 A 
ATOM     21  C   UNL     1      -0.451  10.013  23.214  0.00  0.00    +0.000 A 
ATOM     22  C   UNL     1      -0.999  11.122  22.585  0.00  0.00    +0.000 A 
ATOM     23  C   UNL     1      -0.771  11.323  21.224  0.00  0.00    +0.000 A 
ATOM     24  C   UNL     1       0.005  10.418  20.459  0.00  0.00    +0.000 A 
BRANCH  24  25
ATOM     25  C   UNL     1       0.199  10.766  19.006  0.00  0.00    +0.000 C 
ATOM     26  F   UNL     1       1.487  10.855  18.587  0.00  0.00    +0.000 F 
ATOM     27  F   UNL     1      -0.390   9.850  18.184  0.00  0.00    +0.000 F 
ATOM     28  F   UNL     1      -0.370  11.962  18.685  0.00  0.00    +0.000 F 
ENDBRANCH  24  25
ENDBRANCH  18  19
ENDBRANCH   3  17
TORSDOF 7
ENDMDL
MODEL 3
REMARK VINA RESULT:      -8.2      1.528      2.078
REMARK  Name = 
REMARK  7 active torsions:
REMARK  status: ('A' for Active; 'I' for Inactive)
REMARK    1  A    between atoms: C_2  and  C_12
REMARK    2  A    between atoms: N_3  and  C_4
REMARK    3  A    between atoms: C_4  and  C_5
REMARK    4  A    between atoms: C_5  and  C_6
REMARK    5  A    between atoms: N_14  and  N_15
REMARK    6  A    between atoms: C_16  and  C_17
REMARK    7  A    between atoms: C_22  and  C_23
REMARK                            x       y       z     vdW  Elec       q    Type
REMARK                         _______ _______ _______ _____ _____    ______ ____
ROOT
ATOM      1  C   UNL     1       7.765   7.116  17.989  0.00  0.00    +0.000 C 
ATOM      2  O   UNL     1       8.034   6.524  19.029  0.00  0.00    +0.000 OA
ATOM      3  N   UNL     1       8.022   8.447  17.678  0.00  0.00    +0.000 N 
ATOM      4  H   UNL     1       7.759   8.794  16.758  0.00  0.00    +0.000 HD
ENDROOT
BRANCH   1   6
ATOM      5  O   UNL     1       7.637   6.152  15.793  0.00  0.00    +0.000 OA
ATOM      6  C   UNL     1       7.062   6.340  16.856  0.00  0.00    +0.000 C 
ATOM      7  N   UNL     1       5.787   5.910  17.178  0.00  0.00    +0.000 N 
ATOM      8  H   UNL     1       5.461   6.143  18.116  0.00  0.00    +0.000 HD
BRANCH   7   9
ATOM      9  C   UNL     1       4.953   5.159  16.256  0.00  0.00    +0.000 C 
BRANCH   9  10
ATOM     10  C   UNL     1       4.835   3.675  16.624  0.00  0.00    +0.000 C 
BRANCH  10  11
ATOM     11  C   UNL     1       3.566   3.361  17.385  0.00  0.00    +0.000 A 
ATOM     12  C   UNL     1       2.526   4.298  17.461  0.00  0.00    +0.000 A 
ATOM     13  C   UNL     1       1.358   4.010  18.175  0.00  0.00    +0.000 A 
ATOM     14  C   UNL     1       1.218   2.783  18.821  0.00  0.00    +0.000 A 
ATOM     15  C   UNL     1       2.244   1.843  18.752  0.00  0.00    +0.000 A 
ATOM     16  C   UNL     1       3.412   2.130  18.040  0.00  0.00    +0.000 A 
ENDBRANCH  10  11
ENDBRANCH   9  10
ENDBRANCH   7   9
ENDBRANCH   1   6
BRANCH   3  17
ATOM     17  N   UNL     1       8.719   9.223  18.561  0.00  0.00    +0.000 NA
ATOM     18  C   UNL     1       8.561  10.507  18.473  0.00  0.00    +0.000 C 
BRANCH  18  19
ATOM     19  C   UNL     1       9.324  11.419  19.370  0.00  0.00    +0.000 A 
ATOM     20  C   UNL     1       8.927  11.461  20.719  0.00  0.00    +0.000 A 
ATOM     21  C   UNL     1       9.585  12.275  21.643  0.00  0.00    +0.000 A 
ATOM     22  C   UNL     1      10.655  13.057  21.233  0.00  0.00    +0.000 A 
ATOM     23  C   UNL     1      11.062  13.024  19.900  0.00  0.00    +0.000 A 
ATOM     24  C   UNL     1      10.406  12.212  18.944  0.00  0.00    +0.000 A 
BRANCH  24  25
ATOM     25  C   UNL     1      10.962  12.245  17.544  0.00  0.00    +0.000 C 
ATOM     26  F   UNL     1      12.208  12.770  17.416  0.00  0.00    +0.000 F 
ATOM     27  F   UNL     1      11.036  10.996  17.000  0.00  0.00    +0.000 F 
ATOM     28  F   UNL     1      10.176  12.966  16.696  0.00  0.00    +0.000 F 
ENDBRANCH  24  25
ENDBRANCH  18  19
ENDBRANCH   3  17
TORSDOF 7
ENDMDL
MODEL 4
REMARK VINA RESULT:      -8.2      0.892      1.270
REMARK  Name = 
REMARK  7 active torsions:
REMARK  status: ('A' for Active; 'I' for Inactive)
REMARK    1  A    between atoms: C_2  and  C_12
REMARK    2  A    between atoms: N_3  and  C_4
REMARK    3  A    between atoms: C_4  and  C_5
REMARK    4  A    between atoms: C_5  and  C_6
REMARK    5  A    between atoms: N_14  and  N_15
REMARK    6  A    between atoms: C_16  and  C_17
REMARK    7  A    between atoms: C_22  and  C_23
REMARK                            x       y       z     vdW  Elec       q    Type
REMARK                         _______ _______ _______ _____ _____    ______ ____
ROOT
ATOM      1  C   UNL     1       7.707   7.196  17.868  0.00  0.00    +0.000 C 
ATOM      2  O   UNL     1       8.207   6.672  18.859  0.00  0.00    +0.000 OA
ATOM      3  N   UNL     1       7.872   8.503  17.423  0.00  0.00    +0.000 N 
ATOM      4  H   UNL     1       7.409   8.789  16.563  0.00  0.00    +0.000 HD
ENDROOT
BRANCH   1   6
ATOM      5  O   UNL     1       7.137   6.037  15.843  0.00  0.00    +0.000 OA
ATOM      6  C   UNL     1       6.781   6.348  16.971  0.00  0.00    +0.000 C 
ATOM      7  N   UNL     1       5.582   6.004  17.570  0.00  0.00    +0.000 N 
ATOM      8  H   UNL     1       5.448   6.337  18.524  0.00  0.00    +0.000 HD
BRANCH   7   9
ATOM      9  C   UNL     1       4.569   5.207  16.901  0.00  0.00    +0.000 C 
BRANCH   9  10
ATOM     10  C   UNL     1       4.365   3.830  17.545  0.00  0.00    +0.000 C 
BRANCH  10  11
ATOM     11  C   UNL     1       3.199   3.802  18.509  0.00  0.00    +0.000 A 
ATOM     12  C   UNL     1       1.958   3.281  18.118  0.00  0.00    +0.000 A 
ATOM     13  C   UNL     1       0.879   3.268  19.006  0.00  0.00    +0.000 A 
ATOM     14  C   UNL     1       1.028   3.777  20.295  0.00  0.00    +0.000 A 
ATOM     15  C   UNL     1       2.256   4.297  20.697  0.00  0.00    +0.000 A 
ATOM     16  C   UNL     1       3.336   4.311  19.809  0.00  0.00    +0.000 A 
ENDBRANCH  10  11
ENDBRANCH   9  10
ENDBRANCH   7   9
ENDBRANCH   1   6
BRANCH   3  17
ATOM     17  N   UNL     1       8.737   9.333  18.077  0.00  0.00    +0.000 NA
ATOM     18  C   UNL     1       8.411  10.586  18.153  0.00  0.00    +0.000 C 
BRANCH  18  19
ATOM     19  C   UNL     1       9.326  11.561  18.810  0.00  0.00    +0.000 A 
ATOM     20  C   UNL     1      10.398  11.027  19.548  0.00  0.00    +0.000 A 
ATOM     21  C   UNL     1      11.319  11.855  20.191  0.00  0.00    +0.000 A 
ATOM     22  C   UNL     1      11.187  13.234  20.102  0.00  0.00    +0.000 A 
ATOM     23  C   UNL     1      10.131  13.778  19.371  0.00  0.00    +0.000 A 
ATOM     24  C   UNL     1       9.181  12.957  18.716  0.00  0.00    +0.000 A 
BRANCH  24  25
ATOM     25  C   UNL     1       8.107  13.670  17.936  0.00  0.00    +0.000 C 
ATOM     26  F   UNL     1       7.648  13.021  16.835  0.00  0.00    +0.000 F 
ATOM     27  F   UNL     1       7.005  13.915  18.701  0.00  0.00    +0.000 F 
ATOM     28  F   UNL     1       8.521  14.890  17.491  0.00  0.00    +0.000 F 
ENDBRANCH  24  25
ENDBRANCH  18  19
ENDBRANCH   3  17
TORSDOF 7
ENDMDL
MODEL 5
REMARK VINA RESULT:      -8.1      1.078      1.505
REMARK  Name = 
REMARK  7 active torsions:
REMARK  status: ('A' for Active; 'I' for Inactive)
REMARK    1  A    between atoms: C_2  and  C_12
REMARK    2  A    between atoms: N_3  and  C_4
REMARK    3  A    between atoms: C_4  and  C_5
REMARK    4  A    between atoms: C_5  and  C_6
REMARK    5  A    between atoms: N_14  and  N_15
REMARK    6  A    between atoms: C_16  and  C_17
REMARK    7  A    between atoms: C_22  and  C_23
REMARK                            x       y       z     vdW  Elec       q    Type
REMARK                         _______ _______ _______ _____ _____    ______ ____
ROOT
ATOM      1  C   UNL     1       7.497   7.409  17.843  0.00  0.00    +0.000 C 
ATOM      2  O   UNL     1       8.193   6.835  18.675  0.00  0.00    +0.000 OA
ATOM      3  N   UNL     1       7.599   8.728  17.414  0.00  0.00    +0.000 N 
ATOM      4  H   UNL     1       6.961   9.059  16.693  0.00  0.00    +0.000 HD
ENDROOT
BRANCH   1   6
ATOM      5  O   UNL     1       6.131   6.790  15.967  0.00  0.00    +0.000 OA
ATOM      6  C   UNL     1       6.363   6.620  17.155  0.00  0.00    +0.000 C 
ATOM      7  N   UNL     1       5.693   5.752  18.000  0.00  0.00    +0.000 N 
ATOM      8  H   UNL     1       6.022   5.724  18.964  0.00  0.00    +0.000 HD
BRANCH   7   9
ATOM      9  C   UNL     1       4.595   4.913  17.554  0.00  0.00    +0.000 C 
BRANCH   9  10
ATOM     10  C   UNL     1       3.217   5.500  17.883  0.00  0.00    +0.000 C 
BRANCH  10  11
ATOM     11  C   UNL     1       2.452   4.668  18.888  0.00  0.00    +0.000 A 
ATOM     12  C   UNL     1       2.691   4.805  20.262  0.00  0.00    +0.000 A 
ATOM     13  C   UNL     1       1.991   4.026  21.189  0.00  0.00    +0.000 A 
ATOM     14  C   UNL     1       1.045   3.100  20.752  0.00  0.00    +0.000 A 
ATOM     15  C   UNL     1       0.798   2.954  19.388  0.00  0.00    +0.000 A 
ATOM     16  C   UNL     1       1.498   3.732  18.461  0.00  0.00    +0.000 A 
ENDBRANCH  10  11
ENDBRANCH   9  10
ENDBRANCH   7   9
ENDBRANCH   1   6
BRANCH   3  17
ATOM     17  N   UNL     1       8.617   9.511  17.879  0.00  0.00    +0.000 NA
ATOM     18  C   UNL     1       8.315  10.714  18.255  0.00  0.00    +0.000 C 
BRANCH  18  19
ATOM     19  C   UNL     1       9.379  11.642  18.729  0.00  0.00    +0.000 A 
ATOM     20  C   UNL     1      10.528  11.056  19.291  0.00  0.00    +0.000 A 
ATOM     21  C   UNL     1      11.587  11.838  19.754  0.00  0.00    +0.000 A 
ATOM     22  C   UNL     1      11.518  13.221  19.657  0.00  0.00    +0.000 A 
ATOM     23  C   UNL     1      10.387  13.816  19.099  0.00  0.00    +0.000 A 
ATOM     24  C   UNL     1       9.297  13.044  18.630  0.00  0.00    +0.000 A 
BRANCH  24  25
ATOM     25  C   UNL     1       8.149  13.807  18.022  0.00  0.00    +0.000 C 
ATOM     26  F   UNL     1       8.449  15.042  17.544  0.00  0.00    +0.000 F 
ATOM     27  F   UNL     1       7.594  13.136  16.973  0.00  0.00    +0.000 F 
ATOM     28  F   UNL     1       7.134  13.999  18.911  0.00  0.00    +0.000 F 
ENDBRANCH  24  25
ENDBRANCH  18  19
ENDBRANCH   3  17
TORSDOF 7
ENDMDL
MODEL 6
REMARK VINA RESULT:      -8.1      1.862      2.505
REMARK  Name = 
REMARK  7 active torsions:
REMARK  status: ('A' for Active; 'I' for Inactive)
REMARK    1  A    between atoms: C_2  and  C_12
REMARK    2  A    between atoms: N_3  and  C_4
REMARK    3  A    between atoms: C_4  and  C_5
REMARK    4  A    between atoms: C_5  and  C_6
REMARK    5  A    between atoms: N_14  and  N_15
REMARK    6  A    between atoms: C_16  and  C_17
REMARK    7  A    between atoms: C_22  and  C_23
REMARK                            x       y       z     vdW  Elec       q    Type
REMARK                         _______ _______ _______ _____ _____    ______ ____
ROOT
ATOM      1  C   UNL     1       7.952   7.456  18.023  0.00  0.00    +0.000 C 
ATOM      2  O   UNL     1       7.716   7.671  16.838  0.00  0.00    +0.000 OA
ATOM      3  N   UNL     1       8.617   8.284  18.920  0.00  0.00    +0.000 N 
ATOM      4  H   UNL     1       8.717   7.978  19.886  0.00  0.00    +0.000 HD
ENDROOT
BRANCH   1   6
ATOM      5  O   UNL     1       8.122   5.595  19.530  0.00  0.00    +0.000 OA
ATOM      6  C   UNL     1       7.470   6.128  18.644  0.00  0.00    +0.000 C 
ATOM      7  N   UNL     1       6.285   5.656  18.107  0.00  0.00    +0.000 N 
ATOM      8  H   UNL     1       5.864   6.232  17.379  0.00  0.00    +0.000 HD
BRANCH   7   9
ATOM      9  C   UNL     1       5.657   4.425  18.552  0.00  0.00    +0.000 C 
BRANCH   9  10
ATOM     10  C   UNL     1       4.805   3.758  17.465  0.00  0.00    +0.000 C 
BRANCH  10  11
ATOM     11  C   UNL     1       3.430   3.364  17.960  0.00  0.00    +0.000 A 
ATOM     12  C   UNL     1       2.311   4.158  17.675  0.00  0.00    +0.000 A 
ATOM     13  C   UNL     1       1.044   3.799  18.144  0.00  0.00    +0.000 A 
ATOM     14  C   UNL     1       0.882   2.640  18.903  0.00  0.00    +0.000 A 
ATOM     15  C   UNL     1       1.986   1.842  19.191  0.00  0.00    +0.000 A 
ATOM     16  C   UNL     1       3.254   2.201  18.724  0.00  0.00    +0.000 A 
ENDBRANCH  10  11
ENDBRANCH   9  10
ENDBRANCH   7   9
ENDBRANCH   1   6
BRANCH   3  17
ATOM     17  N   UNL     1       9.017   9.527  18.521  0.00  0.00    +0.000 NA
ATOM     18  C   UNL     1       9.330  10.376  19.451  0.00  0.00    +0.000 C 
BRANCH  18  19
ATOM     19  C   UNL     1       9.729  11.766  19.095  0.00  0.00    +0.000 A 
ATOM     20  C   UNL     1      10.098  11.997  17.757  0.00  0.00    +0.000 A 
ATOM     21  C   UNL     1      10.478  13.267  17.319  0.00  0.00    +0.000 A 
ATOM     22  C   UNL     1      10.488  14.329  18.212  0.00  0.00    +0.000 A 
ATOM     23  C   UNL     1      10.122  14.116  19.540  0.00  0.00    +0.000 A 
ATOM     24  C   UNL     1       9.741  12.836  20.009  0.00  0.00    +0.000 A 
BRANCH  24  25
ATOM     25  C   UNL     1       9.339  12.746  21.458  0.00  0.00    +0.000 C 
ATOM     26  F   UNL     1       9.912  11.741  22.169  0.00  0.00    +0.000 F 
ATOM     27  F   UNL     1       9.641  13.890  22.138  0.00  0.00    +0.000 F 
ATOM     28  F   UNL     1       7.995  12.577  21.609  0.00  0.00    +0.000 F 
ENDBRANCH  24  25
ENDBRANCH  18  19
ENDBRANCH   3  17
TORSDOF 7
ENDMDL
MODEL 7
REMARK VINA RESULT:      -8.1      0.474      1.296
REMARK  Name = 
REMARK  7 active torsions:
REMARK  status: ('A' for Active; 'I' for Inactive)
REMARK    1  A    between atoms: C_2  and  C_12
REMARK    2  A    between atoms: N_3  and  C_4
REMARK    3  A    between atoms: C_4  and  C_5
REMARK    4  A    between atoms: C_5  and  C_6
REMARK    5  A    between atoms: N_14  and  N_15
REMARK    6  A    between atoms: C_16  and  C_17
REMARK    7  A    between atoms: C_22  and  C_23
REMARK                            x       y       z     vdW  Elec       q    Type
REMARK                         _______ _______ _______ _____ _____    ______ ____
ROOT
ATOM      1  C   UNL     1       7.936   7.171  18.179  0.00  0.00    +0.000 C 
ATOM      2  O   UNL     1       8.427   6.700  19.200  0.00  0.00    +0.000 OA
ATOM      3  N   UNL     1       7.901   8.505  17.789  0.00  0.00    +0.000 N 
ATOM      4  H   UNL     1       7.476   8.743  16.896  0.00  0.00    +0.000 HD
ENDROOT
BRANCH   1   6
ATOM      5  O   UNL     1       7.523   6.304  15.978  0.00  0.00    +0.000 OA
ATOM      6  C   UNL     1       7.268   6.213  17.170  0.00  0.00    +0.000 C 
ATOM      7  N   UNL     1       6.407   5.299  17.751  0.00  0.00    +0.000 N 
ATOM      8  H   UNL     1       6.316   5.353  18.765  0.00  0.00    +0.000 HD
BRANCH   7   9
ATOM      9  C   UNL     1       5.679   4.305  16.982  0.00  0.00    +0.000 C 
BRANCH   9  10
ATOM     10  C   UNL     1       4.216   4.693  16.730  0.00  0.00    +0.000 C 
BRANCH  10  11
ATOM     11  C   UNL     1       3.242   3.825  17.496  0.00  0.00    +0.000 A 
ATOM     12  C   UNL     1       1.944   4.276  17.772  0.00  0.00    +0.000 A 
ATOM     13  C   UNL     1       1.049   3.478  18.491  0.00  0.00    +0.000 A 
ATOM     14  C   UNL     1       1.443   2.219  18.942  0.00  0.00    +0.000 A 
ATOM     15  C   UNL     1       2.730   1.758  18.673  0.00  0.00    +0.000 A 
ATOM     16  C   UNL     1       3.625   2.557  17.956  0.00  0.00    +0.000 A 
ENDBRANCH  10  11
ENDBRANCH   9  10
ENDBRANCH   7   9
ENDBRANCH   1   6
BRANCH   3  17
ATOM     17  N   UNL     1       8.535   9.446  18.550  0.00  0.00    +0.000 NA
ATOM     18  C   UNL     1       8.932  10.524  17.950  0.00  0.00    +0.000 C 
BRANCH  18  19
ATOM     19  C   UNL     1       9.673  11.574  18.703  0.00  0.00    +0.000 A 
ATOM     20  C   UNL     1      10.787  11.151  19.451  0.00  0.00    +0.000 A 
ATOM     21  C   UNL     1      11.555  12.058  20.183  0.00  0.00    +0.000 A 
ATOM     22  C   UNL     1      11.224  13.406  20.174  0.00  0.00    +0.000 A 
ATOM     23  C   UNL     1      10.125  13.841  19.434  0.00  0.00    +0.000 A 
ATOM     24  C   UNL     1       9.327  12.938  18.691  0.00  0.00    +0.000 A 
BRANCH  24  25
ATOM     25  C   UNL     1       8.187  13.539  17.911  0.00  0.00    +0.000 C 
ATOM     26  F   UNL     1       8.440  14.737  17.324  0.00  0.00    +0.000 F 
ATOM     27  F   UNL     1       7.775  12.718  16.903  0.00  0.00    +0.000 F 
ATOM     28  F   UNL     1       7.085  13.742  18.688  0.00  0.00    +0.000 F 
ENDBRANCH  24  25
ENDBRANCH  18  19
ENDBRANCH   3  17
TORSDOF 7
ENDMDL
MODEL 8
REMARK VINA RESULT:      -8.0      4.113     10.295
REMARK  Name = 
REMARK  7 active torsions:
REMARK  status: ('A' for Active; 'I' for Inactive)
REMARK    1  A    between atoms: C_2  and  C_12
REMARK    2  A    between atoms: N_3  and  C_4
REMARK    3  A    between atoms: C_4  and  C_5
REMARK    4  A    between atoms: C_5  and  C_6
REMARK    5  A    between atoms: N_14  and  N_15
REMARK    6  A    between atoms: C_16  and  C_17
REMARK    7  A    between atoms: C_22  and  C_23
REMARK                            x       y       z     vdW  Elec       q    Type
REMARK                         _______ _______ _______ _____ _____    ______ ____
ROOT
ATOM      1  C   UNL     1       6.917   6.068  18.467  0.00  0.00    +0.000 C 
ATOM      2  O   UNL     1       7.448   5.412  19.357  0.00  0.00    +0.000 OA
ATOM      3  N   UNL     1       5.641   5.909  17.939  0.00  0.00    +0.000 N 
ATOM      4  H   UNL     1       5.328   6.550  17.213  0.00  0.00    +0.000 HD
ENDROOT
BRANCH   1   6
ATOM      5  O   UNL     1       7.839   7.278  16.608  0.00  0.00    +0.000 OA
ATOM      6  C   UNL     1       7.714   7.222  17.823  0.00  0.00    +0.000 C 
ATOM      7  N   UNL     1       8.229   8.125  18.737  0.00  0.00    +0.000 N 
ATOM      8  H   UNL     1       8.022   7.936  19.717  0.00  0.00    +0.000 HD
BRANCH   7   9
ATOM      9  C   UNL     1       9.006   9.286  18.343  0.00  0.00    +0.000 C 
BRANCH   9  10
ATOM     10  C   UNL     1       9.246  10.270  19.495  0.00  0.00    +0.000 C 
BRANCH  10  11
ATOM     11  C   UNL     1      10.302  11.303  19.171  0.00  0.00    +0.000 A 
ATOM     12  C   UNL     1      10.599  11.632  17.841  0.00  0.00    +0.000 A 
ATOM     13  C   UNL     1      11.584  12.578  17.544  0.00  0.00    +0.000 A 
ATOM     14  C   UNL     1      12.283  13.207  18.573  0.00  0.00    +0.000 A 
ATOM     15  C   UNL     1      11.997  12.890  19.899  0.00  0.00    +0.000 A 
ATOM     16  C   UNL     1      11.013  11.943  20.197  0.00  0.00    +0.000 A 
ENDBRANCH  10  11
ENDBRANCH   9  10
ENDBRANCH   7   9
ENDBRANCH   1   6
BRANCH   3  17
ATOM     17  N   UNL     1       4.799   4.979  18.481  0.00  0.00    +0.000 NA
ATOM     18  C   UNL     1       3.810   5.420  19.193  0.00  0.00    +0.000 C 
BRANCH  18  19
ATOM     19  C   UNL     1       2.877   4.466  19.856  0.00  0.00    +0.000 A 
ATOM     20  C   UNL     1       3.097   4.209  21.221  0.00  0.00    +0.000 A 
ATOM     21  C   UNL     1       2.273   3.339  21.937  0.00  0.00    +0.000 A 
ATOM     22  C   UNL     1       1.209   2.716  21.299  0.00  0.00    +0.000 A 
ATOM     23  C   UNL     1       0.976   2.964  19.947  0.00  0.00    +0.000 A 
ATOM     24  C   UNL     1       1.804   3.837  19.199  0.00  0.00    +0.000 A 
BRANCH  24  25
ATOM     25  C   UNL     1       1.426   4.041  17.755  0.00  0.00    +0.000 C 
ATOM     26  F   UNL     1       0.204   3.574  17.392  0.00  0.00    +0.000 F 
ATOM     27  F   UNL     1       1.427   5.362  17.415  0.00  0.00    +0.000 F 
ATOM     28  F   UNL     1       2.310   3.446  16.905  0.00  0.00    +0.000 F 
ENDBRANCH  24  25
ENDBRANCH  18  19
ENDBRANCH   3  17
TORSDOF 7
ENDMDL
MODEL 9
REMARK VINA RESULT:      -8.0      5.245      7.767
REMARK  Name = 
REMARK  7 active torsions:
REMARK  status: ('A' for Active; 'I' for Inactive)
REMARK    1  A    between atoms: C_2  and  C_12
REMARK    2  A    between atoms: N_3  and  C_4
REMARK    3  A    between atoms: C_4  and  C_5
REMARK    4  A    between atoms: C_5  and  C_6
REMARK    5  A    between atoms: N_14  and  N_15
REMARK    6  A    between atoms: C_16  and  C_17
REMARK    7  A    between atoms: C_22  and  C_23
REMARK                            x       y       z     vdW  Elec       q    Type
REMARK                         _______ _______ _______ _____ _____    ______ ____
ROOT
ATOM      1  C   UNL     1       2.646   4.889  20.093  0.00  0.00    +0.000 C 
ATOM      2  O   UNL     1       1.836   4.292  20.795  0.00  0.00    +0.000 OA
ATOM      3  N   UNL     1       2.798   6.263  19.951  0.00  0.00    +0.000 N 
ATOM      4  H   UNL     1       3.537   6.614  19.345  0.00  0.00    +0.000 HD
ENDROOT
BRANCH   1   6
ATOM      5  O   UNL     1       4.369   3.244  19.789  0.00  0.00    +0.000 OA
ATOM      6  C   UNL     1       3.642   4.065  19.249  0.00  0.00    +0.000 C 
ATOM      7  N   UNL     1       3.603   4.354  17.896  0.00  0.00    +0.000 N 
ATOM      8  H   UNL     1       2.927   5.061  17.610  0.00  0.00    +0.000 HD
BRANCH   7   9
ATOM      9  C   UNL     1       4.455   3.690  16.926  0.00  0.00    +0.000 C 
BRANCH   9  10
ATOM     10  C   UNL     1       5.319   4.666  16.118  0.00  0.00    +0.000 C 
BRANCH  10  11
ATOM     11  C   UNL     1       6.280   5.451  16.983  0.00  0.00    +0.000 A 
ATOM     12  C   UNL     1       6.501   6.816  16.753  0.00  0.00    +0.000 A 
ATOM     13  C   UNL     1       7.398   7.537  17.546  0.00  0.00    +0.000 A 
ATOM     14  C   UNL     1       8.086   6.901  18.578  0.00  0.00    +0.000 A 
ATOM     15  C   UNL     1       7.875   5.544  18.817  0.00  0.00    +0.000 A 
ATOM     16  C   UNL     1       6.979   4.823  18.024  0.00  0.00    +0.000 A 
ENDBRANCH  10  11
ENDBRANCH   9  10
ENDBRANCH   7   9
ENDBRANCH   1   6
BRANCH   3  17
ATOM     17  N   UNL     1       2.038   7.107  20.710  0.00  0.00    +0.000 NA
ATOM     18  C   UNL     1       1.514   8.132  20.113  0.00  0.00    +0.000 C 
BRANCH  18  19
ATOM     19  C   UNL     1       0.712   9.122  20.884  0.00  0.00    +0.000 A 
ATOM     20  C   UNL     1       0.530   8.861  22.254  0.00  0.00    +0.000 A 
ATOM     21  C   UNL     1      -0.196   9.732  23.068  0.00  0.00    +0.000 A 
ATOM     22  C   UNL     1      -0.747  10.885  22.525  0.00  0.00    +0.000 A 
ATOM     23  C   UNL     1      -0.571  11.159  21.169  0.00  0.00    +0.000 A 
ATOM     24  C   UNL     1       0.154  10.286  20.323  0.00  0.00    +0.000 A 
BRANCH  24  25
ATOM     25  C   UNL     1       0.296  10.713  18.885  0.00  0.00    +0.000 C 
ATOM     26  F   UNL     1       1.568  10.873  18.439  0.00  0.00    +0.000 F 
ATOM     27  F   UNL     1      -0.279   9.816  18.033  0.00  0.00    +0.000 F 
ATOM     28  F   UNL     1      -0.327  11.900  18.639  0.00  0.00    +0.000 F 
ENDBRANCH  24  25
ENDBRANCH  18  19
ENDBRANCH   3  17
TORSDOF 7
ENDMDL
