MODEL 1
REMARK VINA RESULT:      -5.6      0.000      0.000
REMARK  Name = 
REMARK  11 active torsions:
REMARK  status: ('A' for Active; 'I' for Inactive)
REMARK    1  A    between atoms: C_2  and  C_3
REMARK    2  A    between atoms: C_3  and  N_4
REMARK    3  A    between atoms: C_7  and  C_8
REMARK    4  A    between atoms: C_14  and  C_15
REMARK    5  A    between atoms: C_15  and  O_17
REMARK    6  A    between atoms: O_17  and  C_18
REMARK    7  A    between atoms: C_19  and  C_20
REMARK    8  A    between atoms: N_21  and  C_22
REMARK    9  A    between atoms: C_22  and  C_23
REMARK   10  A    between atoms: C_23  and  O_24
REMARK   11  A    between atoms: O_24  and  C_25
REMARK                            x       y       z     vdW  Elec       q    Type
REMARK                         _______ _______ _______ _____ _____    ______ ____
ROOT
ATOM      1  N   UNL     1       4.059   6.894  17.853  0.00  0.00    +0.000 N 
ATOM      2  C   UNL     1       4.942   5.952  18.331  0.00  0.00    +0.000 C 
ATOM      3  N   UNL     1       4.754   5.456  19.495  0.00  0.00    +0.000 NA
ATOM      4  C   UNL     1       4.563   3.981  19.517  0.00  0.00    +0.000 C 
ATOM      5  C   UNL     1       4.566   3.346  18.122  0.00  0.00    +0.000 C 
ATOM      6  C   UNL     1       5.142   3.986  17.064  0.00  0.00    +0.000 C 
ATOM      7  C   UNL     1       5.245   3.440  15.663  0.00  0.00    +0.000 C 
ATOM      8  N   UNL     1       5.560   5.315  17.271  0.00  0.00    +0.000 N 
ATOM      9  H   UNL     1       3.622   6.475  17.035  0.00  0.00    +0.000 HD
ENDROOT
BRANCH   4  10
ATOM     10  C   UNL     1       3.255   3.901  20.331  0.00  0.00    +0.000 A 
ATOM     11  C   UNL     1       3.023   2.839  21.224  0.00  0.00    +0.000 A 
ATOM     12  C   UNL     1       1.724   2.517  21.628  0.00  0.00    +0.000 A 
ATOM     13  C   UNL     1       0.643   3.266  21.166  0.00  0.00    +0.000 A 
ATOM     14  C   UNL     1       0.860   4.357  20.327  0.00  0.00    +0.000 A 
ATOM     15  C   UNL     1       2.155   4.673  19.911  0.00  0.00    +0.000 A 
ENDBRANCH   4  10
BRANCH   5  16
ATOM     16  C   UNL     1       3.799   2.098  17.923  0.00  0.00    +0.000 C 
ATOM     17  O   UNL     1       4.237   0.985  18.183  0.00  0.00    +0.000 OA
BRANCH  16  18
ATOM     18  O   UNL     1       2.602   2.351  17.342  0.00  0.00    +0.000 OA
ATOM     19  C   UNL     1       1.494   1.741  18.007  0.00  0.00    +0.000 C 
ENDBRANCH  16  18
ENDBRANCH   5  16
BRANCH   1  20
ATOM     20  C   UNL     1       3.006   7.439  18.687  0.00  0.00    +0.000 C 
BRANCH  20  22
ATOM     21  C   UNL     1       1.584   9.384  18.051  0.00  0.00    +0.000 C 
ATOM     22  C   UNL     1       2.100   8.181  17.775  0.00  0.00    +0.000 C 
ENDBRANCH  20  22
ENDBRANCH   1  20
BRANCH   8  23
ATOM     23  C   UNL     1       6.219   6.181  16.252  0.00  0.00    +0.000 C 
BRANCH  23  24
ATOM     24  C   UNL     1       7.454   6.931  16.796  0.00  0.00    +0.000 C 
BRANCH  24  25
ATOM     25  O   UNL     1       7.065   8.260  17.182  0.00  0.00    +0.000 OA
ATOM     26  C   UNL     1       8.110   8.948  17.864  0.00  0.00    +0.000 C 
ENDBRANCH  24  25
ENDBRANCH  23  24
ENDBRANCH   8  23
TORSDOF 8
ENDMDL
MODEL 2
REMARK VINA RESULT:      -5.4      6.407      9.853
REMARK  Name = 
REMARK  11 active torsions:
REMARK  status: ('A' for Active; 'I' for Inactive)
REMARK    1  A    between atoms: C_2  and  C_3
REMARK    2  A    between atoms: C_3  and  N_4
REMARK    3  A    between atoms: C_7  and  C_8
REMARK    4  A    between atoms: C_14  and  C_15
REMARK    5  A    between atoms: C_15  and  O_17
REMARK    6  A    between atoms: O_17  and  C_18
REMARK    7  A    between atoms: C_19  and  C_20
REMARK    8  A    between atoms: N_21  and  C_22
REMARK    9  A    between atoms: C_22  and  C_23
REMARK   10  A    between atoms: C_23  and  O_24
REMARK   11  A    between atoms: O_24  and  C_25
REMARK                            x       y       z     vdW  Elec       q    Type
REMARK                         _______ _______ _______ _____ _____    ______ ____
ROOT
ATOM      1  N   UNL     1      -1.672  10.221  18.400  0.00  0.00    +0.000 N 
ATOM      2  C   UNL     1      -0.795  11.203  18.803  0.00  0.00    +0.000 C 
ATOM      3  N   UNL     1      -1.195  12.418  18.842  0.00  0.00    +0.000 NA
ATOM      4  C   UNL     1      -1.117  13.052  20.185  0.00  0.00    +0.000 C 
ATOM      5  C   UNL     1      -0.628  12.099  21.282  0.00  0.00    +0.000 C 
ATOM      6  C   UNL     1       0.084  10.980  20.968  0.00  0.00    +0.000 C 
ATOM      7  C   UNL     1       0.654   9.999  21.960  0.00  0.00    +0.000 C 
ATOM      8  N   UNL     1       0.188  10.649  19.603  0.00  0.00    +0.000 N 
ATOM      9  H   UNL     1      -1.792   9.609  19.205  0.00  0.00    +0.000 HD
ENDROOT
BRANCH   4  10
ATOM     10  C   UNL     1      -2.559  13.589  20.302  0.00  0.00    +0.000 A 
ATOM     11  C   UNL     1      -2.821  14.830  20.911  0.00  0.00    +0.000 A 
ATOM     12  C   UNL     1      -4.095  15.127  21.404  0.00  0.00    +0.000 A 
ATOM     13  C   UNL     1      -5.129  14.202  21.272  0.00  0.00    +0.000 A 
ATOM     14  C   UNL     1      -4.901  12.992  20.621  0.00  0.00    +0.000 A 
ATOM     15  C   UNL     1      -3.626  12.685  20.139  0.00  0.00    +0.000 A 
ENDBRANCH   4  10
BRANCH   5  16
ATOM     16  C   UNL     1      -1.079  12.343  22.669  0.00  0.00    +0.000 C 
ATOM     17  O   UNL     1      -0.542  13.144  23.424  0.00  0.00    +0.000 OA
BRANCH  16  18
ATOM     18  O   UNL     1      -2.090  11.508  23.005  0.00  0.00    +0.000 OA
ATOM     19  C   UNL     1      -3.149  12.142  23.728  0.00  0.00    +0.000 C 
ENDBRANCH  16  18
ENDBRANCH   5  16
BRANCH   1  20
ATOM     20  C   UNL     1      -2.989  10.543  17.889  0.00  0.00    +0.000 C 
BRANCH  20  22
ATOM     21  C   UNL     1      -2.837  10.631  15.403  0.00  0.00    +0.000 C 
ATOM     22  C   UNL     1      -3.061   9.948  16.532  0.00  0.00    +0.000 C 
ENDBRANCH  20  22
ENDBRANCH   1  20
BRANCH   8  23
ATOM     23  C   UNL     1       0.929   9.478  19.052  0.00  0.00    +0.000 C 
BRANCH  23  24
ATOM     24  C   UNL     1       1.964   9.865  17.973  0.00  0.00    +0.000 C 
BRANCH  24  25
ATOM     25  O   UNL     1       2.409   8.675  17.301  0.00  0.00    +0.000 OA
ATOM     26  C   UNL     1       2.632   7.598  18.207  0.00  0.00    +0.000 C 
ENDBRANCH  24  25
ENDBRANCH  23  24
ENDBRANCH   8  23
TORSDOF 8
ENDMDL
MODEL 3
REMARK VINA RESULT:      -5.4      9.915     12.646
REMARK  Name = 
REMARK  11 active torsions:
REMARK  status: ('A' for Active; 'I' for Inactive)
REMARK    1  A    between atoms: C_2  and  C_3
REMARK    2  A    between atoms: C_3  and  N_4
REMARK    3  A    between atoms: C_7  and  C_8
REMARK    4  A    between atoms: C_14  and  C_15
REMARK    5  A    between atoms: C_15  and  O_17
REMARK    6  A    between atoms: O_17  and  C_18
REMARK    7  A    between atoms: C_19  and  C_20
REMARK    8  A    between atoms: N_21  and  C_22
REMARK    9  A    between atoms: C_22  and  C_23
REMARK   10  A    between atoms: C_23  and  O_24
REMARK   11  A    between atoms: O_24  and  C_25
REMARK                            x       y       z     vdW  Elec       q    Type
REMARK                         _______ _______ _______ _____ _____    ______ ____
ROOT
ATOM      1  N   UNL     1      -5.821  10.477  18.798  0.00  0.00    +0.000 N 
ATOM      2  C   UNL     1      -5.385  11.776  18.661  0.00  0.00    +0.000 C 
ATOM      3  N   UNL     1      -6.119  12.729  19.098  0.00  0.00    +0.000 NA
ATOM      4  C   UNL     1      -5.480  13.573  20.143  0.00  0.00    +0.000 C 
ATOM      5  C   UNL     1      -4.079  13.094  20.542  0.00  0.00    +0.000 C 
ATOM      6  C   UNL     1      -3.350  12.299  19.708  0.00  0.00    +0.000 C 
ATOM      7  C   UNL     1      -1.950  11.808  19.972  0.00  0.00    +0.000 C 
ATOM      8  N   UNL     1      -4.005  11.795  18.567  0.00  0.00    +0.000 N 
ATOM      9  H   UNL     1      -5.147  10.021  19.409  0.00  0.00    +0.000 HD
ENDROOT
BRANCH   4  10
ATOM     10  C   UNL     1      -6.581  13.525  21.223  0.00  0.00    +0.000 A 
ATOM     11  C   UNL     1      -6.995  14.695  21.887  0.00  0.00    +0.000 A 
ATOM     12  C   UNL     1      -7.646  14.622  23.121  0.00  0.00    +0.000 A 
ATOM     13  C   UNL     1      -7.915  13.382  23.698  0.00  0.00    +0.000 A 
ATOM     14  C   UNL     1      -7.564  12.212  23.028  0.00  0.00    +0.000 A 
ATOM     15  C   UNL     1      -6.901  12.281  21.800  0.00  0.00    +0.000 A 
ENDBRANCH   4  10
BRANCH   5  16
ATOM     16  C   UNL     1      -3.605  13.389  21.911  0.00  0.00    +0.000 C 
ATOM     17  O   UNL     1      -3.633  12.577  22.827  0.00  0.00    +0.000 OA
BRANCH  16  18
ATOM     18  O   UNL     1      -3.226  14.684  22.024  0.00  0.00    +0.000 OA
ATOM     19  C   UNL     1      -1.992  14.868  22.722  0.00  0.00    +0.000 C 
ENDBRANCH  16  18
ENDBRANCH   5  16
BRANCH   1  20
ATOM     20  C   UNL     1      -7.147  10.171  19.296  0.00  0.00    +0.000 C 
BRANCH  20  22
ATOM     21  C   UNL     1      -7.798   8.340  20.856  0.00  0.00    +0.000 C 
ATOM     22  C   UNL     1      -7.082   8.783  19.815  0.00  0.00    +0.000 C 
ENDBRANCH  20  22
ENDBRANCH   1  20
BRANCH   8  23
ATOM     23  C   UNL     1      -3.385  10.922  17.530  0.00  0.00    +0.000 C 
BRANCH  23  24
ATOM     24  C   UNL     1      -3.782  11.311  16.089  0.00  0.00    +0.000 C 
BRANCH  24  25
ATOM     25  O   UNL     1      -2.845  10.727  15.169  0.00  0.00    +0.000 OA
ATOM     26  C   UNL     1      -3.496  10.070  14.086  0.00  0.00    +0.000 C 
ENDBRANCH  24  25
ENDBRANCH  23  24
ENDBRANCH   8  23
TORSDOF 8
ENDMDL
MODEL 4
REMARK VINA RESULT:      -5.2      5.881      9.748
REMARK  Name = 
REMARK  11 active torsions:
REMARK  status: ('A' for Active; 'I' for Inactive)
REMARK    1  A    between atoms: C_2  and  C_3
REMARK    2  A    between atoms: C_3  and  N_4
REMARK    3  A    between atoms: C_7  and  C_8
REMARK    4  A    between atoms: C_14  and  C_15
REMARK    5  A    between atoms: C_15  and  O_17
REMARK    6  A    between atoms: O_17  and  C_18
REMARK    7  A    between atoms: C_19  and  C_20
REMARK    8  A    between atoms: N_21  and  C_22
REMARK    9  A    between atoms: C_22  and  C_23
REMARK   10  A    between atoms: C_23  and  O_24
REMARK   11  A    between atoms: O_24  and  C_25
REMARK                            x       y       z     vdW  Elec       q    Type
REMARK                         _______ _______ _______ _____ _____    ______ ____
ROOT
ATOM      1  N   UNL     1      -2.234  11.005  18.319  0.00  0.00    +0.000 N 
ATOM      2  C   UNL     1      -1.840  11.028  19.638  0.00  0.00    +0.000 C 
ATOM      3  N   UNL     1      -1.047  10.120  20.068  0.00  0.00    +0.000 NA
ATOM      4  C   UNL     1       0.243  10.628  20.606  0.00  0.00    +0.000 C 
ATOM      5  C   UNL     1       0.399  12.148  20.482  0.00  0.00    +0.000 C 
ATOM      6  C   UNL     1      -0.692  12.952  20.339  0.00  0.00    +0.000 C 
ATOM      7  C   UNL     1      -0.664  14.457  20.255  0.00  0.00    +0.000 C 
ATOM      8  N   UNL     1      -1.932  12.318  20.128  0.00  0.00    +0.000 N 
ATOM      9  H   UNL     1      -1.867  11.859  17.904  0.00  0.00    +0.000 HD
ENDROOT
BRANCH   4  10
ATOM     10  C   UNL     1       1.223   9.745  19.805  0.00  0.00    +0.000 A 
ATOM     11  C   UNL     1       1.426   9.956  18.428  0.00  0.00    +0.000 A 
ATOM     12  C   UNL     1       1.948   8.941  17.621  0.00  0.00    +0.000 A 
ATOM     13  C   UNL     1       2.298   7.714  18.180  0.00  0.00    +0.000 A 
ATOM     14  C   UNL     1       2.158   7.508  19.550  0.00  0.00    +0.000 A 
ATOM     15  C   UNL     1       1.624   8.514  20.359  0.00  0.00    +0.000 A 
ENDBRANCH   4  10
BRANCH   5  16
ATOM     16  C   UNL     1       1.766  12.701  20.368  0.00  0.00    +0.000 C 
ATOM     17  O   UNL     1       2.465  12.982  21.334  0.00  0.00    +0.000 OA
BRANCH  16  18
ATOM     18  O   UNL     1       2.091  12.928  19.074  0.00  0.00    +0.000 OA
ATOM     19  C   UNL     1       3.009  14.009  18.888  0.00  0.00    +0.000 C 
ENDBRANCH  16  18
ENDBRANCH   5  16
BRANCH   1  20
ATOM     20  C   UNL     1      -1.889   9.903  17.444  0.00  0.00    +0.000 C 
BRANCH  20  22
ATOM     21  C   UNL     1      -2.925  10.795  15.360  0.00  0.00    +0.000 C 
ATOM     22  C   UNL     1      -2.902   9.905  16.359  0.00  0.00    +0.000 C 
ENDBRANCH  20  22
ENDBRANCH   1  20
BRANCH   8  23
ATOM     23  C   UNL     1      -3.240  13.014  19.960  0.00  0.00    +0.000 C 
BRANCH  23  24
ATOM     24  C   UNL     1      -3.971  13.268  21.296  0.00  0.00    +0.000 C 
BRANCH  24  25
ATOM     25  O   UNL     1      -4.939  12.228  21.509  0.00  0.00    +0.000 OA
ATOM     26  C   UNL     1      -6.271  12.733  21.543  0.00  0.00    +0.000 C 
ENDBRANCH  24  25
ENDBRANCH  23  24
ENDBRANCH   8  23
TORSDOF 8
ENDMDL
MODEL 5
REMARK VINA RESULT:      -5.2      7.845     11.239
REMARK  Name = 
REMARK  11 active torsions:
REMARK  status: ('A' for Active; 'I' for Inactive)
REMARK    1  A    between atoms: C_2  and  C_3
REMARK    2  A    between atoms: C_3  and  N_4
REMARK    3  A    between atoms: C_7  and  C_8
REMARK    4  A    between atoms: C_14  and  C_15
REMARK    5  A    between atoms: C_15  and  O_17
REMARK    6  A    between atoms: O_17  and  C_18
REMARK    7  A    between atoms: C_19  and  C_20
REMARK    8  A    between atoms: N_21  and  C_22
REMARK    9  A    between atoms: C_22  and  C_23
REMARK   10  A    between atoms: C_23  and  O_24
REMARK   11  A    between atoms: O_24  and  C_25
REMARK                            x       y       z     vdW  Elec       q    Type
REMARK                         _______ _______ _______ _____ _____    ______ ____
ROOT
ATOM      1  N   UNL     1      -3.978  12.511  21.731  0.00  0.00    +0.000 N 
ATOM      2  C   UNL     1      -3.679  13.060  20.504  0.00  0.00    +0.000 C 
ATOM      3  N   UNL     1      -2.453  13.156  20.146  0.00  0.00    +0.000 NA
ATOM      4  C   UNL     1      -2.113  12.424  18.898  0.00  0.00    +0.000 C 
ATOM      5  C   UNL     1      -3.291  11.637  18.313  0.00  0.00    +0.000 C 
ATOM      6  C   UNL     1      -4.576  11.962  18.634  0.00  0.00    +0.000 C 
ATOM      7  C   UNL     1      -5.810  11.292  18.085  0.00  0.00    +0.000 C 
ATOM      8  N   UNL     1      -4.760  12.915  19.654  0.00  0.00    +0.000 N 
ATOM      9  H   UNL     1      -4.510  11.666  21.534  0.00  0.00    +0.000 HD
ENDROOT
BRANCH   4  10
ATOM     10  C   UNL     1      -0.897  11.615  19.396  0.00  0.00    +0.000 A 
ATOM     11  C   UNL     1       0.293  11.563  18.647  0.00  0.00    +0.000 A 
ATOM     12  C   UNL     1       1.216  10.531  18.843  0.00  0.00    +0.000 A 
ATOM     13  C   UNL     1       0.975   9.554  19.807  0.00  0.00    +0.000 A 
ATOM     14  C   UNL     1      -0.169   9.622  20.597  0.00  0.00    +0.000 A 
ATOM     15  C   UNL     1      -1.100  10.644  20.395  0.00  0.00    +0.000 A 
ENDBRANCH   4  10
BRANCH   5  16
ATOM     16  C   UNL     1      -2.995  10.427  17.516  0.00  0.00    +0.000 C 
ATOM     17  O   UNL     1      -3.198   9.287  17.914  0.00  0.00    +0.000 OA
BRANCH  16  18
ATOM     18  O   UNL     1      -2.397  10.752  16.345  0.00  0.00    +0.000 OA
ATOM     19  C   UNL     1      -3.014  10.164  15.197  0.00  0.00    +0.000 C 
ENDBRANCH  16  18
ENDBRANCH   5  16
BRANCH   1  20
ATOM     20  C   UNL     1      -2.940  12.170  22.683  0.00  0.00    +0.000 C 
BRANCH  20  22
ATOM     21  C   UNL     1      -4.792  12.706  24.261  0.00  0.00    +0.000 C 
ATOM     22  C   UNL     1      -3.496  12.470  24.025  0.00  0.00    +0.000 C 
ENDBRANCH  20  22
ENDBRANCH   1  20
BRANCH   8  23
ATOM     23  C   UNL     1      -6.077  13.413  20.144  0.00  0.00    +0.000 C 
BRANCH  23  24
ATOM     24  C   UNL     1      -6.450  14.802  19.582  0.00  0.00    +0.000 C 
BRANCH  24  25
ATOM     25  O   UNL     1      -7.436  14.643  18.549  0.00  0.00    +0.000 OA
ATOM     26  C   UNL     1      -6.872  14.766  17.246  0.00  0.00    +0.000 C 
ENDBRANCH  24  25
ENDBRANCH  23  24
ENDBRANCH   8  23
TORSDOF 8
ENDMDL
MODEL 6
REMARK VINA RESULT:      -5.2      2.239      4.522
REMARK  Name = 
REMARK  11 active torsions:
REMARK  status: ('A' for Active; 'I' for Inactive)
REMARK    1  A    between atoms: C_2  and  C_3
REMARK    2  A    between atoms: C_3  and  N_4
REMARK    3  A    between atoms: C_7  and  C_8
REMARK    4  A    between atoms: C_14  and  C_15
REMARK    5  A    between atoms: C_15  and  O_17
REMARK    6  A    between atoms: O_17  and  C_18
REMARK    7  A    between atoms: C_19  and  C_20
REMARK    8  A    between atoms: N_21  and  C_22
REMARK    9  A    between atoms: C_22  and  C_23
REMARK   10  A    between atoms: C_23  and  O_24
REMARK   11  A    between atoms: O_24  and  C_25
REMARK                            x       y       z     vdW  Elec       q    Type
REMARK                         _______ _______ _______ _____ _____    ______ ____
ROOT
ATOM      1  N   UNL     1       5.106   7.123  17.802  0.00  0.00    +0.000 N 
ATOM      2  C   UNL     1       3.823   6.728  17.499  0.00  0.00    +0.000 C 
ATOM      3  N   UNL     1       3.609   5.513  17.157  0.00  0.00    +0.000 NA
ATOM      4  C   UNL     1       2.667   4.778  18.043  0.00  0.00    +0.000 C 
ATOM      5  C   UNL     1       2.181   5.606  19.238  0.00  0.00    +0.000 C 
ATOM      6  C   UNL     1       2.236   6.968  19.211  0.00  0.00    +0.000 C 
ATOM      7  C   UNL     1       1.746   7.883  20.304  0.00  0.00    +0.000 C 
ATOM      8  N   UNL     1       2.918   7.561  18.132  0.00  0.00    +0.000 N 
ATOM      9  H   UNL     1       5.088   7.396  18.782  0.00  0.00    +0.000 HD
ENDROOT
BRANCH   4  10
ATOM     10  C   UNL     1       3.519   3.527  18.344  0.00  0.00    +0.000 A 
ATOM     11  C   UNL     1       3.158   2.266  17.835  0.00  0.00    +0.000 A 
ATOM     12  C   UNL     1       3.639   1.094  18.425  0.00  0.00    +0.000 A 
ATOM     13  C   UNL     1       4.505   1.164  19.515  0.00  0.00    +0.000 A 
ATOM     14  C   UNL     1       4.918   2.404  19.996  0.00  0.00    +0.000 A 
ATOM     15  C   UNL     1       4.429   3.578  19.417  0.00  0.00    +0.000 A 
ENDBRANCH   4  10
BRANCH   5  16
ATOM     16  C   UNL     1       1.797   4.889  20.472  0.00  0.00    +0.000 C 
ATOM     17  O   UNL     1       2.402   4.992  21.532  0.00  0.00    +0.000 OA
BRANCH  16  18
ATOM     18  O   UNL     1       0.756   4.053  20.244  0.00  0.00    +0.000 OA
ATOM     19  C   UNL     1       0.941   2.739  20.777  0.00  0.00    +0.000 C 
ENDBRANCH  16  18
ENDBRANCH   5  16
BRANCH   1  20
ATOM     20  C   UNL     1       6.238   6.238  17.610  0.00  0.00    +0.000 C 
BRANCH  20  22
ATOM     21  C   UNL     1       7.751   8.216  17.707  0.00  0.00    +0.000 C 
ATOM     22  C   UNL     1       7.346   7.088  17.110  0.00  0.00    +0.000 C 
ENDBRANCH  20  22
ENDBRANCH   1  20
BRANCH   8  23
ATOM     23  C   UNL     1       3.081   9.027  17.913  0.00  0.00    +0.000 C 
BRANCH  23  24
ATOM     24  C   UNL     1       1.737   9.777  17.786  0.00  0.00    +0.000 C 
BRANCH  24  25
ATOM     25  O   UNL     1       1.890  11.107  18.309  0.00  0.00    +0.000 OA
ATOM     26  C   UNL     1       0.906  11.412  19.294  0.00  0.00    +0.000 C 
ENDBRANCH  24  25
ENDBRANCH  23  24
ENDBRANCH   8  23
TORSDOF 8
ENDMDL
MODEL 7
REMARK VINA RESULT:      -5.1      5.964      9.823
REMARK  Name = 
REMARK  11 active torsions:
REMARK  status: ('A' for Active; 'I' for Inactive)
REMARK    1  A    between atoms: C_2  and  C_3
REMARK    2  A    between atoms: C_3  and  N_4
REMARK    3  A    between atoms: C_7  and  C_8
REMARK    4  A    between atoms: C_14  and  C_15
REMARK    5  A    between atoms: C_15  and  O_17
REMARK    6  A    between atoms: O_17  and  C_18
REMARK    7  A    between atoms: C_19  and  C_20
REMARK    8  A    between atoms: N_21  and  C_22
REMARK    9  A    between atoms: C_22  and  C_23
REMARK   10  A    between atoms: C_23  and  O_24
REMARK   11  A    between atoms: O_24  and  C_25
REMARK                            x       y       z     vdW  Elec       q    Type
REMARK                         _______ _______ _______ _____ _____    ______ ____
ROOT
ATOM      1  N   UNL     1      -2.229  11.220  18.361  0.00  0.00    +0.000 N 
ATOM      2  C   UNL     1      -1.791  11.311  19.663  0.00  0.00    +0.000 C 
ATOM      3  N   UNL     1      -1.017  10.403  20.126  0.00  0.00    +0.000 NA
ATOM      4  C   UNL     1       0.306  10.895  20.592  0.00  0.00    +0.000 C 
ATOM      5  C   UNL     1       0.511  12.398  20.367  0.00  0.00    +0.000 C 
ATOM      6  C   UNL     1      -0.556  13.231  20.206  0.00  0.00    +0.000 C 
ATOM      7  C   UNL     1      -0.477  14.726  20.026  0.00  0.00    +0.000 C 
ATOM      8  N   UNL     1      -1.823  12.632  20.073  0.00  0.00    +0.000 N 
ATOM      9  H   UNL     1      -1.846  12.032  17.882  0.00  0.00    +0.000 HD
ENDROOT
BRANCH   4  10
ATOM     10  C   UNL     1       1.229   9.929  19.819  0.00  0.00    +0.000 A 
ATOM     11  C   UNL     1       1.402  10.052  18.428  0.00  0.00    +0.000 A 
ATOM     12  C   UNL     1       1.862   8.973  17.668  0.00  0.00    +0.000 A 
ATOM     13  C   UNL     1       2.178   7.765  18.289  0.00  0.00    +0.000 A 
ATOM     14  C   UNL     1       2.066   7.644  19.672  0.00  0.00    +0.000 A 
ATOM     15  C   UNL     1       1.595   8.716  20.433  0.00  0.00    +0.000 A 
ENDBRANCH   4  10
BRANCH   5  16
ATOM     16  C   UNL     1       1.892  12.892  20.177  0.00  0.00    +0.000 C 
ATOM     17  O   UNL     1       2.421  13.017  19.080  0.00  0.00    +0.000 OA
BRANCH  16  18
ATOM     18  O   UNL     1       2.501  13.098  21.368  0.00  0.00    +0.000 OA
ATOM     19  C   UNL     1       3.133  14.376  21.483  0.00  0.00    +0.000 C 
ENDBRANCH  16  18
ENDBRANCH   5  16
BRANCH   1  20
ATOM     20  C   UNL     1      -1.951  10.053  17.547  0.00  0.00    +0.000 C 
BRANCH  20  22
ATOM     21  C   UNL     1      -2.910   9.983  15.249  0.00  0.00    +0.000 C 
ATOM     22  C   UNL     1      -3.069   9.951  16.577  0.00  0.00    +0.000 C 
ENDBRANCH  20  22
ENDBRANCH   1  20
BRANCH   8  23
ATOM     23  C   UNL     1      -3.111  13.363  19.900  0.00  0.00    +0.000 C 
BRANCH  23  24
ATOM     24  C   UNL     1      -4.285  12.717  20.667  0.00  0.00    +0.000 C 
BRANCH  24  25
ATOM     25  O   UNL     1      -5.163  12.074  19.729  0.00  0.00    +0.000 OA
ATOM     26  C   UNL     1      -6.395  11.681  20.329  0.00  0.00    +0.000 C 
ENDBRANCH  24  25
ENDBRANCH  23  24
ENDBRANCH   8  23
TORSDOF 8
ENDMDL
MODEL 8
REMARK VINA RESULT:      -5.1      1.294      1.674
REMARK  Name = 
REMARK  11 active torsions:
REMARK  status: ('A' for Active; 'I' for Inactive)
REMARK    1  A    between atoms: C_2  and  C_3
REMARK    2  A    between atoms: C_3  and  N_4
REMARK    3  A    between atoms: C_7  and  C_8
REMARK    4  A    between atoms: C_14  and  C_15
REMARK    5  A    between atoms: C_15  and  O_17
REMARK    6  A    between atoms: O_17  and  C_18
REMARK    7  A    between atoms: C_19  and  C_20
REMARK    8  A    between atoms: N_21  and  C_22
REMARK    9  A    between atoms: C_22  and  C_23
REMARK   10  A    between atoms: C_23  and  O_24
REMARK   11  A    between atoms: O_24  and  C_25
REMARK                            x       y       z     vdW  Elec       q    Type
REMARK                         _______ _______ _______ _____ _____    ______ ____
ROOT
ATOM      1  N   UNL     1       3.944   6.724  17.573  0.00  0.00    +0.000 N 
ATOM      2  C   UNL     1       4.862   5.817  18.051  0.00  0.00    +0.000 C 
ATOM      3  N   UNL     1       4.758   5.401  19.257  0.00  0.00    +0.000 NA
ATOM      4  C   UNL     1       4.576   3.931  19.392  0.00  0.00    +0.000 C 
ATOM      5  C   UNL     1       4.484   3.202  18.047  0.00  0.00    +0.000 C 
ATOM      6  C   UNL     1       4.981   3.769  16.911  0.00  0.00    +0.000 C 
ATOM      7  C   UNL     1       4.989   3.128  15.546  0.00  0.00    +0.000 C 
ATOM      8  N   UNL     1       5.408   5.108  16.996  0.00  0.00    +0.000 N 
ATOM      9  H   UNL     1       3.453   6.251  16.818  0.00  0.00    +0.000 HD
ENDROOT
BRANCH   4  10
ATOM     10  C   UNL     1       3.328   3.908  20.300  0.00  0.00    +0.000 A 
ATOM     11  C   UNL     1       3.141   2.883  21.246  0.00  0.00    +0.000 A 
ATOM     12  C   UNL     1       1.868   2.603  21.752  0.00  0.00    +0.000 A 
ATOM     13  C   UNL     1       0.771   3.358  21.341  0.00  0.00    +0.000 A 
ATOM     14  C   UNL     1       0.947   4.413  20.449  0.00  0.00    +0.000 A 
ATOM     15  C   UNL     1       2.215   4.687  19.930  0.00  0.00    +0.000 A 
ENDBRANCH   4  10
BRANCH   5  16
ATOM     16  C   UNL     1       3.709   1.944  17.987  0.00  0.00    +0.000 C 
ATOM     17  O   UNL     1       4.154   0.858  18.338  0.00  0.00    +0.000 OA
BRANCH  16  18
ATOM     18  O   UNL     1       2.497   2.147  17.419  0.00  0.00    +0.000 OA
ATOM     19  C   UNL     1       1.401   1.676  18.209  0.00  0.00    +0.000 C 
ENDBRANCH  16  18
ENDBRANCH   5  16
BRANCH   1  20
ATOM     20  C   UNL     1       2.949   7.325  18.440  0.00  0.00    +0.000 C 
BRANCH  20  22
ATOM     21  C   UNL     1       1.377   9.229  18.106  0.00  0.00    +0.000 C 
ATOM     22  C   UNL     1       2.447   8.522  17.722  0.00  0.00    +0.000 C 
ENDBRANCH  20  22
ENDBRANCH   1  20
BRANCH   8  23
ATOM     23  C   UNL     1       5.990   5.903  15.877  0.00  0.00    +0.000 C 
BRANCH  23  24
ATOM     24  C   UNL     1       7.253   5.259  15.265  0.00  0.00    +0.000 C 
BRANCH  24  25
ATOM     25  O   UNL     1       7.304   5.565  13.861  0.00  0.00    +0.000 OA
ATOM     26  C   UNL     1       7.150   4.401  13.053  0.00  0.00    +0.000 C 
ENDBRANCH  24  25
ENDBRANCH  23  24
ENDBRANCH   8  23
TORSDOF 8
ENDMDL
MODEL 9
REMARK VINA RESULT:      -5.1      2.351      4.557
REMARK  Name = 
REMARK  11 active torsions:
REMARK  status: ('A' for Active; 'I' for Inactive)
REMARK    1  A    between atoms: C_2  and  C_3
REMARK    2  A    between atoms: C_3  and  N_4
REMARK    3  A    between atoms: C_7  and  C_8
REMARK    4  A    between atoms: C_14  and  C_15
REMARK    5  A    between atoms: C_15  and  O_17
REMARK    6  A    between atoms: O_17  and  C_18
REMARK    7  A    between atoms: C_19  and  C_20
REMARK    8  A    between atoms: N_21  and  C_22
REMARK    9  A    between atoms: C_22  and  C_23
REMARK   10  A    between atoms: C_23  and  O_24
REMARK   11  A    between atoms: O_24  and  C_25
REMARK                            x       y       z     vdW  Elec       q    Type
REMARK                         _______ _______ _______ _____ _____    ______ ____
ROOT
ATOM      1  N   UNL     1       5.303   3.088  17.786  0.00  0.00    +0.000 N 
ATOM      2  C   UNL     1       4.501   3.796  16.919  0.00  0.00    +0.000 C 
ATOM      3  N   UNL     1       3.234   3.626  16.963  0.00  0.00    +0.000 NA
ATOM      4  C   UNL     1       2.454   4.855  17.268  0.00  0.00    +0.000 C 
ATOM      5  C   UNL     1       3.333   6.083  17.534  0.00  0.00    +0.000 C 
ATOM      6  C   UNL     1       4.618   6.134  17.080  0.00  0.00    +0.000 C 
ATOM      7  C   UNL     1       5.555   7.303  17.242  0.00  0.00    +0.000 C 
ATOM      8  N   UNL     1       5.149   4.953  16.528  0.00  0.00    +0.000 N 
ATOM      9  H   UNL     1       5.753   3.782  18.378  0.00  0.00    +0.000 HD
ENDROOT
BRANCH   4  10
ATOM     10  C   UNL     1       1.591   4.332  18.435  0.00  0.00    +0.000 A 
ATOM     11  C   UNL     1       1.657   4.930  19.707  0.00  0.00    +0.000 A 
ATOM     12  C   UNL     1       1.237   4.235  20.845  0.00  0.00    +0.000 A 
ATOM     13  C   UNL     1       0.723   2.945  20.725  0.00  0.00    +0.000 A 
ATOM     14  C   UNL     1       0.598   2.360  19.467  0.00  0.00    +0.000 A 
ATOM     15  C   UNL     1       1.029   3.046  18.329  0.00  0.00    +0.000 A 
ENDBRANCH   4  10
BRANCH   5  16
ATOM     16  C   UNL     1       2.803   7.140  18.423  0.00  0.00    +0.000 C 
ATOM     17  O   UNL     1       3.101   7.242  19.606  0.00  0.00    +0.000 OA
BRANCH  16  18
ATOM     18  O   UNL     1       1.894   7.907  17.776  0.00  0.00    +0.000 OA
ATOM     19  C   UNL     1       1.984   9.300  18.087  0.00  0.00    +0.000 C 
ENDBRANCH  16  18
ENDBRANCH   5  16
BRANCH   1  20
ATOM     20  C   UNL     1       4.762   2.056  18.648  0.00  0.00    +0.000 C 
BRANCH  20  22
ATOM     21  C   UNL     1       4.163   2.023  21.066  0.00  0.00    +0.000 C 
ATOM     22  C   UNL     1       4.587   2.682  19.981  0.00  0.00    +0.000 C 
ENDBRANCH  20  22
ENDBRANCH   1  20
BRANCH   8  23
ATOM     23  C   UNL     1       6.523   4.804  15.968  0.00  0.00    +0.000 C 
BRANCH  23  24
ATOM     24  C   UNL     1       6.555   4.811  14.424  0.00  0.00    +0.000 C 
BRANCH  24  25
ATOM     25  O   UNL     1       6.259   3.490  13.941  0.00  0.00    +0.000 OA
ATOM     26  C   UNL     1       6.027   3.473  12.535  0.00  0.00    +0.000 C 
ENDBRANCH  24  25
ENDBRANCH  23  24
ENDBRANCH   8  23
TORSDOF 8
ENDMDL
