MODEL 1
REMARK VINA RESULT:      -8.7      0.000      0.000
REMARK  Name = 
REMARK  2 active torsions:
REMARK  status: ('A' for Active; 'I' for Inactive)
REMARK    1  A    between atoms: N_1  and  C_2
REMARK    2  A    between atoms: C_5  and  C_6
REMARK                            x       y       z     vdW  Elec       q    Type
REMARK                         _______ _______ _______ _____ _____    ______ ____
ROOT
ATOM      1  C   UNL     1       3.315   5.820  19.491  0.00  0.00    +0.000 C 
ATOM      2  C   UNL     1       2.575   4.518  19.241  0.00  0.00    +0.000 A 
ATOM      3  C   UNL     1       1.289   4.181  19.654  0.00  0.00    +0.000 A 
ATOM      4  C   UNL     1       0.776   2.937  19.299  0.00  0.00    +0.000 A 
ATOM      5  C   UNL     1       1.558   2.028  18.578  0.00  0.00    +0.000 A 
ATOM      6  C   UNL     1       2.869   2.348  18.213  0.00  0.00    +0.000 A 
ATOM      7  C   UNL     1       3.368   3.601  18.540  0.00  0.00    +0.000 A 
ATOM      8  C   UNL     1       4.763   4.141  18.367  0.00  0.00    +0.000 C 
ATOM      9  N   UNL     1       5.487   3.699  17.178  0.00  0.00    +0.000 NA
ATOM     10  C   UNL     1       5.110   4.394  15.957  0.00  0.00    +0.000 C 
ATOM     11  C   UNL     1       5.350   5.886  16.123  0.00  0.00    +0.000 C 
ATOM     12  C   UNL     1       4.417   6.425  17.194  0.00  0.00    +0.000 C 
ATOM     13  C   UNL     1       4.555   5.675  18.535  0.00  0.00    +0.000 C 
ATOM     14  H   UNL     1       5.374   2.695  17.058  0.00  0.00    +0.000 HD
ENDROOT
BRANCH   1  18
ATOM     15  C   UNL     1       1.038   9.497  18.979  0.00  0.00    +0.000 A 
ATOM     16  C   UNL     1       1.175   8.903  20.237  0.00  0.00    +0.000 A 
ATOM     17  C   UNL     1       1.874   7.700  20.399  0.00  0.00    +0.000 A 
ATOM     18  C   UNL     1       2.485   7.081  19.302  0.00  0.00    +0.000 A 
ATOM     19  C   UNL     1       2.362   7.699  18.046  0.00  0.00    +0.000 A 
ATOM     20  C   UNL     1       1.672   8.900  17.893  0.00  0.00    +0.000 A 
BRANCH  15  21
ATOM     21  N   UNL     1       0.491  10.780  18.848  0.00  0.00    +0.000 N 
ATOM     22  H   UNL     1       1.184  11.511  18.762  0.00  0.00    +0.000 HD
ATOM     23  H   UNL     1      -0.218  10.993  19.544  0.00  0.00    +0.000 HD
ENDBRANCH  15  21
ENDBRANCH   1  18
TORSDOF 2
ENDMDL
MODEL 2
REMARK VINA RESULT:      -8.6      0.148      1.083
REMARK  Name = 
REMARK  2 active torsions:
REMARK  status: ('A' for Active; 'I' for Inactive)
REMARK    1  A    between atoms: N_1  and  C_2
REMARK    2  A    between atoms: C_5  and  C_6
REMARK                            x       y       z     vdW  Elec       q    Type
REMARK                         _______ _______ _______ _____ _____    ______ ____
ROOT
ATOM      1  C   UNL     1       3.347   5.834  19.510  0.00  0.00    +0.000 C 
ATOM      2  C   UNL     1       2.559   4.556  19.284  0.00  0.00    +0.000 A 
ATOM      3  C   UNL     1       1.270   4.268  19.722  0.00  0.00    +0.000 A 
ATOM      4  C   UNL     1       0.707   3.039  19.387  0.00  0.00    +0.000 A 
ATOM      5  C   UNL     1       1.445   2.097  18.662  0.00  0.00    +0.000 A 
ATOM      6  C   UNL     1       2.760   2.368  18.272  0.00  0.00    +0.000 A 
ATOM      7  C   UNL     1       3.308   3.607  18.579  0.00  0.00    +0.000 A 
ATOM      8  C   UNL     1       4.717   4.095  18.377  0.00  0.00    +0.000 C 
ATOM      9  N   UNL     1       5.404   3.618  17.181  0.00  0.00    +0.000 NA
ATOM     10  C   UNL     1       5.032   4.316  15.959  0.00  0.00    +0.000 C 
ATOM     11  C   UNL     1       5.326   5.799  16.108  0.00  0.00    +0.000 C 
ATOM     12  C   UNL     1       4.430   6.380  17.189  0.00  0.00    +0.000 C 
ATOM     13  C   UNL     1       4.565   5.638  18.534  0.00  0.00    +0.000 C 
ATOM     14  H   UNL     1       5.256   2.618  17.072  0.00  0.00    +0.000 HD
ENDROOT
BRANCH   1  18
ATOM     15  C   UNL     1       0.990   9.452  18.947  0.00  0.00    +0.000 A 
ATOM     16  C   UNL     1       1.625   8.830  17.867  0.00  0.00    +0.000 A 
ATOM     17  C   UNL     1       2.415   7.688  18.051  0.00  0.00    +0.000 A 
ATOM     18  C   UNL     1       2.558   7.121  19.323  0.00  0.00    +0.000 A 
ATOM     19  C   UNL     1       1.896   7.741  20.397  0.00  0.00    +0.000 A 
ATOM     20  C   UNL     1       1.106   8.872  20.207  0.00  0.00    +0.000 A 
BRANCH  15  21
ATOM     21  N   UNL     1       0.067  10.485  18.737  0.00  0.00    +0.000 N 
ATOM     22  H   UNL     1      -0.025  10.758  17.767  0.00  0.00    +0.000 HD
ATOM     23  H   UNL     1       0.198  11.280  19.356  0.00  0.00    +0.000 HD
ENDBRANCH  15  21
ENDBRANCH   1  18
TORSDOF 2
ENDMDL
MODEL 3
REMARK VINA RESULT:      -8.2      1.418      3.689
REMARK  Name = 
REMARK  2 active torsions:
REMARK  status: ('A' for Active; 'I' for Inactive)
REMARK    1  A    between atoms: N_1  and  C_2
REMARK    2  A    between atoms: C_5  and  C_6
REMARK                            x       y       z     vdW  Elec       q    Type
REMARK                         _______ _______ _______ _____ _____    ______ ____
ROOT
ATOM      1  C   UNL     1       3.098   5.899  17.698  0.00  0.00    +0.000 C 
ATOM      2  C   UNL     1       4.615   5.890  17.655  0.00  0.00    +0.000 A 
ATOM      3  C   UNL     1       5.462   6.975  17.450  0.00  0.00    +0.000 A 
ATOM      4  C   UNL     1       6.838   6.765  17.472  0.00  0.00    +0.000 A 
ATOM      5  C   UNL     1       7.354   5.477  17.653  0.00  0.00    +0.000 A 
ATOM      6  C   UNL     1       6.499   4.380  17.804  0.00  0.00    +0.000 A 
ATOM      7  C   UNL     1       5.128   4.598  17.814  0.00  0.00    +0.000 A 
ATOM      8  C   UNL     1       4.010   3.590  17.843  0.00  0.00    +0.000 C 
ATOM      9  N   UNL     1       4.247   2.379  18.623  0.00  0.00    +0.000 NA
ATOM     10  C   UNL     1       4.077   2.549  20.058  0.00  0.00    +0.000 C 
ATOM     11  C   UNL     1       2.664   3.025  20.352  0.00  0.00    +0.000 C 
ATOM     12  C   UNL     1       2.471   4.410  19.759  0.00  0.00    +0.000 C 
ATOM     13  C   UNL     1       2.783   4.459  18.250  0.00  0.00    +0.000 C 
ATOM     14  H   UNL     1       5.176   2.015  18.421  0.00  0.00    +0.000 HD
ENDROOT
BRANCH   1  18
ATOM     15  C   UNL     1       1.216   9.150  19.901  0.00  0.00    +0.000 A 
ATOM     16  C   UNL     1       1.460   9.256  18.529  0.00  0.00    +0.000 A 
ATOM     17  C   UNL     1       2.099   8.227  17.825  0.00  0.00    +0.000 A 
ATOM     18  C   UNL     1       2.479   7.049  18.478  0.00  0.00    +0.000 A 
ATOM     19  C   UNL     1       2.208   6.944  19.854  0.00  0.00    +0.000 A 
ATOM     20  C   UNL     1       1.565   7.967  20.546  0.00  0.00    +0.000 A 
BRANCH  15  21
ATOM     21  N   UNL     1       0.427  10.099  20.563  0.00  0.00    +0.000 N 
ATOM     22  H   UNL     1      -0.095  10.701  19.941  0.00  0.00    +0.000 HD
ATOM     23  H   UNL     1       0.929  10.620  21.278  0.00  0.00    +0.000 HD
ENDBRANCH  15  21
ENDBRANCH   1  18
TORSDOF 2
ENDMDL
MODEL 4
REMARK VINA RESULT:      -8.2      1.426      3.582
REMARK  Name = 
REMARK  2 active torsions:
REMARK  status: ('A' for Active; 'I' for Inactive)
REMARK    1  A    between atoms: N_1  and  C_2
REMARK    2  A    between atoms: C_5  and  C_6
REMARK                            x       y       z     vdW  Elec       q    Type
REMARK                         _______ _______ _______ _____ _____    ______ ____
ROOT
ATOM      1  C   UNL     1       3.195   5.881  17.573  0.00  0.00    +0.000 C 
ATOM      2  C   UNL     1       4.711   5.928  17.616  0.00  0.00    +0.000 A 
ATOM      3  C   UNL     1       5.528   7.045  17.470  0.00  0.00    +0.000 A 
ATOM      4  C   UNL     1       6.908   6.884  17.568  0.00  0.00    +0.000 A 
ATOM      5  C   UNL     1       7.460   5.614  17.766  0.00  0.00    +0.000 A 
ATOM      6  C   UNL     1       6.639   4.485  17.857  0.00  0.00    +0.000 A 
ATOM      7  C   UNL     1       5.262   4.653  17.791  0.00  0.00    +0.000 A 
ATOM      8  C   UNL     1       4.182   3.606  17.747  0.00  0.00    +0.000 C 
ATOM      9  N   UNL     1       4.419   2.395  18.527  0.00  0.00    +0.000 NA
ATOM     10  C   UNL     1       4.162   2.541  19.951  0.00  0.00    +0.000 C 
ATOM     11  C   UNL     1       2.718   2.962  20.169  0.00  0.00    +0.000 C 
ATOM     12  C   UNL     1       2.508   4.346  19.580  0.00  0.00    +0.000 C 
ATOM     13  C   UNL     1       2.902   4.425  18.091  0.00  0.00    +0.000 C 
ATOM     14  H   UNL     1       5.370   2.066  18.375  0.00  0.00    +0.000 HD
ENDROOT
BRANCH   1  18
ATOM     15  C   UNL     1       1.291   9.132  19.757  0.00  0.00    +0.000 A 
ATOM     16  C   UNL     1       1.753   7.991  20.420  0.00  0.00    +0.000 A 
ATOM     17  C   UNL     1       2.331   6.928  19.716  0.00  0.00    +0.000 A 
ATOM     18  C   UNL     1       2.492   6.999  18.327  0.00  0.00    +0.000 A 
ATOM     19  C   UNL     1       2.046   8.161  17.673  0.00  0.00    +0.000 A 
ATOM     20  C   UNL     1       1.480   9.219  18.381  0.00  0.00    +0.000 A 
BRANCH  15  21
ATOM     21  N   UNL     1       0.875  10.260  20.476  0.00  0.00    +0.000 N 
ATOM     22  H   UNL     1       0.634  11.049  19.892  0.00  0.00    +0.000 HD
ATOM     23  H   UNL     1       1.501  10.512  21.236  0.00  0.00    +0.000 HD
ENDBRANCH  15  21
ENDBRANCH   1  18
TORSDOF 2
ENDMDL
MODEL 5
REMARK VINA RESULT:      -8.0      2.299      5.740
REMARK  Name = 
REMARK  2 active torsions:
REMARK  status: ('A' for Active; 'I' for Inactive)
REMARK    1  A    between atoms: N_1  and  C_2
REMARK    2  A    between atoms: C_5  and  C_6
REMARK                            x       y       z     vdW  Elec       q    Type
REMARK                         _______ _______ _______ _____ _____    ______ ____
ROOT
ATOM      1  C   UNL     1       5.311   4.942  18.004  0.00  0.00    +0.000 C 
ATOM      2  C   UNL     1       4.233   6.000  18.159  0.00  0.00    +0.000 A 
ATOM      3  C   UNL     1       4.147   7.224  17.501  0.00  0.00    +0.000 A 
ATOM      4  C   UNL     1       3.057   8.050  17.764  0.00  0.00    +0.000 A 
ATOM      5  C   UNL     1       2.094   7.673  18.706  0.00  0.00    +0.000 A 
ATOM      6  C   UNL     1       2.214   6.469  19.406  0.00  0.00    +0.000 A 
ATOM      7  C   UNL     1       3.283   5.631  19.119  0.00  0.00    +0.000 A 
ATOM      8  C   UNL     1       3.697   4.356  19.802  0.00  0.00    +0.000 C 
ATOM      9  N   UNL     1       2.619   3.504  20.295  0.00  0.00    +0.000 NA
ATOM     10  C   UNL     1       1.978   2.697  19.268  0.00  0.00    +0.000 C 
ATOM     11  C   UNL     1       3.011   1.805  18.600  0.00  0.00    +0.000 C 
ATOM     12  C   UNL     1       4.015   2.672  17.859  0.00  0.00    +0.000 C 
ATOM     13  C   UNL     1       4.679   3.723  18.771  0.00  0.00    +0.000 C 
ATOM     14  H   UNL     1       1.925   4.069  20.779  0.00  0.00    +0.000 HD
ENDROOT
BRANCH   1  18
ATOM     15  C   UNL     1       6.512   4.260  13.874  0.00  0.00    +0.000 A 
ATOM     16  C   UNL     1       5.186   4.081  14.278  0.00  0.00    +0.000 A 
ATOM     17  C   UNL     1       4.804   4.264  15.613  0.00  0.00    +0.000 A 
ATOM     18  C   UNL     1       5.742   4.664  16.572  0.00  0.00    +0.000 A 
ATOM     19  C   UNL     1       7.068   4.863  16.151  0.00  0.00    +0.000 A 
ATOM     20  C   UNL     1       7.440   4.689  14.820  0.00  0.00    +0.000 A 
BRANCH  15  21
ATOM     21  N   UNL     1       6.856   4.246  12.517  0.00  0.00    +0.000 N 
ATOM     22  H   UNL     1       6.528   3.428  12.021  0.00  0.00    +0.000 HD
ATOM     23  H   UNL     1       7.839   4.440  12.343  0.00  0.00    +0.000 HD
ENDBRANCH  15  21
ENDBRANCH   1  18
TORSDOF 2
ENDMDL
MODEL 6
REMARK VINA RESULT:      -8.0      2.304      5.741
REMARK  Name = 
REMARK  2 active torsions:
REMARK  status: ('A' for Active; 'I' for Inactive)
REMARK    1  A    between atoms: N_1  and  C_2
REMARK    2  A    between atoms: C_5  and  C_6
REMARK                            x       y       z     vdW  Elec       q    Type
REMARK                         _______ _______ _______ _____ _____    ______ ____
ROOT
ATOM      1  C   UNL     1       5.317   5.043  17.888  0.00  0.00    +0.000 C 
ATOM      2  C   UNL     1       4.218   6.063  18.123  0.00  0.00    +0.000 A 
ATOM      3  C   UNL     1       4.066   7.301  17.505  0.00  0.00    +0.000 A 
ATOM      4  C   UNL     1       2.966   8.086  17.841  0.00  0.00    +0.000 A 
ATOM      5  C   UNL     1       2.058   7.654  18.814  0.00  0.00    +0.000 A 
ATOM      6  C   UNL     1       2.245   6.435  19.473  0.00  0.00    +0.000 A 
ATOM      7  C   UNL     1       3.324   5.639  19.113  0.00  0.00    +0.000 A 
ATOM      8  C   UNL     1       3.806   4.357  19.739  0.00  0.00    +0.000 C 
ATOM      9  N   UNL     1       2.776   3.460  20.255  0.00  0.00    +0.000 NA
ATOM     10  C   UNL     1       2.112   2.663  19.234  0.00  0.00    +0.000 C 
ATOM     11  C   UNL     1       3.139   1.822  18.494  0.00  0.00    +0.000 C 
ATOM     12  C   UNL     1       4.082   2.739  17.735  0.00  0.00    +0.000 C 
ATOM     13  C   UNL     1       4.757   3.784  18.647  0.00  0.00    +0.000 C 
ATOM     14  H   UNL     1       2.089   3.990  20.786  0.00  0.00    +0.000 HD
ENDROOT
BRANCH   1  18
ATOM     15  C   UNL     1       6.418   4.283  13.744  0.00  0.00    +0.000 A 
ATOM     16  C   UNL     1       7.369   4.709  14.675  0.00  0.00    +0.000 A 
ATOM     17  C   UNL     1       7.011   4.990  16.000  0.00  0.00    +0.000 A 
ATOM     18  C   UNL     1       5.690   4.818  16.431  0.00  0.00    +0.000 A 
ATOM     19  C   UNL     1       4.746   4.367  15.491  0.00  0.00    +0.000 A 
ATOM     20  C   UNL     1       5.111   4.080  14.178  0.00  0.00    +0.000 A 
BRANCH  15  21
ATOM     21  N   UNL     1       6.808   3.839  12.474  0.00  0.00    +0.000 N 
ATOM     22  H   UNL     1       6.527   4.455  11.723  0.00  0.00    +0.000 HD
ATOM     23  H   UNL     1       6.572   2.868  12.292  0.00  0.00    +0.000 HD
ENDBRANCH  15  21
ENDBRANCH   1  18
TORSDOF 2
ENDMDL
MODEL 7
REMARK VINA RESULT:      -7.9      2.478      5.192
REMARK  Name = 
REMARK  2 active torsions:
REMARK  status: ('A' for Active; 'I' for Inactive)
REMARK    1  A    between atoms: N_1  and  C_2
REMARK    2  A    between atoms: C_5  and  C_6
REMARK                            x       y       z     vdW  Elec       q    Type
REMARK                         _______ _______ _______ _____ _____    ______ ____
ROOT
ATOM      1  C   UNL     1       4.825   4.673  19.239  0.00  0.00    +0.000 C 
ATOM      2  C   UNL     1       3.631   5.555  19.553  0.00  0.00    +0.000 A 
ATOM      3  C   UNL     1       3.500   6.920  19.313  0.00  0.00    +0.000 A 
ATOM      4  C   UNL     1       2.304   7.548  19.652  0.00  0.00    +0.000 A 
ATOM      5  C   UNL     1       1.274   6.825  20.265  0.00  0.00    +0.000 A 
ATOM      6  C   UNL     1       1.431   5.467  20.556  0.00  0.00    +0.000 A 
ATOM      7  C   UNL     1       2.611   4.835  20.187  0.00  0.00    +0.000 A 
ATOM      8  C   UNL     1       3.068   3.432  20.485  0.00  0.00    +0.000 C 
ATOM      9  N   UNL     1       2.032   2.404  20.508  0.00  0.00    +0.000 NA
ATOM     10  C   UNL     1       1.616   1.944  19.192  0.00  0.00    +0.000 C 
ATOM     11  C   UNL     1       2.815   1.384  18.444  0.00  0.00    +0.000 C 
ATOM     12  C   UNL     1       3.807   2.505  18.182  0.00  0.00    +0.000 C 
ATOM     13  C   UNL     1       4.234   3.234  19.472  0.00  0.00    +0.000 C 
ATOM     14  H   UNL     1       1.226   2.736  21.034  0.00  0.00    +0.000 HD
ENDROOT
BRANCH   1  18
ATOM     15  C   UNL     1       6.625   5.228  15.312  0.00  0.00    +0.000 A 
ATOM     16  C   UNL     1       7.372   4.729  16.383  0.00  0.00    +0.000 A 
ATOM     17  C   UNL     1       6.806   4.585  17.657  0.00  0.00    +0.000 A 
ATOM     18  C   UNL     1       5.462   4.907  17.878  0.00  0.00    +0.000 A 
ATOM     19  C   UNL     1       4.714   5.386  16.788  0.00  0.00    +0.000 A 
ATOM     20  C   UNL     1       5.280   5.518  15.522  0.00  0.00    +0.000 A 
BRANCH  15  21
ATOM     21  N   UNL     1       7.139   5.207  14.010  0.00  0.00    +0.000 N 
ATOM     22  H   UNL     1       8.015   5.703  13.910  0.00  0.00    +0.000 HD
ATOM     23  H   UNL     1       6.460   5.468  13.299  0.00  0.00    +0.000 HD
ENDBRANCH  15  21
ENDBRANCH   1  18
TORSDOF 2
ENDMDL
MODEL 8
REMARK VINA RESULT:      -7.8      2.469      5.284
REMARK  Name = 
REMARK  2 active torsions:
REMARK  status: ('A' for Active; 'I' for Inactive)
REMARK    1  A    between atoms: N_1  and  C_2
REMARK    2  A    between atoms: C_5  and  C_6
REMARK                            x       y       z     vdW  Elec       q    Type
REMARK                         _______ _______ _______ _____ _____    ______ ____
ROOT
ATOM      1  C   UNL     1       4.833   4.580  19.246  0.00  0.00    +0.000 C 
ATOM      2  C   UNL     1       3.671   5.523  19.496  0.00  0.00    +0.000 A 
ATOM      3  C   UNL     1       3.598   6.878  19.186  0.00  0.00    +0.000 A 
ATOM      4  C   UNL     1       2.424   7.569  19.474  0.00  0.00    +0.000 A 
ATOM      5  C   UNL     1       1.357   6.919  20.103  0.00  0.00    +0.000 A 
ATOM      6  C   UNL     1       1.454   5.572  20.464  0.00  0.00    +0.000 A 
ATOM      7  C   UNL     1       2.613   4.876  20.146  0.00  0.00    +0.000 A 
ATOM      8  C   UNL     1       3.009   3.473  20.521  0.00  0.00    +0.000 C 
ATOM      9  N   UNL     1       1.932   2.489  20.577  0.00  0.00    +0.000 NA
ATOM     10  C   UNL     1       1.518   1.981  19.278  0.00  0.00    +0.000 C 
ATOM     11  C   UNL     1       2.704   1.338  18.579  0.00  0.00    +0.000 C 
ATOM     12  C   UNL     1       3.744   2.404  18.279  0.00  0.00    +0.000 C 
ATOM     13  C   UNL     1       4.181   3.179  19.539  0.00  0.00    +0.000 C 
ATOM     14  H   UNL     1       1.133   2.878  21.072  0.00  0.00    +0.000 HD
ENDROOT
BRANCH   1  18
ATOM     15  C   UNL     1       6.759   5.104  15.375  0.00  0.00    +0.000 A 
ATOM     16  C   UNL     1       5.395   5.361  15.542  0.00  0.00    +0.000 A 
ATOM     17  C   UNL     1       4.765   5.158  16.776  0.00  0.00    +0.000 A 
ATOM     18  C   UNL     1       5.499   4.721  17.885  0.00  0.00    +0.000 A 
ATOM     19  C   UNL     1       6.875   4.488  17.712  0.00  0.00    +0.000 A 
ATOM     20  C   UNL     1       7.497   4.701  16.484  0.00  0.00    +0.000 A 
BRANCH  15  21
ATOM     21  N   UNL     1       7.417   5.471  14.194  0.00  0.00    +0.000 N 
ATOM     22  H   UNL     1       8.252   6.022  14.348  0.00  0.00    +0.000 HD
ATOM     23  H   UNL     1       6.803   5.880  13.495  0.00  0.00    +0.000 HD
ENDBRANCH  15  21
ENDBRANCH   1  18
TORSDOF 2
ENDMDL
MODEL 9
REMARK VINA RESULT:      -7.4      3.110      7.931
REMARK  Name = 
REMARK  2 active torsions:
REMARK  status: ('A' for Active; 'I' for Inactive)
REMARK    1  A    between atoms: N_1  and  C_2
REMARK    2  A    between atoms: C_5  and  C_6
REMARK                            x       y       z     vdW  Elec       q    Type
REMARK                         _______ _______ _______ _____ _____    ______ ____
ROOT
ATOM      1  C   UNL     1       0.106  10.421  19.690  0.00  0.00    +0.000 C 
ATOM      2  C   UNL     1       0.528  11.844  19.375  0.00  0.00    +0.000 A 
ATOM      3  C   UNL     1       1.781  12.419  19.569  0.00  0.00    +0.000 A 
ATOM      4  C   UNL     1       1.977  13.744  19.188  0.00  0.00    +0.000 A 
ATOM      5  C   UNL     1       0.918  14.493  18.662  0.00  0.00    +0.000 A 
ATOM      6  C   UNL     1      -0.353  13.929  18.521  0.00  0.00    +0.000 A 
ATOM      7  C   UNL     1      -0.538  12.598  18.871  0.00  0.00    +0.000 A 
ATOM      8  C   UNL     1      -1.813  11.801  18.922  0.00  0.00    +0.000 C 
ATOM      9  N   UNL     1      -2.813  12.109  17.903  0.00  0.00    +0.000 NA
ATOM     10  C   UNL     1      -2.543  11.515  16.602  0.00  0.00    +0.000 C 
ATOM     11  C   UNL     1      -2.462  10.003  16.737  0.00  0.00    +0.000 C 
ATOM     12  C   UNL     1      -1.264   9.643  17.598  0.00  0.00    +0.000 C 
ATOM     13  C   UNL     1      -1.293  10.334  18.977  0.00  0.00    +0.000 C 
ATOM     14  H   UNL     1      -2.916  13.117  17.813  0.00  0.00    +0.000 HD
ENDROOT
BRANCH   1  18
ATOM     15  C   UNL     1       2.887   7.279  18.523  0.00  0.00    +0.000 A 
ATOM     16  C   UNL     1       2.254   7.255  19.769  0.00  0.00    +0.000 A 
ATOM     17  C   UNL     1       1.388   8.283  20.162  0.00  0.00    +0.000 A 
ATOM     18  C   UNL     1       1.110   9.347  19.296  0.00  0.00    +0.000 A 
ATOM     19  C   UNL     1       1.734   9.349  18.036  0.00  0.00    +0.000 A 
ATOM     20  C   UNL     1       2.587   8.319  17.648  0.00  0.00    +0.000 A 
BRANCH  15  21
ATOM     21  N   UNL     1       3.611   6.170  18.066  0.00  0.00    +0.000 N 
ATOM     22  H   UNL     1       3.029   5.409  17.741  0.00  0.00    +0.000 HD
ATOM     23  H   UNL     1       4.334   5.861  18.711  0.00  0.00    +0.000 HD
ENDBRANCH  15  21
ENDBRANCH   1  18
TORSDOF 2
ENDMDL
