MODEL 1
REMARK VINA RESULT:      -8.1      0.000      0.000
REMARK  Name = 
REMARK  2 active torsions:
REMARK  status: ('A' for Active; 'I' for Inactive)
REMARK    1  A    between atoms: C_1  and  O_2
REMARK    2  A    between atoms: O_2  and  C_3
REMARK                            x       y       z     vdW  Elec       q    Type
REMARK                         _______ _______ _______ _____ _____    ______ ____
ROOT
ATOM      1  C   UNL     1       6.597   4.627  14.958  0.00  0.00    +0.000 A 
ATOM      2  C   UNL     1       7.603   4.681  15.956  0.00  0.00    +0.000 A 
ATOM      3  C   UNL     1       7.285   4.500  17.317  0.00  0.00    +0.000 A 
ATOM      4  C   UNL     1       5.953   4.260  17.648  0.00  0.00    +0.000 A 
ATOM      5  N   UNL     1       5.437   4.022  18.876  0.00  0.00    +0.000 N 
ATOM      6  C   UNL     1       4.115   3.817  18.670  0.00  0.00    +0.000 A 
ATOM      7  C   UNL     1       3.795   3.949  17.334  0.00  0.00    +0.000 A 
ATOM      8  C   UNL     1       2.497   3.790  16.856  0.00  0.00    +0.000 A 
ATOM      9  C   UNL     1       1.491   3.464  17.781  0.00  0.00    +0.000 A 
ATOM     10  C   UNL     1       1.805   3.300  19.153  0.00  0.00    +0.000 A 
ATOM     11  C   UNL     1       0.824   2.934  20.081  0.00  0.00    +0.000 A 
ATOM     12  C   UNL     1       1.169   2.756  21.422  0.00  0.00    +0.000 A 
ATOM     13  C   UNL     1       2.493   2.954  21.829  0.00  0.00    +0.000 A 
ATOM     14  N   UNL     1       3.442   3.315  20.924  0.00  0.00    +0.000 NA
ATOM     15  C   UNL     1       3.137   3.487  19.610  0.00  0.00    +0.000 A 
ATOM     16  C   UNL     1       4.972   4.220  16.684  0.00  0.00    +0.000 A 
ATOM     17  C   UNL     1       5.250   4.402  15.335  0.00  0.00    +0.000 A 
ATOM     18  H   UNL     1       5.953   3.983  19.783  0.00  0.00    +0.000 HD
ENDROOT
BRANCH   1  20
ATOM     19  C   UNL     1       6.626   3.914  12.635  0.00  0.00    +0.000 C 
ATOM     20  O   UNL     1       6.963   4.779  13.658  0.00  0.00    +0.000 OA
ENDBRANCH   1  20
TORSDOF 1
ENDMDL
MODEL 2
REMARK VINA RESULT:      -7.6      1.041      1.045
REMARK  Name = 
REMARK  2 active torsions:
REMARK  status: ('A' for Active; 'I' for Inactive)
REMARK    1  A    between atoms: C_1  and  O_2
REMARK    2  A    between atoms: O_2  and  C_3
REMARK                            x       y       z     vdW  Elec       q    Type
REMARK                         _______ _______ _______ _____ _____    ______ ____
ROOT
ATOM      1  C   UNL     1       6.963   5.459  15.625  0.00  0.00    +0.000 A 
ATOM      2  C   UNL     1       7.485   6.229  16.694  0.00  0.00    +0.000 A 
ATOM      3  C   UNL     1       6.863   6.229  17.960  0.00  0.00    +0.000 A 
ATOM      4  C   UNL     1       5.725   5.443  18.125  0.00  0.00    +0.000 A 
ATOM      5  N   UNL     1       4.999   5.267  19.253  0.00  0.00    +0.000 N 
ATOM      6  C   UNL     1       4.022   4.393  18.913  0.00  0.00    +0.000 A 
ATOM      7  C   UNL     1       4.114   4.043  17.582  0.00  0.00    +0.000 A 
ATOM      8  C   UNL     1       3.223   3.158  16.979  0.00  0.00    +0.000 A 
ATOM      9  C   UNL     1       2.213   2.596  17.777  0.00  0.00    +0.000 A 
ATOM     10  C   UNL     1       2.119   2.925  19.151  0.00  0.00    +0.000 A 
ATOM     11  C   UNL     1       1.145   2.343  19.970  0.00  0.00    +0.000 A 
ATOM     12  C   UNL     1       1.093   2.670  21.327  0.00  0.00    +0.000 A 
ATOM     13  C   UNL     1       2.011   3.584  21.855  0.00  0.00    +0.000 A 
ATOM     14  N   UNL     1       2.953   4.151  21.054  0.00  0.00    +0.000 NA
ATOM     15  C   UNL     1       3.033   3.845  19.731  0.00  0.00    +0.000 A 
ATOM     16  C   UNL     1       5.207   4.705  17.085  0.00  0.00    +0.000 A 
ATOM     17  C   UNL     1       5.791   4.689  15.825  0.00  0.00    +0.000 A 
ATOM     18  H   UNL     1       5.171   5.696  20.190  0.00  0.00    +0.000 HD
ENDROOT
BRANCH   1  20
ATOM     19  C   UNL     1       7.228   4.774  13.309  0.00  0.00    +0.000 C 
ATOM     20  O   UNL     1       7.619   5.472  14.435  0.00  0.00    +0.000 OA
ENDBRANCH   1  20
TORSDOF 1
ENDMDL
MODEL 3
REMARK VINA RESULT:      -7.6      4.415      4.885
REMARK  Name = 
REMARK  2 active torsions:
REMARK  status: ('A' for Active; 'I' for Inactive)
REMARK    1  A    between atoms: C_1  and  O_2
REMARK    2  A    between atoms: O_2  and  C_3
REMARK                            x       y       z     vdW  Elec       q    Type
REMARK                         _______ _______ _______ _____ _____    ______ ____
ROOT
ATOM      1  C   UNL     1       4.637   4.306  17.337  0.00  0.00    +0.000 A 
ATOM      2  C   UNL     1       4.534   3.607  18.566  0.00  0.00    +0.000 A 
ATOM      3  C   UNL     1       3.856   4.170  19.667  0.00  0.00    +0.000 A 
ATOM      4  C   UNL     1       3.286   5.430  19.505  0.00  0.00    +0.000 A 
ATOM      5  N   UNL     1       2.565   6.133  20.408  0.00  0.00    +0.000 N 
ATOM      6  C   UNL     1       2.208   7.271  19.768  0.00  0.00    +0.000 A 
ATOM      7  C   UNL     1       2.719   7.299  18.486  0.00  0.00    +0.000 A 
ATOM      8  C   UNL     1       2.500   8.365  17.616  0.00  0.00    +0.000 A 
ATOM      9  C   UNL     1       1.710   9.433  18.072  0.00  0.00    +0.000 A 
ATOM     10  C   UNL     1       1.157   9.410  19.376  0.00  0.00    +0.000 A 
ATOM     11  C   UNL     1       0.334  10.447  19.832  0.00  0.00    +0.000 A 
ATOM     12  C   UNL     1      -0.216  10.384  21.114  0.00  0.00    +0.000 A 
ATOM     13  C   UNL     1       0.068   9.289  21.937  0.00  0.00    +0.000 A 
ATOM     14  N   UNL     1       0.872   8.286  21.491  0.00  0.00    +0.000 NA
ATOM     15  C   UNL     1       1.415   8.316  20.245  0.00  0.00    +0.000 A 
ATOM     16  C   UNL     1       3.396   6.118  18.318  0.00  0.00    +0.000 A 
ATOM     17  C   UNL     1       4.063   5.596  17.217  0.00  0.00    +0.000 A 
ATOM     18  H   UNL     1       2.319   5.847  21.382  0.00  0.00    +0.000 HD
ENDROOT
BRANCH   1  20
ATOM     19  C   UNL     1       6.356   4.237  15.621  0.00  0.00    +0.000 C 
ATOM     20  O   UNL     1       5.276   3.706  16.299  0.00  0.00    +0.000 OA
ENDBRANCH   1  20
TORSDOF 1
ENDMDL
MODEL 4
REMARK VINA RESULT:      -7.3      5.209      6.202
REMARK  Name = 
REMARK  2 active torsions:
REMARK  status: ('A' for Active; 'I' for Inactive)
REMARK    1  A    between atoms: C_1  and  O_2
REMARK    2  A    between atoms: O_2  and  C_3
REMARK                            x       y       z     vdW  Elec       q    Type
REMARK                         _______ _______ _______ _____ _____    ______ ____
ROOT
ATOM      1  C   UNL     1       3.246   3.910  18.768  0.00  0.00    +0.000 A 
ATOM      2  C   UNL     1       2.843   3.613  20.095  0.00  0.00    +0.000 A 
ATOM      3  C   UNL     1       2.279   4.606  20.921  0.00  0.00    +0.000 A 
ATOM      4  C   UNL     1       2.123   5.884  20.390  0.00  0.00    +0.000 A 
ATOM      5  N   UNL     1       1.574   6.966  20.988  0.00  0.00    +0.000 N 
ATOM      6  C   UNL     1       1.623   7.948  20.057  0.00  0.00    +0.000 A 
ATOM      7  C   UNL     1       2.218   7.500  18.896  0.00  0.00    +0.000 A 
ATOM      8  C   UNL     1       2.394   8.317  17.781  0.00  0.00    +0.000 A 
ATOM      9  C   UNL     1       1.924   9.638  17.855  0.00  0.00    +0.000 A 
ATOM     10  C   UNL     1       1.288  10.109  19.030  0.00  0.00    +0.000 A 
ATOM     11  C   UNL     1       0.776  11.410  19.106  0.00  0.00    +0.000 A 
ATOM     12  C   UNL     1       0.133  11.836  20.269  0.00  0.00    +0.000 A 
ATOM     13  C   UNL     1       0.014  10.962  21.356  0.00  0.00    +0.000 A 
ATOM     14  N   UNL     1       0.517   9.700  21.279  0.00  0.00    +0.000 NA
ATOM     15  C   UNL     1       1.140   9.255  20.156  0.00  0.00    +0.000 A 
ATOM     16  C   UNL     1       2.525   6.180  19.107  0.00  0.00    +0.000 A 
ATOM     17  C   UNL     1       3.092   5.228  18.270  0.00  0.00    +0.000 A 
ATOM     18  H   UNL     1       1.178   7.024  21.953  0.00  0.00    +0.000 HD
ENDROOT
BRANCH   1  20
ATOM     19  C   UNL     1       3.531   1.563  18.210  0.00  0.00    +0.000 C 
ATOM     20  O   UNL     1       3.757   2.910  18.005  0.00  0.00    +0.000 OA
ENDBRANCH   1  20
TORSDOF 1
ENDMDL
MODEL 5
REMARK VINA RESULT:      -7.1      5.094      5.629
REMARK  Name = 
REMARK  2 active torsions:
REMARK  status: ('A' for Active; 'I' for Inactive)
REMARK    1  A    between atoms: C_1  and  O_2
REMARK    2  A    between atoms: O_2  and  C_3
REMARK                            x       y       z     vdW  Elec       q    Type
REMARK                         _______ _______ _______ _____ _____    ______ ____
ROOT
ATOM      1  C   UNL     1       3.913   5.001  17.608  0.00  0.00    +0.000 A 
ATOM      2  C   UNL     1       3.894   4.280  18.828  0.00  0.00    +0.000 A 
ATOM      3  C   UNL     1       3.299   4.825  19.984  0.00  0.00    +0.000 A 
ATOM      4  C   UNL     1       2.726   6.091  19.886  0.00  0.00    +0.000 A 
ATOM      5  N   UNL     1       2.076   6.781  20.850  0.00  0.00    +0.000 N 
ATOM      6  C   UNL     1       1.681   7.932  20.257  0.00  0.00    +0.000 A 
ATOM      7  C   UNL     1       2.100   7.981  18.944  0.00  0.00    +0.000 A 
ATOM      8  C   UNL     1       1.825   9.063  18.111  0.00  0.00    +0.000 A 
ATOM      9  C   UNL     1       1.077  10.127  18.641  0.00  0.00    +0.000 A 
ATOM     10  C   UNL     1       0.617  10.083  19.980  0.00  0.00    +0.000 A 
ATOM     11  C   UNL     1      -0.165  11.115  20.512  0.00  0.00    +0.000 A 
ATOM     12  C   UNL     1      -0.623  11.031  21.828  0.00  0.00    +0.000 A 
ATOM     13  C   UNL     1      -0.288   9.919  22.609  0.00  0.00    +0.000 A 
ATOM     14  N   UNL     1       0.477   8.922  22.090  0.00  0.00    +0.000 NA
ATOM     15  C   UNL     1       0.930   8.972  20.808  0.00  0.00    +0.000 A 
ATOM     16  C   UNL     1       2.756   6.800  18.706  0.00  0.00    +0.000 A 
ATOM     17  C   UNL     1       3.340   6.295  17.552  0.00  0.00    +0.000 A 
ATOM     18  H   UNL     1       1.897   6.478  21.834  0.00  0.00    +0.000 HD
ENDROOT
BRANCH   1  20
ATOM     19  C   UNL     1       5.803   4.519  16.158  0.00  0.00    +0.000 C 
ATOM     20  O   UNL     1       4.473   4.417  16.516  0.00  0.00    +0.000 OA
ENDBRANCH   1  20
TORSDOF 1
ENDMDL
MODEL 6
REMARK VINA RESULT:      -7.1      2.716      3.154
REMARK  Name = 
REMARK  2 active torsions:
REMARK  status: ('A' for Active; 'I' for Inactive)
REMARK    1  A    between atoms: C_1  and  O_2
REMARK    2  A    between atoms: O_2  and  C_3
REMARK                            x       y       z     vdW  Elec       q    Type
REMARK                         _______ _______ _______ _____ _____    ______ ____
ROOT
ATOM      1  C   UNL     1       7.445   7.609  17.827  0.00  0.00    +0.000 A 
ATOM      2  C   UNL     1       8.238   6.683  18.549  0.00  0.00    +0.000 A 
ATOM      3  C   UNL     1       7.670   5.518  19.103  0.00  0.00    +0.000 A 
ATOM      4  C   UNL     1       6.307   5.304  18.912  0.00  0.00    +0.000 A 
ATOM      5  N   UNL     1       5.571   4.245  19.320  0.00  0.00    +0.000 N 
ATOM      6  C   UNL     1       4.319   4.487  18.865  0.00  0.00    +0.000 A 
ATOM      7  C   UNL     1       4.259   5.696  18.202  0.00  0.00    +0.000 A 
ATOM      8  C   UNL     1       3.081   6.182  17.639  0.00  0.00    +0.000 A 
ATOM      9  C   UNL     1       1.926   5.390  17.745  0.00  0.00    +0.000 A 
ATOM     10  C   UNL     1       1.975   4.135  18.400  0.00  0.00    +0.000 A 
ATOM     11  C   UNL     1       0.844   3.314  18.478  0.00  0.00    +0.000 A 
ATOM     12  C   UNL     1       0.930   2.072  19.110  0.00  0.00    +0.000 A 
ATOM     13  C   UNL     1       2.146   1.662  19.670  0.00  0.00    +0.000 A 
ATOM     14  N   UNL     1       3.240   2.465  19.596  0.00  0.00    +0.000 NA
ATOM     15  C   UNL     1       3.189   3.676  18.979  0.00  0.00    +0.000 A 
ATOM     16  C   UNL     1       5.531   6.209  18.223  0.00  0.00    +0.000 A 
ATOM     17  C   UNL     1       6.057   7.369  17.672  0.00  0.00    +0.000 A 
ATOM     18  H   UNL     1       5.904   3.410  19.851  0.00  0.00    +0.000 HD
ENDROOT
BRANCH   1  20
ATOM     19  C   UNL     1       8.546   9.768  18.011  0.00  0.00    +0.000 C 
ATOM     20  O   UNL     1       8.049   8.701  17.288  0.00  0.00    +0.000 OA
ENDBRANCH   1  20
TORSDOF 1
ENDMDL
MODEL 7
REMARK VINA RESULT:      -7.0      4.807      7.145
REMARK  Name = 
REMARK  2 active torsions:
REMARK  status: ('A' for Active; 'I' for Inactive)
REMARK    1  A    between atoms: C_1  and  O_2
REMARK    2  A    between atoms: O_2  and  C_3
REMARK                            x       y       z     vdW  Elec       q    Type
REMARK                         _______ _______ _______ _____ _____    ______ ____
ROOT
ATOM      1  C   UNL     1       0.483   8.656  20.988  0.00  0.00    +0.000 A 
ATOM      2  C   UNL     1       0.486   9.673  20.001  0.00  0.00    +0.000 A 
ATOM      3  C   UNL     1       1.301   9.570  18.855  0.00  0.00    +0.000 A 
ATOM      4  C   UNL     1       2.097   8.435  18.722  0.00  0.00    +0.000 A 
ATOM      5  N   UNL     1       2.917   8.117  17.695  0.00  0.00    +0.000 N 
ATOM      6  C   UNL     1       3.437   6.909  18.018  0.00  0.00    +0.000 A 
ATOM      7  C   UNL     1       2.971   6.482  19.244  0.00  0.00    +0.000 A 
ATOM      8  C   UNL     1       3.356   5.268  19.809  0.00  0.00    +0.000 A 
ATOM      9  C   UNL     1       4.237   4.454  19.080  0.00  0.00    +0.000 A 
ATOM     10  C   UNL     1       4.706   4.865  17.808  0.00  0.00    +0.000 A 
ATOM     11  C   UNL     1       5.551   4.047  17.049  0.00  0.00    +0.000 A 
ATOM     12  C   UNL     1       5.977   4.469  15.788  0.00  0.00    +0.000 A 
ATOM     13  C   UNL     1       5.563   5.713  15.297  0.00  0.00    +0.000 A 
ATOM     14  N   UNL     1       4.746   6.506  16.040  0.00  0.00    +0.000 NA
ATOM     15  C   UNL     1       4.308   6.117  17.268  0.00  0.00    +0.000 A 
ATOM     16  C   UNL     1       2.107   7.452  19.685  0.00  0.00    +0.000 A 
ATOM     17  C   UNL     1       1.323   7.526  20.829  0.00  0.00    +0.000 A 
ATOM     18  H   UNL     1       3.094   8.674  16.829  0.00  0.00    +0.000 HD
ENDROOT
BRANCH   1  20
ATOM     19  C   UNL     1      -0.068   9.547  23.181  0.00  0.00    +0.000 C 
ATOM     20  O   UNL     1      -0.343   8.791  22.058  0.00  0.00    +0.000 OA
ENDBRANCH   1  20
TORSDOF 1
ENDMDL
MODEL 8
REMARK VINA RESULT:      -7.0      4.605      5.968
REMARK  Name = 
REMARK  2 active torsions:
REMARK  status: ('A' for Active; 'I' for Inactive)
REMARK    1  A    between atoms: C_1  and  O_2
REMARK    2  A    between atoms: O_2  and  C_3
REMARK                            x       y       z     vdW  Elec       q    Type
REMARK                         _______ _______ _______ _____ _____    ______ ____
ROOT
ATOM      1  C   UNL     1       3.507   2.948  19.790  0.00  0.00    +0.000 A 
ATOM      2  C   UNL     1       2.820   2.884  21.027  0.00  0.00    +0.000 A 
ATOM      3  C   UNL     1       2.147   4.011  21.542  0.00  0.00    +0.000 A 
ATOM      4  C   UNL     1       2.174   5.185  20.793  0.00  0.00    +0.000 A 
ATOM      5  N   UNL     1       1.569   6.361  21.077  0.00  0.00    +0.000 N 
ATOM      6  C   UNL     1       1.864   7.172  20.034  0.00  0.00    +0.000 A 
ATOM      7  C   UNL     1       2.666   6.525  19.116  0.00  0.00    +0.000 A 
ATOM      8  C   UNL     1       3.115   7.141  17.950  0.00  0.00    +0.000 A 
ATOM      9  C   UNL     1       2.710   8.464  17.708  0.00  0.00    +0.000 A 
ATOM     10  C   UNL     1       1.867   9.135  18.627  0.00  0.00    +0.000 A 
ATOM     11  C   UNL     1       1.420  10.439  18.381  0.00  0.00    +0.000 A 
ATOM     12  C   UNL     1       0.570  11.065  19.295  0.00  0.00    +0.000 A 
ATOM     13  C   UNL     1       0.179  10.387  20.455  0.00  0.00    +0.000 A 
ATOM     14  N   UNL     1       0.620   9.122  20.691  0.00  0.00    +0.000 NA
ATOM     15  C   UNL     1       1.441   8.484  19.815  0.00  0.00    +0.000 A 
ATOM     16  C   UNL     1       2.852   5.254  19.597  0.00  0.00    +0.000 A 
ATOM     17  C   UNL     1       3.531   4.166  19.065  0.00  0.00    +0.000 A 
ATOM     18  H   UNL     1       0.982   6.586  21.911  0.00  0.00    +0.000 HD
ENDROOT
BRANCH   1  20
ATOM     19  C   UNL     1       3.785   1.175  18.152  0.00  0.00    +0.000 C 
ATOM     20  O   UNL     1       4.115   1.825  19.324  0.00  0.00    +0.000 OA
ENDBRANCH   1  20
TORSDOF 1
ENDMDL
MODEL 9
REMARK VINA RESULT:      -6.9      6.395      8.163
REMARK  Name = 
REMARK  2 active torsions:
REMARK  status: ('A' for Active; 'I' for Inactive)
REMARK    1  A    between atoms: C_1  and  O_2
REMARK    2  A    between atoms: O_2  and  C_3
REMARK                            x       y       z     vdW  Elec       q    Type
REMARK                         _______ _______ _______ _____ _____    ______ ____
ROOT
ATOM      1  C   UNL     1      -0.503  11.312  21.484  0.00  0.00    +0.000 A 
ATOM      2  C   UNL     1      -0.539  10.524  22.662  0.00  0.00    +0.000 A 
ATOM      3  C   UNL     1       0.065   9.251  22.702  0.00  0.00    +0.000 A 
ATOM      4  C   UNL     1       0.702   8.796  21.550  0.00  0.00    +0.000 A 
ATOM      5  N   UNL     1       1.372   7.633  21.381  0.00  0.00    +0.000 N 
ATOM      6  C   UNL     1       1.834   7.673  20.109  0.00  0.00    +0.000 A 
ATOM      7  C   UNL     1       1.438   8.833  19.475  0.00  0.00    +0.000 A 
ATOM      8  C   UNL     1       1.780   9.117  18.155  0.00  0.00    +0.000 A 
ATOM      9  C   UNL     1       2.573   8.185  17.466  0.00  0.00    +0.000 A 
ATOM     10  C   UNL     1       3.009   7.000  18.108  0.00  0.00    +0.000 A 
ATOM     11  C   UNL     1       3.834   6.081  17.450  0.00  0.00    +0.000 A 
ATOM     12  C   UNL     1       4.267   4.934  18.119  0.00  0.00    +0.000 A 
ATOM     13  C   UNL     1       3.864   4.709  19.440  0.00  0.00    +0.000 A 
ATOM     14  N   UNL     1       3.058   5.602  20.073  0.00  0.00    +0.000 NA
ATOM     15  C   UNL     1       2.628   6.732  19.450  0.00  0.00    +0.000 A 
ATOM     16  C   UNL     1       0.727   9.552  20.400  0.00  0.00    +0.000 A 
ATOM     17  C   UNL     1       0.136  10.807  20.325  0.00  0.00    +0.000 A 
ATOM     18  H   UNL     1       1.520   6.879  22.088  0.00  0.00    +0.000 HD
ENDROOT
BRANCH   1  20
ATOM     19  C   UNL     1      -2.416  12.799  21.300  0.00  0.00    +0.000 C 
ATOM     20  O   UNL     1      -1.075  12.544  21.509  0.00  0.00    +0.000 OA
ENDBRANCH   1  20
TORSDOF 1
ENDMDL
