MODEL 1
REMARK VINA RESULT:      -7.1      0.000      0.000
REMARK  Name = 
REMARK  6 active torsions:
REMARK  status: ('A' for Active; 'I' for Inactive)
REMARK    1  A    between atoms: C_1  and  C_2
REMARK    2  A    between atoms: C_2  and  C_3
REMARK    3  A    between atoms: C_3  and  C_4
REMARK    4  A    between atoms: C_4  and  N_5
REMARK    5  A    between atoms: N_5  and  C_6
REMARK    6  A    between atoms: C_7  and  C_9
REMARK                            x       y       z     vdW  Elec       q    Type
REMARK                         _______ _______ _______ _____ _____    ______ ____
ROOT
ATOM      1  C   UNL     1       4.682   3.758  16.929  0.00  0.00    +0.000 A 
ATOM      2  C   UNL     1       4.690   3.803  15.590  0.00  0.00    +0.000 A 
ATOM      3  O   UNL     1       5.680   4.371  14.779  0.00  0.00    +0.000 OA
ATOM      4  C   UNL     1       6.742   5.031  15.311  0.00  0.00    +0.000 A 
ATOM      5  O   UNL     1       7.642   5.481  14.615  0.00  0.00    +0.000 OA
ATOM      6  C   UNL     1       6.729   5.199  16.781  0.00  0.00    +0.000 A 
ATOM      7  C   UNL     1       7.709   6.040  17.340  0.00  0.00    +0.000 A 
ATOM      8  C   UNL     1       7.744   6.264  18.711  0.00  0.00    +0.000 A 
ATOM      9  C   UNL     1       6.819   5.625  19.523  0.00  0.00    +0.000 A 
ATOM     10  C   UNL     1       5.853   4.775  18.966  0.00  0.00    +0.000 A 
ATOM     11  C   UNL     1       5.762   4.560  17.579  0.00  0.00    +0.000 A 
ENDROOT
BRANCH   1  14
ATOM     12  N   UNL     1       2.435   3.848  18.173  0.00  0.00    +0.000 N 
ATOM     13  C   UNL     1       2.138   5.252  17.918  0.00  0.00    +0.000 C 
ATOM     14  C   UNL     1       3.529   3.121  17.694  0.00  0.00    +0.000 C 
ATOM     15  O   UNL     1       3.567   1.902  17.888  0.00  0.00    +0.000 OA
BRANCH  12  16
ATOM     16  C   UNL     1       1.385   3.101  18.886  0.00  0.00    +0.000 C 
BRANCH  16  17
ATOM     17  C   UNL     1       0.854   3.748  20.169  0.00  0.00    +0.000 C 
BRANCH  17  19
ATOM     18  C   UNL     1       2.583   2.535  21.517  0.00  0.00    +0.000 C 
ATOM     19  C   UNL     1       1.905   3.876  21.271  0.00  0.00    +0.000 C 
ENDBRANCH  17  19
ENDBRANCH  16  17
ENDBRANCH  12  16
ENDBRANCH   1  14
TORSDOF 4
ENDMDL
MODEL 2
REMARK VINA RESULT:      -7.0      1.073      1.443
REMARK  Name = 
REMARK  6 active torsions:
REMARK  status: ('A' for Active; 'I' for Inactive)
REMARK    1  A    between atoms: C_1  and  C_2
REMARK    2  A    between atoms: C_2  and  C_3
REMARK    3  A    between atoms: C_3  and  C_4
REMARK    4  A    between atoms: C_4  and  N_5
REMARK    5  A    between atoms: N_5  and  C_6
REMARK    6  A    between atoms: C_7  and  C_9
REMARK                            x       y       z     vdW  Elec       q    Type
REMARK                         _______ _______ _______ _____ _____    ______ ____
ROOT
ATOM      1  C   UNL     1       4.293   4.113  16.794  0.00  0.00    +0.000 A 
ATOM      2  C   UNL     1       4.424   4.165  15.462  0.00  0.00    +0.000 A 
ATOM      3  O   UNL     1       5.575   4.521  14.749  0.00  0.00    +0.000 OA
ATOM      4  C   UNL     1       6.700   4.943  15.382  0.00  0.00    +0.000 A 
ATOM      5  O   UNL     1       7.731   5.203  14.773  0.00  0.00    +0.000 OA
ATOM      6  C   UNL     1       6.598   5.099  16.850  0.00  0.00    +0.000 A 
ATOM      7  C   UNL     1       7.679   5.715  17.508  0.00  0.00    +0.000 A 
ATOM      8  C   UNL     1       7.643   5.917  18.882  0.00  0.00    +0.000 A 
ATOM      9  C   UNL     1       6.541   5.478  19.600  0.00  0.00    +0.000 A 
ATOM     10  C   UNL     1       5.471   4.850  18.945  0.00  0.00    +0.000 A 
ATOM     11  C   UNL     1       5.456   4.668  17.551  0.00  0.00    +0.000 A 
ENDROOT
BRANCH   1  14
ATOM     12  N   UNL     1       2.767   2.492  18.079  0.00  0.00    +0.000 N 
ATOM     13  C   UNL     1       3.768   1.466  18.343  0.00  0.00    +0.000 C 
ATOM     14  C   UNL     1       2.973   3.722  17.448  0.00  0.00    +0.000 C 
ATOM     15  O   UNL     1       2.051   4.542  17.421  0.00  0.00    +0.000 OA
BRANCH  12  16
ATOM     16  C   UNL     1       1.444   2.253  18.681  0.00  0.00    +0.000 C 
BRANCH  16  17
ATOM     17  C   UNL     1       1.345   2.478  20.193  0.00  0.00    +0.000 C 
BRANCH  17  19
ATOM     18  C   UNL     1       2.253   4.666  21.008  0.00  0.00    +0.000 C 
ATOM     19  C   UNL     1       0.999   3.916  20.578  0.00  0.00    +0.000 C 
ENDBRANCH  17  19
ENDBRANCH  16  17
ENDBRANCH  12  16
ENDBRANCH   1  14
TORSDOF 4
ENDMDL
MODEL 3
REMARK VINA RESULT:      -7.0      2.033      5.975
REMARK  Name = 
REMARK  6 active torsions:
REMARK  status: ('A' for Active; 'I' for Inactive)
REMARK    1  A    between atoms: C_1  and  C_2
REMARK    2  A    between atoms: C_2  and  C_3
REMARK    3  A    between atoms: C_3  and  C_4
REMARK    4  A    between atoms: C_4  and  N_5
REMARK    5  A    between atoms: N_5  and  C_6
REMARK    6  A    between atoms: C_7  and  C_9
REMARK                            x       y       z     vdW  Elec       q    Type
REMARK                         _______ _______ _______ _____ _____    ______ ____
ROOT
ATOM      1  C   UNL     1       4.105   4.590  17.574  0.00  0.00    +0.000 A 
ATOM      2  C   UNL     1       4.160   3.286  17.269  0.00  0.00    +0.000 A 
ATOM      3  O   UNL     1       3.265   2.293  17.682  0.00  0.00    +0.000 OA
ATOM      4  C   UNL     1       2.246   2.567  18.539  0.00  0.00    +0.000 A 
ATOM      5  O   UNL     1       1.422   1.720  18.861  0.00  0.00    +0.000 OA
ATOM      6  C   UNL     1       2.209   3.942  19.082  0.00  0.00    +0.000 A 
ATOM      7  C   UNL     1       1.287   4.201  20.113  0.00  0.00    +0.000 A 
ATOM      8  C   UNL     1       1.211   5.464  20.688  0.00  0.00    +0.000 A 
ATOM      9  C   UNL     1       2.036   6.472  20.213  0.00  0.00    +0.000 A 
ATOM     10  C   UNL     1       2.943   6.217  19.175  0.00  0.00    +0.000 A 
ATOM     11  C   UNL     1       3.076   4.940  18.599  0.00  0.00    +0.000 A 
ENDROOT
BRANCH   1  14
ATOM     12  N   UNL     1       6.261   5.964  17.834  0.00  0.00    +0.000 N 
ATOM     13  C   UNL     1       6.665   5.432  19.130  0.00  0.00    +0.000 C 
ATOM     14  C   UNL     1       5.159   5.568  17.070  0.00  0.00    +0.000 C 
ATOM     15  O   UNL     1       5.029   6.020  15.929  0.00  0.00    +0.000 OA
BRANCH  12  16
ATOM     16  C   UNL     1       7.210   6.906  17.216  0.00  0.00    +0.000 C 
BRANCH  16  17
ATOM     17  C   UNL     1       8.123   7.669  18.181  0.00  0.00    +0.000 C 
BRANCH  17  19
ATOM     18  C   UNL     1       9.078   9.858  18.937  0.00  0.00    +0.000 C 
ATOM     19  C   UNL     1       8.156   9.176  17.934  0.00  0.00    +0.000 C 
ENDBRANCH  17  19
ENDBRANCH  16  17
ENDBRANCH  12  16
ENDBRANCH   1  14
TORSDOF 4
ENDMDL
MODEL 4
REMARK VINA RESULT:      -7.0      2.134      5.793
REMARK  Name = 
REMARK  6 active torsions:
REMARK  status: ('A' for Active; 'I' for Inactive)
REMARK    1  A    between atoms: C_1  and  C_2
REMARK    2  A    between atoms: C_2  and  C_3
REMARK    3  A    between atoms: C_3  and  C_4
REMARK    4  A    between atoms: C_4  and  N_5
REMARK    5  A    between atoms: N_5  and  C_6
REMARK    6  A    between atoms: C_7  and  C_9
REMARK                            x       y       z     vdW  Elec       q    Type
REMARK                         _______ _______ _______ _____ _____    ______ ____
ROOT
ATOM      1  C   UNL     1       4.276   3.980  18.027  0.00  0.00    +0.000 A 
ATOM      2  C   UNL     1       3.991   2.767  17.534  0.00  0.00    +0.000 A 
ATOM      3  O   UNL     1       2.767   2.095  17.625  0.00  0.00    +0.000 OA
ATOM      4  C   UNL     1       1.723   2.610  18.326  0.00  0.00    +0.000 A 
ATOM      5  O   UNL     1       0.630   2.059  18.365  0.00  0.00    +0.000 OA
ATOM      6  C   UNL     1       1.996   3.863  19.065  0.00  0.00    +0.000 A 
ATOM      7  C   UNL     1       1.001   4.316  19.951  0.00  0.00    +0.000 A 
ATOM      8  C   UNL     1       1.196   5.472  20.696  0.00  0.00    +0.000 A 
ATOM      9  C   UNL     1       2.373   6.188  20.535  0.00  0.00    +0.000 A 
ATOM     10  C   UNL     1       3.357   5.743  19.641  0.00  0.00    +0.000 A 
ATOM     11  C   UNL     1       3.210   4.555  18.902  0.00  0.00    +0.000 A 
ENDROOT
BRANCH   1  14
ATOM     12  N   UNL     1       5.931   5.663  17.012  0.00  0.00    +0.000 N 
ATOM     13  C   UNL     1       4.961   6.443  16.252  0.00  0.00    +0.000 C 
ATOM     14  C   UNL     1       5.661   4.595  17.872  0.00  0.00    +0.000 C 
ATOM     15  O   UNL     1       6.580   4.125  18.549  0.00  0.00    +0.000 OA
BRANCH  12  16
ATOM     16  C   UNL     1       7.315   6.167  16.972  0.00  0.00    +0.000 C 
BRANCH  16  17
ATOM     17  C   UNL     1       7.699   7.160  18.074  0.00  0.00    +0.000 C 
BRANCH  17  19
ATOM     18  C   UNL     1       8.671   9.426  18.521  0.00  0.00    +0.000 C 
ATOM     19  C   UNL     1       7.779   8.609  17.595  0.00  0.00    +0.000 C 
ENDBRANCH  17  19
ENDBRANCH  16  17
ENDBRANCH  12  16
ENDBRANCH   1  14
TORSDOF 4
ENDMDL
MODEL 5
REMARK VINA RESULT:      -7.0      1.616      2.716
REMARK  Name = 
REMARK  6 active torsions:
REMARK  status: ('A' for Active; 'I' for Inactive)
REMARK    1  A    between atoms: C_1  and  C_2
REMARK    2  A    between atoms: C_2  and  C_3
REMARK    3  A    between atoms: C_3  and  C_4
REMARK    4  A    between atoms: C_4  and  N_5
REMARK    5  A    between atoms: N_5  and  C_6
REMARK    6  A    between atoms: C_7  and  C_9
REMARK                            x       y       z     vdW  Elec       q    Type
REMARK                         _______ _______ _______ _____ _____    ______ ____
ROOT
ATOM      1  C   UNL     1       5.272   4.503  18.192  0.00  0.00    +0.000 A 
ATOM      2  C   UNL     1       5.869   5.370  19.020  0.00  0.00    +0.000 A 
ATOM      3  O   UNL     1       6.739   6.406  18.659  0.00  0.00    +0.000 OA
ATOM      4  C   UNL     1       7.134   6.585  17.371  0.00  0.00    +0.000 A 
ATOM      5  O   UNL     1       7.848   7.522  17.035  0.00  0.00    +0.000 OA
ATOM      6  C   UNL     1       6.675   5.563  16.405  0.00  0.00    +0.000 A 
ATOM      7  C   UNL     1       7.223   5.612  15.109  0.00  0.00    +0.000 A 
ATOM      8  C   UNL     1       6.857   4.671  14.156  0.00  0.00    +0.000 A 
ATOM      9  C   UNL     1       5.924   3.700  14.488  0.00  0.00    +0.000 A 
ATOM     10  C   UNL     1       5.368   3.662  15.775  0.00  0.00    +0.000 A 
ATOM     11  C   UNL     1       5.747   4.574  16.777  0.00  0.00    +0.000 A 
ENDROOT
BRANCH   1  14
ATOM     12  N   UNL     1       2.995   3.330  18.406  0.00  0.00    +0.000 N 
ATOM     13  C   UNL     1       2.269   4.159  17.451  0.00  0.00    +0.000 C 
ATOM     14  C   UNL     1       4.355   3.405  18.719  0.00  0.00    +0.000 C 
ATOM     15  O   UNL     1       4.849   2.542  19.449  0.00  0.00    +0.000 OA
BRANCH  12  16
ATOM     16  C   UNL     1       2.231   2.206  18.974  0.00  0.00    +0.000 C 
BRANCH  16  17
ATOM     17  C   UNL     1       0.931   2.577  19.697  0.00  0.00    +0.000 C 
BRANCH  17  19
ATOM     18  C   UNL     1       2.132   3.030  21.848  0.00  0.00    +0.000 C 
ATOM     19  C   UNL     1       1.126   3.571  20.840  0.00  0.00    +0.000 C 
ENDBRANCH  17  19
ENDBRANCH  16  17
ENDBRANCH  12  16
ENDBRANCH   1  14
TORSDOF 4
ENDMDL
MODEL 6
REMARK VINA RESULT:      -6.7      1.907      2.936
REMARK  Name = 
REMARK  6 active torsions:
REMARK  status: ('A' for Active; 'I' for Inactive)
REMARK    1  A    between atoms: C_1  and  C_2
REMARK    2  A    between atoms: C_2  and  C_3
REMARK    3  A    between atoms: C_3  and  C_4
REMARK    4  A    between atoms: C_4  and  N_5
REMARK    5  A    between atoms: N_5  and  C_6
REMARK    6  A    between atoms: C_7  and  C_9
REMARK                            x       y       z     vdW  Elec       q    Type
REMARK                         _______ _______ _______ _____ _____    ______ ____
ROOT
ATOM      1  C   UNL     1       4.350   4.907  18.120  0.00  0.00    +0.000 A 
ATOM      2  C   UNL     1       4.970   5.241  19.260  0.00  0.00    +0.000 A 
ATOM      3  O   UNL     1       6.274   5.734  19.389  0.00  0.00    +0.000 OA
ATOM      4  C   UNL     1       7.098   5.852  18.315  0.00  0.00    +0.000 A 
ATOM      5  O   UNL     1       8.219   6.336  18.406  0.00  0.00    +0.000 OA
ATOM      6  C   UNL     1       6.569   5.334  17.034  0.00  0.00    +0.000 A 
ATOM      7  C   UNL     1       7.465   5.265  15.950  0.00  0.00    +0.000 A 
ATOM      8  C   UNL     1       7.047   4.767  14.723  0.00  0.00    +0.000 A 
ATOM      9  C   UNL     1       5.728   4.366  14.571  0.00  0.00    +0.000 A 
ATOM     10  C   UNL     1       4.833   4.450  15.647  0.00  0.00    +0.000 A 
ATOM     11  C   UNL     1       5.233   4.909  16.915  0.00  0.00    +0.000 A 
ENDROOT
BRANCH   1  14
ATOM     12  N   UNL     1       2.628   3.004  18.240  0.00  0.00    +0.000 N 
ATOM     13  C   UNL     1       3.566   1.923  18.517  0.00  0.00    +0.000 C 
ATOM     14  C   UNL     1       2.926   4.364  18.120  0.00  0.00    +0.000 C 
ATOM     15  O   UNL     1       2.000   5.173  18.019  0.00  0.00    +0.000 OA
BRANCH  12  16
ATOM     16  C   UNL     1       1.206   2.620  18.239  0.00  0.00    +0.000 C 
BRANCH  16  17
ATOM     17  C   UNL     1       0.600   2.284  19.606  0.00  0.00    +0.000 C 
BRANCH  17  19
ATOM     18  C   UNL     1       1.834   2.699  21.747  0.00  0.00    +0.000 C 
ATOM     19  C   UNL     1       0.924   3.312  20.690  0.00  0.00    +0.000 C 
ENDBRANCH  17  19
ENDBRANCH  16  17
ENDBRANCH  12  16
ENDBRANCH   1  14
TORSDOF 4
ENDMDL
MODEL 7
REMARK VINA RESULT:      -6.7      2.781      5.999
REMARK  Name = 
REMARK  6 active torsions:
REMARK  status: ('A' for Active; 'I' for Inactive)
REMARK    1  A    between atoms: C_1  and  C_2
REMARK    2  A    between atoms: C_2  and  C_3
REMARK    3  A    between atoms: C_3  and  C_4
REMARK    4  A    between atoms: C_4  and  N_5
REMARK    5  A    between atoms: N_5  and  C_6
REMARK    6  A    between atoms: C_7  and  C_9
REMARK                            x       y       z     vdW  Elec       q    Type
REMARK                         _______ _______ _______ _____ _____    ______ ____
ROOT
ATOM      1  C   UNL     1       4.077   5.442  18.026  0.00  0.00    +0.000 A 
ATOM      2  C   UNL     1       3.609   6.678  17.803  0.00  0.00    +0.000 A 
ATOM      3  O   UNL     1       2.773   7.419  18.646  0.00  0.00    +0.000 OA
ATOM      4  C   UNL     1       2.273   6.892  19.794  0.00  0.00    +0.000 A 
ATOM      5  O   UNL     1       1.588   7.550  20.567  0.00  0.00    +0.000 OA
ATOM      6  C   UNL     1       2.581   5.466  20.039  0.00  0.00    +0.000 A 
ATOM      7  C   UNL     1       1.921   4.842  21.114  0.00  0.00    +0.000 A 
ATOM      8  C   UNL     1       2.142   3.498  21.389  0.00  0.00    +0.000 A 
ATOM      9  C   UNL     1       3.042   2.788  20.610  0.00  0.00    +0.000 A 
ATOM     10  C   UNL     1       3.711   3.416  19.549  0.00  0.00    +0.000 A 
ATOM     11  C   UNL     1       3.479   4.762  19.215  0.00  0.00    +0.000 A 
ENDROOT
BRANCH   1  14
ATOM     12  N   UNL     1       6.275   5.150  16.729  0.00  0.00    +0.000 N 
ATOM     13  C   UNL     1       7.035   6.188  17.415  0.00  0.00    +0.000 C 
ATOM     14  C   UNL     1       4.971   4.737  17.014  0.00  0.00    +0.000 C 
ATOM     15  O   UNL     1       4.515   3.749  16.430  0.00  0.00    +0.000 OA
BRANCH  12  16
ATOM     16  C   UNL     1       7.032   4.366  15.737  0.00  0.00    +0.000 C 
BRANCH  16  17
ATOM     17  C   UNL     1       6.854   4.785  14.274  0.00  0.00    +0.000 C 
BRANCH  17  19
ATOM     18  C   UNL     1       6.512   3.499  12.151  0.00  0.00    +0.000 C 
ATOM     19  C   UNL     1       5.898   3.886  13.490  0.00  0.00    +0.000 C 
ENDBRANCH  17  19
ENDBRANCH  16  17
ENDBRANCH  12  16
ENDBRANCH   1  14
TORSDOF 4
ENDMDL
MODEL 8
REMARK VINA RESULT:      -6.7      2.406      6.113
REMARK  Name = 
REMARK  6 active torsions:
REMARK  status: ('A' for Active; 'I' for Inactive)
REMARK    1  A    between atoms: C_1  and  C_2
REMARK    2  A    between atoms: C_2  and  C_3
REMARK    3  A    between atoms: C_3  and  C_4
REMARK    4  A    between atoms: C_4  and  N_5
REMARK    5  A    between atoms: N_5  and  C_6
REMARK    6  A    between atoms: C_7  and  C_9
REMARK                            x       y       z     vdW  Elec       q    Type
REMARK                         _______ _______ _______ _____ _____    ______ ____
ROOT
ATOM      1  C   UNL     1       4.528   3.839  19.223  0.00  0.00    +0.000 A 
ATOM      2  C   UNL     1       4.522   2.716  19.954  0.00  0.00    +0.000 A 
ATOM      3  O   UNL     1       3.549   2.328  20.882  0.00  0.00    +0.000 OA
ATOM      4  C   UNL     1       2.504   3.138  21.195  0.00  0.00    +0.000 A 
ATOM      5  O   UNL     1       1.615   2.786  21.961  0.00  0.00    +0.000 OA
ATOM      6  C   UNL     1       2.519   4.483  20.578  0.00  0.00    +0.000 A 
ATOM      7  C   UNL     1       1.560   5.408  21.031  0.00  0.00    +0.000 A 
ATOM      8  C   UNL     1       1.529   6.697  20.514  0.00  0.00    +0.000 A 
ATOM      9  C   UNL     1       2.436   7.051  19.527  0.00  0.00    +0.000 A 
ATOM     10  C   UNL     1       3.381   6.123  19.066  0.00  0.00    +0.000 A 
ATOM     11  C   UNL     1       3.468   4.824  19.597  0.00  0.00    +0.000 A 
ENDROOT
BRANCH   1  14
ATOM     12  N   UNL     1       5.512   4.121  16.866  0.00  0.00    +0.000 N 
ATOM     13  C   UNL     1       4.271   3.939  16.124  0.00  0.00    +0.000 C 
ATOM     14  C   UNL     1       5.663   4.151  18.255  0.00  0.00    +0.000 C 
ATOM     15  O   UNL     1       6.762   4.451  18.731  0.00  0.00    +0.000 OA
BRANCH  12  16
ATOM     16  C   UNL     1       6.692   4.458  16.050  0.00  0.00    +0.000 C 
BRANCH  16  17
ATOM     17  C   UNL     1       6.405   5.111  14.694  0.00  0.00    +0.000 C 
BRANCH  17  19
ATOM     18  C   UNL     1       5.925   3.557  12.788  0.00  0.00    +0.000 C 
ATOM     19  C   UNL     1       7.004   4.355  13.509  0.00  0.00    +0.000 C 
ENDBRANCH  17  19
ENDBRANCH  16  17
ENDBRANCH  12  16
ENDBRANCH   1  14
TORSDOF 4
ENDMDL
MODEL 9
REMARK VINA RESULT:      -6.5      1.665      3.041
REMARK  Name = 
REMARK  6 active torsions:
REMARK  status: ('A' for Active; 'I' for Inactive)
REMARK    1  A    between atoms: C_1  and  C_2
REMARK    2  A    between atoms: C_2  and  C_3
REMARK    3  A    between atoms: C_3  and  C_4
REMARK    4  A    between atoms: C_4  and  N_5
REMARK    5  A    between atoms: N_5  and  C_6
REMARK    6  A    between atoms: C_7  and  C_9
REMARK                            x       y       z     vdW  Elec       q    Type
REMARK                         _______ _______ _______ _____ _____    ______ ____
ROOT
ATOM      1  C   UNL     1       5.459   4.883  18.715  0.00  0.00    +0.000 A 
ATOM      2  C   UNL     1       6.387   5.680  19.260  0.00  0.00    +0.000 A 
ATOM      3  O   UNL     1       7.287   6.504  18.576  0.00  0.00    +0.000 OA
ATOM      4  C   UNL     1       7.353   6.512  17.219  0.00  0.00    +0.000 A 
ATOM      5  O   UNL     1       8.095   7.270  16.608  0.00  0.00    +0.000 OA
ATOM      6  C   UNL     1       6.495   5.527  16.524  0.00  0.00    +0.000 A 
ATOM      7  C   UNL     1       6.682   5.378  15.137  0.00  0.00    +0.000 A 
ATOM      8  C   UNL     1       5.928   4.455  14.422  0.00  0.00    +0.000 A 
ATOM      9  C   UNL     1       4.971   3.704  15.087  0.00  0.00    +0.000 A 
ATOM     10  C   UNL     1       4.775   3.866  16.466  0.00  0.00    +0.000 A 
ATOM     11  C   UNL     1       5.549   4.760  17.228  0.00  0.00    +0.000 A 
ENDROOT
BRANCH   1  14
ATOM     12  N   UNL     1       3.339   4.478  20.110  0.00  0.00    +0.000 N 
ATOM     13  C   UNL     1       2.689   5.753  19.835  0.00  0.00    +0.000 C 
ATOM     14  C   UNL     1       4.547   4.019  19.578  0.00  0.00    +0.000 C 
ATOM     15  O   UNL     1       4.897   2.857  19.803  0.00  0.00    +0.000 OA
BRANCH  12  16
ATOM     16  C   UNL     1       2.551   3.530  20.916  0.00  0.00    +0.000 C 
BRANCH  16  17
ATOM     17  C   UNL     1       1.230   3.060  20.298  0.00  0.00    +0.000 C 
BRANCH  17  19
ATOM     18  C   UNL     1       1.770   2.470  17.924  0.00  0.00    +0.000 C 
ATOM     19  C   UNL     1       1.393   1.921  19.294  0.00  0.00    +0.000 C 
ENDBRANCH  17  19
ENDBRANCH  16  17
ENDBRANCH  12  16
ENDBRANCH   1  14
TORSDOF 4
ENDMDL
