MODEL 1
REMARK VINA RESULT:      -8.4      0.000      0.000
REMARK  Name = 
REMARK  6 active torsions:
REMARK  status: ('A' for Active; 'I' for Inactive)
REMARK    1  A    between atoms: C_1  and  S_2
REMARK    2  A    between atoms: S_2  and  N_5
REMARK    3  A    between atoms: N_5  and  C_6
REMARK    4  A    between atoms: C_10  and  C_11
REMARK    5  A    between atoms: C_17  and  C_18
REMARK    6  A    between atoms: C_18  and  C_19
REMARK                            x       y       z     vdW  Elec       q    Type
REMARK                         _______ _______ _______ _____ _____    ______ ____
ROOT
ATOM      1  C   UNL     1       1.730   4.803  19.510  0.00  0.00    +0.000 A 
ATOM      2  C   UNL     1       0.862   3.889  20.086  0.00  0.00    +0.000 A 
ATOM      3  N   UNL     1       1.211   2.594  19.806  0.00  0.00    +0.000 NA
ATOM      4  C   UNL     1       2.295   2.692  19.068  0.00  0.00    +0.000 A 
ATOM      5  C   UNL     1       3.123   1.695  18.508  0.00  0.00    +0.000 A 
ATOM      6  C   UNL     1       4.193   2.052  17.789  0.00  0.00    +0.000 A 
ATOM      7  C   UNL     1       4.432   3.513  17.577  0.00  0.00    +0.000 A 
ATOM      8  N   UNL     1       3.708   4.455  18.100  0.00  0.00    +0.000 NA
ATOM      9  N   UNL     1       2.653   4.012  18.845  0.00  0.00    +0.000 N 
ENDROOT
BRANCH   1  14
ATOM     10  C   UNL     1       1.686   8.350  20.819  0.00  0.00    +0.000 A 
ATOM     11  C   UNL     1       1.826   9.079  19.639  0.00  0.00    +0.000 A 
ATOM     12  C   UNL     1       1.904   8.409  18.421  0.00  0.00    +0.000 A 
ATOM     13  C   UNL     1       1.868   7.013  18.389  0.00  0.00    +0.000 A 
ATOM     14  C   UNL     1       1.740   6.268  19.572  0.00  0.00    +0.000 A 
ATOM     15  C   UNL     1       1.641   6.958  20.788  0.00  0.00    +0.000 A 
BRANCH  10  16
ATOM     16  N   UNL     1       1.569   9.029  22.061  0.00  0.00    +0.000 N 
ATOM     17  H   UNL     1       2.298   9.687  22.324  0.00  0.00    +0.000 HD
BRANCH  16  19
ATOM     18  C   UNL     1      -0.363  10.933  21.866  0.00  0.00    +0.000 C 
ATOM     19  S   UNL     1       0.049   9.392  22.664  0.00  0.00    +0.000 S 
ATOM     20  O   UNL     1       0.242   9.670  24.072  0.00  0.00    +0.000 OA
ATOM     21  O   UNL     1      -0.898   8.384  22.227  0.00  0.00    +0.000 OA
ENDBRANCH  16  19
ENDBRANCH  10  16
ENDBRANCH   1  14
BRANCH   7  22
ATOM     22  C   UNL     1       5.554   3.907  16.635  0.00  0.00    +0.000 C 
BRANCH  22  23
ATOM     23  C   UNL     1       6.467   4.995  17.143  0.00  0.00    +0.000 A 
ATOM     24  C   UNL     1       6.454   6.272  16.562  0.00  0.00    +0.000 A 
ATOM     25  C   UNL     1       7.200   7.310  17.121  0.00  0.00    +0.000 A 
ATOM     26  C   UNL     1       7.965   7.073  18.259  0.00  0.00    +0.000 A 
ATOM     27  F   UNL     1       8.641   8.084  18.821  0.00  0.00    +0.000 F 
ATOM     28  C   UNL     1       8.022   5.808  18.828  0.00  0.00    +0.000 A 
ATOM     29  C   UNL     1       7.284   4.766  18.263  0.00  0.00    +0.000 A 
ENDBRANCH  22  23
ENDBRANCH   7  22
TORSDOF 5
ENDMDL
MODEL 2
REMARK VINA RESULT:      -8.4      4.574      7.430
REMARK  Name = 
REMARK  6 active torsions:
REMARK  status: ('A' for Active; 'I' for Inactive)
REMARK    1  A    between atoms: C_1  and  S_2
REMARK    2  A    between atoms: S_2  and  N_5
REMARK    3  A    between atoms: N_5  and  C_6
REMARK    4  A    between atoms: C_10  and  C_11
REMARK    5  A    between atoms: C_17  and  C_18
REMARK    6  A    between atoms: C_18  and  C_19
REMARK                            x       y       z     vdW  Elec       q    Type
REMARK                         _______ _______ _______ _____ _____    ______ ____
ROOT
ATOM      1  C   UNL     1       4.128   3.774  18.963  0.00  0.00    +0.000 A 
ATOM      2  C   UNL     1       3.653   2.482  18.808  0.00  0.00    +0.000 A 
ATOM      3  N   UNL     1       2.372   2.341  19.275  0.00  0.00    +0.000 NA
ATOM      4  C   UNL     1       2.040   3.538  19.707  0.00  0.00    +0.000 A 
ATOM      5  C   UNL     1       0.835   4.015  20.266  0.00  0.00    +0.000 A 
ATOM      6  C   UNL     1       0.738   5.298  20.629  0.00  0.00    +0.000 A 
ATOM      7  C   UNL     1       1.948   6.161  20.462  0.00  0.00    +0.000 A 
ATOM      8  N   UNL     1       3.062   5.763  19.927  0.00  0.00    +0.000 NA
ATOM      9  N   UNL     1       3.073   4.449  19.554  0.00  0.00    +0.000 N 
ENDROOT
BRANCH   1  14
ATOM     10  C   UNL     1       7.190   4.760  16.974  0.00  0.00    +0.000 A 
ATOM     11  C   UNL     1       7.870   5.556  17.896  0.00  0.00    +0.000 A 
ATOM     12  C   UNL     1       7.339   5.741  19.170  0.00  0.00    +0.000 A 
ATOM     13  C   UNL     1       6.119   5.152  19.509  0.00  0.00    +0.000 A 
ATOM     14  C   UNL     1       5.419   4.360  18.586  0.00  0.00    +0.000 A 
ATOM     15  C   UNL     1       5.978   4.165  17.316  0.00  0.00    +0.000 A 
BRANCH  10  16
ATOM     16  N   UNL     1       7.745   4.537  15.686  0.00  0.00    +0.000 N 
ATOM     17  H   UNL     1       8.217   3.653  15.510  0.00  0.00    +0.000 HD
BRANCH  16  19
ATOM     18  C   UNL     1       6.276   3.829  13.509  0.00  0.00    +0.000 C 
ATOM     19  S   UNL     1       7.017   5.221  14.343  0.00  0.00    +0.000 S 
ATOM     20  O   UNL     1       8.101   5.699  13.510  0.00  0.00    +0.000 OA
ATOM     21  O   UNL     1       5.956   6.114  14.769  0.00  0.00    +0.000 OA
ENDBRANCH  16  19
ENDBRANCH  10  16
ENDBRANCH   1  14
BRANCH   7  22
ATOM     22  C   UNL     1       1.881   7.572  21.017  0.00  0.00    +0.000 C 
BRANCH  22  23
ATOM     23  C   UNL     1       1.188   8.578  20.132  0.00  0.00    +0.000 A 
ATOM     24  C   UNL     1       1.598   8.767  18.803  0.00  0.00    +0.000 A 
ATOM     25  C   UNL     1       0.870   9.598  17.951  0.00  0.00    +0.000 A 
ATOM     26  C   UNL     1      -0.266  10.247  18.426  0.00  0.00    +0.000 A 
ATOM     27  F   UNL     1      -0.989  11.006  17.592  0.00  0.00    +0.000 F 
ATOM     28  C   UNL     1      -0.666  10.105  19.747  0.00  0.00    +0.000 A 
ATOM     29  C   UNL     1       0.067   9.281  20.604  0.00  0.00    +0.000 A 
ENDBRANCH  22  23
ENDBRANCH   7  22
TORSDOF 5
ENDMDL
MODEL 3
REMARK VINA RESULT:      -8.2      4.403      8.852
REMARK  Name = 
REMARK  6 active torsions:
REMARK  status: ('A' for Active; 'I' for Inactive)
REMARK    1  A    between atoms: C_1  and  S_2
REMARK    2  A    between atoms: S_2  and  N_5
REMARK    3  A    between atoms: N_5  and  C_6
REMARK    4  A    between atoms: C_10  and  C_11
REMARK    5  A    between atoms: C_17  and  C_18
REMARK    6  A    between atoms: C_18  and  C_19
REMARK                            x       y       z     vdW  Elec       q    Type
REMARK                         _______ _______ _______ _____ _____    ______ ____
ROOT
ATOM      1  C   UNL     1       0.814   9.275  21.374  0.00  0.00    +0.000 A 
ATOM      2  C   UNL     1       1.046   9.009  22.714  0.00  0.00    +0.000 A 
ATOM      3  N   UNL     1       0.279   9.789  23.538  0.00  0.00    +0.000 NA
ATOM      4  C   UNL     1      -0.438  10.532  22.724  0.00  0.00    +0.000 A 
ATOM      5  C   UNL     1      -1.428  11.502  22.991  0.00  0.00    +0.000 A 
ATOM      6  C   UNL     1      -2.031  12.128  21.974  0.00  0.00    +0.000 A 
ATOM      7  C   UNL     1      -1.582  11.793  20.588  0.00  0.00    +0.000 A 
ATOM      8  N   UNL     1      -0.695  10.888  20.305  0.00  0.00    +0.000 NA
ATOM      9  N   UNL     1      -0.148  10.272  21.394  0.00  0.00    +0.000 N 
ENDROOT
BRANCH   1  14
ATOM     10  C   UNL     1       2.387   6.782  19.004  0.00  0.00    +0.000 A 
ATOM     11  C   UNL     1       2.442   7.524  17.825  0.00  0.00    +0.000 A 
ATOM     12  C   UNL     1       1.993   8.842  17.819  0.00  0.00    +0.000 A 
ATOM     13  C   UNL     1       1.467   9.406  18.983  0.00  0.00    +0.000 A 
ATOM     14  C   UNL     1       1.394   8.665  20.174  0.00  0.00    +0.000 A 
ATOM     15  C   UNL     1       1.871   7.347  20.169  0.00  0.00    +0.000 A 
BRANCH  10  16
ATOM     16  N   UNL     1       2.877   5.450  19.027  0.00  0.00    +0.000 N 
ATOM     17  H   UNL     1       3.639   5.226  19.663  0.00  0.00    +0.000 HD
BRANCH  16  19
ATOM     18  C   UNL     1       2.914   2.765  18.597  0.00  0.00    +0.000 C 
ATOM     19  S   UNL     1       1.834   4.179  18.712  0.00  0.00    +0.000 S 
ATOM     20  O   UNL     1       1.303   4.428  17.387  0.00  0.00    +0.000 OA
ATOM     21  O   UNL     1       0.949   3.987  19.845  0.00  0.00    +0.000 OA
ENDBRANCH  16  19
ENDBRANCH  10  16
ENDBRANCH   1  14
BRANCH   7  22
ATOM     22  C   UNL     1      -2.157  12.616  19.450  0.00  0.00    +0.000 C 
BRANCH  22  23
ATOM     23  C   UNL     1      -2.719  11.818  18.301  0.00  0.00    +0.000 A 
ATOM     24  C   UNL     1      -4.103  11.758  18.077  0.00  0.00    +0.000 A 
ATOM     25  C   UNL     1      -4.608  11.130  16.937  0.00  0.00    +0.000 A 
ATOM     26  C   UNL     1      -3.731  10.557  16.022  0.00  0.00    +0.000 A 
ATOM     27  F   UNL     1      -4.217   9.998  14.905  0.00  0.00    +0.000 F 
ATOM     28  C   UNL     1      -2.361  10.570  16.243  0.00  0.00    +0.000 A 
ATOM     29  C   UNL     1      -1.856  11.189  17.388  0.00  0.00    +0.000 A 
ENDBRANCH  22  23
ENDBRANCH   7  22
TORSDOF 5
ENDMDL
MODEL 4
REMARK VINA RESULT:      -8.0      2.421      3.143
REMARK  Name = 
REMARK  6 active torsions:
REMARK  status: ('A' for Active; 'I' for Inactive)
REMARK    1  A    between atoms: C_1  and  S_2
REMARK    2  A    between atoms: S_2  and  N_5
REMARK    3  A    between atoms: N_5  and  C_6
REMARK    4  A    between atoms: C_10  and  C_11
REMARK    5  A    between atoms: C_17  and  C_18
REMARK    6  A    between atoms: C_18  and  C_19
REMARK                            x       y       z     vdW  Elec       q    Type
REMARK                         _______ _______ _______ _____ _____    ______ ____
ROOT
ATOM      1  C   UNL     1       2.564   6.176  19.628  0.00  0.00    +0.000 A 
ATOM      2  C   UNL     1       2.125   5.155  20.457  0.00  0.00    +0.000 A 
ATOM      3  N   UNL     1       2.917   4.040  20.371  0.00  0.00    +0.000 NA
ATOM      4  C   UNL     1       3.853   4.361  19.504  0.00  0.00    +0.000 A 
ATOM      5  C   UNL     1       4.965   3.629  19.036  0.00  0.00    +0.000 A 
ATOM      6  C   UNL     1       5.792   4.184  18.143  0.00  0.00    +0.000 A 
ATOM      7  C   UNL     1       5.462   5.556  17.649  0.00  0.00    +0.000 A 
ATOM      8  N   UNL     1       4.464   6.267  18.078  0.00  0.00    +0.000 NA
ATOM      9  N   UNL     1       3.684   5.644  19.010  0.00  0.00    +0.000 N 
ENDROOT
BRANCH   1  14
ATOM     10  C   UNL     1       1.179   9.633  20.285  0.00  0.00    +0.000 A 
ATOM     11  C   UNL     1       1.075  10.136  18.989  0.00  0.00    +0.000 A 
ATOM     12  C   UNL     1       1.429   9.333  17.908  0.00  0.00    +0.000 A 
ATOM     13  C   UNL     1       1.910   8.041  18.126  0.00  0.00    +0.000 A 
ATOM     14  C   UNL     1       2.032   7.527  19.428  0.00  0.00    +0.000 A 
ATOM     15  C   UNL     1       1.651   8.340  20.504  0.00  0.00    +0.000 A 
BRANCH  10  16
ATOM     16  N   UNL     1       0.785  10.433  21.390  0.00  0.00    +0.000 N 
ATOM     17  H   UNL     1       0.653  11.430  21.242  0.00  0.00    +0.000 HD
BRANCH  16  19
ATOM     18  C   UNL     1      -1.355  11.064  22.945  0.00  0.00    +0.000 C 
ATOM     19  S   UNL     1      -0.181   9.771  22.586  0.00  0.00    +0.000 S 
ATOM     20  O   UNL     1       0.675   9.628  23.746  0.00  0.00    +0.000 OA
ATOM     21  O   UNL     1      -0.904   8.633  22.051  0.00  0.00    +0.000 OA
ENDBRANCH  16  19
ENDBRANCH  10  16
ENDBRANCH   1  14
BRANCH   7  22
ATOM     22  C   UNL     1       6.314   6.117  16.525  0.00  0.00    +0.000 C 
BRANCH  22  23
ATOM     23  C   UNL     1       6.252   5.348  15.228  0.00  0.00    +0.000 A 
ATOM     24  C   UNL     1       7.357   5.307  14.365  0.00  0.00    +0.000 A 
ATOM     25  C   UNL     1       7.341   4.487  13.236  0.00  0.00    +0.000 A 
ATOM     26  C   UNL     1       6.218   3.712  12.964  0.00  0.00    +0.000 A 
ATOM     27  F   UNL     1       6.225   2.890  11.906  0.00  0.00    +0.000 F 
ATOM     28  C   UNL     1       5.099   3.767  13.783  0.00  0.00    +0.000 A 
ATOM     29  C   UNL     1       5.110   4.595  14.907  0.00  0.00    +0.000 A 
ENDBRANCH  22  23
ENDBRANCH   7  22
TORSDOF 5
ENDMDL
MODEL 5
REMARK VINA RESULT:      -8.0      5.056      7.830
REMARK  Name = 
REMARK  6 active torsions:
REMARK  status: ('A' for Active; 'I' for Inactive)
REMARK    1  A    between atoms: C_1  and  S_2
REMARK    2  A    between atoms: S_2  and  N_5
REMARK    3  A    between atoms: N_5  and  C_6
REMARK    4  A    between atoms: C_10  and  C_11
REMARK    5  A    between atoms: C_17  and  C_18
REMARK    6  A    between atoms: C_18  and  C_19
REMARK                            x       y       z     vdW  Elec       q    Type
REMARK                         _______ _______ _______ _____ _____    ______ ____
ROOT
ATOM      1  C   UNL     1       3.384   3.516  17.669  0.00  0.00    +0.000 A 
ATOM      2  C   UNL     1       2.929   2.208  17.722  0.00  0.00    +0.000 A 
ATOM      3  N   UNL     1       2.023   2.016  18.732  0.00  0.00    +0.000 NA
ATOM      4  C   UNL     1       1.901   3.195  19.301  0.00  0.00    +0.000 A 
ATOM      5  C   UNL     1       1.088   3.621  20.374  0.00  0.00    +0.000 A 
ATOM      6  C   UNL     1       1.137   4.896  20.774  0.00  0.00    +0.000 A 
ATOM      7  C   UNL     1       2.101   5.805  20.080  0.00  0.00    +0.000 A 
ATOM      8  N   UNL     1       2.843   5.454  19.073  0.00  0.00    +0.000 NA
ATOM      9  N   UNL     1       2.714   4.145  18.705  0.00  0.00    +0.000 N 
ENDROOT
BRANCH   1  14
ATOM     10  C   UNL     1       5.867   4.061  14.868  0.00  0.00    +0.000 A 
ATOM     11  C   UNL     1       6.084   5.436  14.960  0.00  0.00    +0.000 A 
ATOM     12  C   UNL     1       5.441   6.170  15.953  0.00  0.00    +0.000 A 
ATOM     13  C   UNL     1       4.565   5.534  16.834  0.00  0.00    +0.000 A 
ATOM     14  C   UNL     1       4.328   4.152  16.745  0.00  0.00    +0.000 A 
ATOM     15  C   UNL     1       5.000   3.424  15.753  0.00  0.00    +0.000 A 
BRANCH  10  16
ATOM     16  N   UNL     1       6.548   3.300  13.881  0.00  0.00    +0.000 N 
ATOM     17  H   UNL     1       6.919   2.391  14.144  0.00  0.00    +0.000 HD
BRANCH  16  19
ATOM     18  C   UNL     1       6.312   1.782  11.637  0.00  0.00    +0.000 C 
ATOM     19  S   UNL     1       6.092   3.433  12.276  0.00  0.00    +0.000 S 
ATOM     20  O   UNL     1       7.092   4.276  11.653  0.00  0.00    +0.000 OA
ATOM     21  O   UNL     1       4.683   3.768  12.198  0.00  0.00    +0.000 OA
ENDBRANCH  16  19
ENDBRANCH  10  16
ENDBRANCH   1  14
BRANCH   7  22
ATOM     22  C   UNL     1       2.265   7.207  20.639  0.00  0.00    +0.000 C 
BRANCH  22  23
ATOM     23  C   UNL     1       1.461   8.274  19.938  0.00  0.00    +0.000 A 
ATOM     24  C   UNL     1       0.466   8.989  20.623  0.00  0.00    +0.000 A 
ATOM     25  C   UNL     1      -0.179  10.064  20.011  0.00  0.00    +0.000 A 
ATOM     26  C   UNL     1       0.164  10.423  18.711  0.00  0.00    +0.000 A 
ATOM     27  F   UNL     1      -0.424  11.485  18.144  0.00  0.00    +0.000 F 
ATOM     28  C   UNL     1       1.117   9.705  18.002  0.00  0.00    +0.000 A 
ATOM     29  C   UNL     1       1.756   8.623  18.610  0.00  0.00    +0.000 A 
ENDBRANCH  22  23
ENDBRANCH   7  22
TORSDOF 5
ENDMDL
MODEL 6
REMARK VINA RESULT:      -8.0      4.476      7.382
REMARK  Name = 
REMARK  6 active torsions:
REMARK  status: ('A' for Active; 'I' for Inactive)
REMARK    1  A    between atoms: C_1  and  S_2
REMARK    2  A    between atoms: S_2  and  N_5
REMARK    3  A    between atoms: N_5  and  C_6
REMARK    4  A    between atoms: C_10  and  C_11
REMARK    5  A    between atoms: C_17  and  C_18
REMARK    6  A    between atoms: C_18  and  C_19
REMARK                            x       y       z     vdW  Elec       q    Type
REMARK                         _______ _______ _______ _____ _____    ______ ____
ROOT
ATOM      1  C   UNL     1       4.103   3.663  18.811  0.00  0.00    +0.000 A 
ATOM      2  C   UNL     1       3.650   2.373  18.584  0.00  0.00    +0.000 A 
ATOM      3  N   UNL     1       2.376   2.181  19.052  0.00  0.00    +0.000 NA
ATOM      4  C   UNL     1       2.027   3.343  19.557  0.00  0.00    +0.000 A 
ATOM      5  C   UNL     1       0.818   3.764  20.153  0.00  0.00    +0.000 A 
ATOM      6  C   UNL     1       0.701   5.022  20.592  0.00  0.00    +0.000 A 
ATOM      7  C   UNL     1       1.894   5.916  20.467  0.00  0.00    +0.000 A 
ATOM      8  N   UNL     1       3.010   5.570  19.900  0.00  0.00    +0.000 NA
ATOM      9  N   UNL     1       3.041   4.281  19.450  0.00  0.00    +0.000 N 
ENDROOT
BRANCH   1  14
ATOM     10  C   UNL     1       7.151   4.784  16.872  0.00  0.00    +0.000 A 
ATOM     11  C   UNL     1       7.801   5.574  17.819  0.00  0.00    +0.000 A 
ATOM     12  C   UNL     1       7.255   5.712  19.093  0.00  0.00    +0.000 A 
ATOM     13  C   UNL     1       6.050   5.082  19.408  0.00  0.00    +0.000 A 
ATOM     14  C   UNL     1       5.379   4.293  18.459  0.00  0.00    +0.000 A 
ATOM     15  C   UNL     1       5.953   4.146  17.189  0.00  0.00    +0.000 A 
BRANCH  10  16
ATOM     16  N   UNL     1       7.721   4.608  15.584  0.00  0.00    +0.000 N 
ATOM     17  H   UNL     1       8.457   3.915  15.471  0.00  0.00    +0.000 HD
BRANCH  16  19
ATOM     18  C   UNL     1       7.953   5.359  12.980  0.00  0.00    +0.000 C 
ATOM     19  S   UNL     1       6.778   4.854  14.223  0.00  0.00    +0.000 S 
ATOM     20  O   UNL     1       5.945   6.000  14.524  0.00  0.00    +0.000 OA
ATOM     21  O   UNL     1       6.188   3.595  13.808  0.00  0.00    +0.000 OA
ENDBRANCH  16  19
ENDBRANCH  10  16
ENDBRANCH   1  14
BRANCH   7  22
ATOM     22  C   UNL     1       1.806   7.290  21.105  0.00  0.00    +0.000 C 
BRANCH  22  23
ATOM     23  C   UNL     1       1.145   8.349  20.260  0.00  0.00    +0.000 A 
ATOM     24  C   UNL     1       0.122   9.153  20.786  0.00  0.00    +0.000 A 
ATOM     25  C   UNL     1      -0.391  10.218  20.045  0.00  0.00    +0.000 A 
ATOM     26  C   UNL     1       0.112  10.478  18.774  0.00  0.00    +0.000 A 
ATOM     27  F   UNL     1      -0.349  11.531  18.085  0.00  0.00    +0.000 F 
ATOM     28  C   UNL     1       1.096   9.672  18.219  0.00  0.00    +0.000 A 
ATOM     29  C   UNL     1       1.604   8.600  18.956  0.00  0.00    +0.000 A 
ENDBRANCH  22  23
ENDBRANCH   7  22
TORSDOF 5
ENDMDL
MODEL 7
REMARK VINA RESULT:      -7.9      7.541     10.861
REMARK  Name = 
REMARK  6 active torsions:
REMARK  status: ('A' for Active; 'I' for Inactive)
REMARK    1  A    between atoms: C_1  and  S_2
REMARK    2  A    between atoms: S_2  and  N_5
REMARK    3  A    between atoms: N_5  and  C_6
REMARK    4  A    between atoms: C_10  and  C_11
REMARK    5  A    between atoms: C_17  and  C_18
REMARK    6  A    between atoms: C_18  and  C_19
REMARK                            x       y       z     vdW  Elec       q    Type
REMARK                         _______ _______ _______ _____ _____    ______ ____
ROOT
ATOM      1  C   UNL     1      -6.529  12.588  21.268  0.00  0.00    +0.000 A 
ATOM      2  C   UNL     1      -7.636  12.340  22.064  0.00  0.00    +0.000 A 
ATOM      3  N   UNL     1      -7.309  12.242  23.391  0.00  0.00    +0.000 NA
ATOM      4  C   UNL     1      -6.010  12.439  23.431  0.00  0.00    +0.000 A 
ATOM      5  C   UNL     1      -5.118  12.486  24.524  0.00  0.00    +0.000 A 
ATOM      6  C   UNL     1      -3.818  12.712  24.306  0.00  0.00    +0.000 A 
ATOM      7  C   UNL     1      -3.366  12.859  22.888  0.00  0.00    +0.000 A 
ATOM      8  N   UNL     1      -4.162  12.848  21.862  0.00  0.00    +0.000 NA
ATOM      9  N   UNL     1      -5.477  12.643  22.169  0.00  0.00    +0.000 N 
ENDROOT
BRANCH   1  14
ATOM     10  C   UNL     1      -5.764  12.036  17.606  0.00  0.00    +0.000 A 
ATOM     11  C   UNL     1      -6.321  13.180  17.035  0.00  0.00    +0.000 A 
ATOM     12  C   UNL     1      -6.916  14.137  17.853  0.00  0.00    +0.000 A 
ATOM     13  C   UNL     1      -6.975  13.937  19.233  0.00  0.00    +0.000 A 
ATOM     14  C   UNL     1      -6.430  12.783  19.819  0.00  0.00    +0.000 A 
ATOM     15  C   UNL     1      -5.814  11.840  18.984  0.00  0.00    +0.000 A 
BRANCH  10  16
ATOM     16  N   UNL     1      -5.122  11.074  16.782  0.00  0.00    +0.000 N 
ATOM     17  H   UNL     1      -5.434  10.976  15.819  0.00  0.00    +0.000 HD
BRANCH  16  19
ATOM     18  C   UNL     1      -2.861  10.502  15.383  0.00  0.00    +0.000 C 
ATOM     19  S   UNL     1      -3.505  10.719  17.032  0.00  0.00    +0.000 S 
ATOM     20  O   UNL     1      -3.484   9.424  17.681  0.00  0.00    +0.000 OA
ATOM     21  O   UNL     1      -2.845  11.863  17.633  0.00  0.00    +0.000 OA
ENDBRANCH  16  19
ENDBRANCH  10  16
ENDBRANCH   1  14
BRANCH   7  22
ATOM     22  C   UNL     1      -1.872  12.959  22.638  0.00  0.00    +0.000 C 
BRANCH  22  23
ATOM     23  C   UNL     1      -1.195  11.663  22.272  0.00  0.00    +0.000 A 
ATOM     24  C   UNL     1      -1.013  10.652  23.229  0.00  0.00    +0.000 A 
ATOM     25  C   UNL     1      -0.508   9.407  22.853  0.00  0.00    +0.000 A 
ATOM     26  C   UNL     1      -0.180   9.170  21.522  0.00  0.00    +0.000 A 
ATOM     27  F   UNL     1       0.258   7.957  21.158  0.00  0.00    +0.000 F 
ATOM     28  C   UNL     1      -0.316  10.167  20.567  0.00  0.00    +0.000 A 
ATOM     29  C   UNL     1      -0.811  11.417  20.943  0.00  0.00    +0.000 A 
ENDBRANCH  22  23
ENDBRANCH   7  22
TORSDOF 5
ENDMDL
MODEL 8
REMARK VINA RESULT:      -7.9      0.889      1.103
REMARK  Name = 
REMARK  6 active torsions:
REMARK  status: ('A' for Active; 'I' for Inactive)
REMARK    1  A    between atoms: C_1  and  S_2
REMARK    2  A    between atoms: S_2  and  N_5
REMARK    3  A    between atoms: N_5  and  C_6
REMARK    4  A    between atoms: C_10  and  C_11
REMARK    5  A    between atoms: C_17  and  C_18
REMARK    6  A    between atoms: C_18  and  C_19
REMARK                            x       y       z     vdW  Elec       q    Type
REMARK                         _______ _______ _______ _____ _____    ______ ____
ROOT
ATOM      1  C   UNL     1       1.684   4.827  19.694  0.00  0.00    +0.000 A 
ATOM      2  C   UNL     1       0.838   3.936  20.334  0.00  0.00    +0.000 A 
ATOM      3  N   UNL     1       1.175   2.631  20.085  0.00  0.00    +0.000 NA
ATOM      4  C   UNL     1       2.231   2.701  19.306  0.00  0.00    +0.000 A 
ATOM      5  C   UNL     1       3.036   1.683  18.750  0.00  0.00    +0.000 A 
ATOM      6  C   UNL     1       4.079   2.013  17.980  0.00  0.00    +0.000 A 
ATOM      7  C   UNL     1       4.312   3.465  17.709  0.00  0.00    +0.000 A 
ATOM      8  N   UNL     1       3.609   4.427  18.225  0.00  0.00    +0.000 NA
ATOM      9  N   UNL     1       2.581   4.011  19.024  0.00  0.00    +0.000 N 
ENDROOT
BRANCH   1  14
ATOM     10  C   UNL     1       1.333   8.422  20.815  0.00  0.00    +0.000 A 
ATOM     11  C   UNL     1       1.803   9.104  19.694  0.00  0.00    +0.000 A 
ATOM     12  C   UNL     1       2.203   8.388  18.569  0.00  0.00    +0.000 A 
ATOM     13  C   UNL     1       2.157   6.993  18.578  0.00  0.00    +0.000 A 
ATOM     14  C   UNL     1       1.698   6.293  19.705  0.00  0.00    +0.000 A 
ATOM     15  C   UNL     1       1.278   7.029  20.821  0.00  0.00    +0.000 A 
BRANCH  10  16
ATOM     16  N   UNL     1       0.888   9.147  21.952  0.00  0.00    +0.000 N 
ATOM     17  H   UNL     1       1.482   9.164  22.777  0.00  0.00    +0.000 HD
BRANCH  16  19
ATOM     18  C   UNL     1      -1.090  10.537  23.197  0.00  0.00    +0.000 C 
ATOM     19  S   UNL     1      -0.058  10.512  21.743  0.00  0.00    +0.000 S 
ATOM     20  O   UNL     1      -0.912  10.227  20.608  0.00  0.00    +0.000 OA
ATOM     21  O   UNL     1       0.785  11.693  21.761  0.00  0.00    +0.000 OA
ENDBRANCH  16  19
ENDBRANCH  10  16
ENDBRANCH   1  14
BRANCH   7  22
ATOM     22  C   UNL     1       5.399   3.823  16.713  0.00  0.00    +0.000 C 
BRANCH  22  23
ATOM     23  C   UNL     1       6.328   4.930  17.147  0.00  0.00    +0.000 A 
ATOM     24  C   UNL     1       6.166   6.236  16.659  0.00  0.00    +0.000 A 
ATOM     25  C   UNL     1       6.941   7.280  17.165  0.00  0.00    +0.000 A 
ATOM     26  C   UNL     1       7.882   7.021  18.157  0.00  0.00    +0.000 A 
ATOM     27  F   UNL     1       8.590   8.034  18.674  0.00  0.00    +0.000 F 
ATOM     28  C   UNL     1       8.085   5.731  18.626  0.00  0.00    +0.000 A 
ATOM     29  C   UNL     1       7.318   4.683  18.113  0.00  0.00    +0.000 A 
ENDBRANCH  22  23
ENDBRANCH   7  22
TORSDOF 5
ENDMDL
MODEL 9
REMARK VINA RESULT:      -7.9      1.052      1.102
REMARK  Name = 
REMARK  6 active torsions:
REMARK  status: ('A' for Active; 'I' for Inactive)
REMARK    1  A    between atoms: C_1  and  S_2
REMARK    2  A    between atoms: S_2  and  N_5
REMARK    3  A    between atoms: N_5  and  C_6
REMARK    4  A    between atoms: C_10  and  C_11
REMARK    5  A    between atoms: C_17  and  C_18
REMARK    6  A    between atoms: C_18  and  C_19
REMARK                            x       y       z     vdW  Elec       q    Type
REMARK                         _______ _______ _______ _____ _____    ______ ____
ROOT
ATOM      1  C   UNL     1       2.018   5.554  19.983  0.00  0.00    +0.000 A 
ATOM      2  C   UNL     1       1.248   4.739  20.798  0.00  0.00    +0.000 A 
ATOM      3  N   UNL     1       1.765   3.474  20.903  0.00  0.00    +0.000 NA
ATOM      4  C   UNL     1       2.856   3.496  20.170  0.00  0.00    +0.000 A 
ATOM      5  C   UNL     1       3.820   2.495  19.921  0.00  0.00    +0.000 A 
ATOM      6  C   UNL     1       4.865   2.767  19.132  0.00  0.00    +0.000 A 
ATOM      7  C   UNL     1       4.930   4.124  18.508  0.00  0.00    +0.000 A 
ATOM      8  N   UNL     1       4.077   5.076  18.736  0.00  0.00    +0.000 NA
ATOM      9  N   UNL     1       3.056   4.731  19.576  0.00  0.00    +0.000 N 
ENDROOT
BRANCH   1  14
ATOM     10  C   UNL     1       1.238   9.249  20.171  0.00  0.00    +0.000 A 
ATOM     11  C   UNL     1       1.592   9.669  18.889  0.00  0.00    +0.000 A 
ATOM     12  C   UNL     1       2.056   8.738  17.964  0.00  0.00    +0.000 A 
ATOM     13  C   UNL     1       2.188   7.397  18.329  0.00  0.00    +0.000 A 
ATOM     14  C   UNL     1       1.846   6.964  19.621  0.00  0.00    +0.000 A 
ATOM     15  C   UNL     1       1.360   7.910  20.534  0.00  0.00    +0.000 A 
BRANCH  10  16
ATOM     16  N   UNL     1       0.729  10.187  21.108  0.00  0.00    +0.000 N 
ATOM     17  H   UNL     1       0.380  11.077  20.761  0.00  0.00    +0.000 HD
BRANCH  16  19
ATOM     18  C   UNL     1      -1.097  10.985  22.960  0.00  0.00    +0.000 C 
ATOM     19  S   UNL     1      -0.019   9.639  22.502  0.00  0.00    +0.000 S 
ATOM     20  O   UNL     1       1.025   9.560  23.503  0.00  0.00    +0.000 OA
ATOM     21  O   UNL     1      -0.840   8.484  22.190  0.00  0.00    +0.000 OA
ENDBRANCH  16  19
ENDBRANCH  10  16
ENDBRANCH   1  14
BRANCH   7  22
ATOM     22  C   UNL     1       6.031   4.374  17.493  0.00  0.00    +0.000 C 
BRANCH  22  23
ATOM     23  C   UNL     1       6.886   5.587  17.759  0.00  0.00    +0.000 A 
ATOM     24  C   UNL     1       6.813   6.714  16.925  0.00  0.00    +0.000 A 
ATOM     25  C   UNL     1       7.504   7.881  17.252  0.00  0.00    +0.000 A 
ATOM     26  C   UNL     1       8.274   7.923  18.410  0.00  0.00    +0.000 A 
ATOM     27  F   UNL     1       8.897   9.061  18.746  0.00  0.00    +0.000 F 
ATOM     28  C   UNL     1       8.391   6.809  19.229  0.00  0.00    +0.000 A 
ATOM     29  C   UNL     1       7.708   5.637  18.897  0.00  0.00    +0.000 A 
ENDBRANCH  22  23
ENDBRANCH   7  22
TORSDOF 5
ENDMDL
