MODEL 1
REMARK VINA RESULT:      -7.7      0.000      0.000
REMARK  Name = 
REMARK  12 active torsions:
REMARK  status: ('A' for Active; 'I' for Inactive)
REMARK    1  A    between atoms: C_1  and  C_2
REMARK    2  A    between atoms: C_2  and  O_3
REMARK    3  A    between atoms: O_3  and  C_4
REMARK    4  A    between atoms: C_4  and  C_6
REMARK    5  A    between atoms: C_6  and  C_7
REMARK    6  A    between atoms: C_7  and  C_8
REMARK    7  A    between atoms: C_8  and  O_9
REMARK    8  A    between atoms: O_9  and  C_10
REMARK    9  A    between atoms: N_18  and  C_19
REMARK   10  A    between atoms: C_19  and  C_20
REMARK   11  A    between atoms: N_24  and  C_25
REMARK   12  A    between atoms: C_25  and  C_26
REMARK                            x       y       z     vdW  Elec       q    Type
REMARK                         _______ _______ _______ _____ _____    ______ ____
ROOT
ATOM      1  C   UNL     1       6.900   6.403  17.788  0.00  0.00    +0.000 C 
ATOM      2  C   UNL     1       6.406   5.711  19.077  0.00  0.00    +0.000 C 
ATOM      3  C   UNL     1       5.142   4.871  18.861  0.00  0.00    +0.000 C 
ATOM      4  N   UNL     1       4.056   5.648  18.236  0.00  0.00    +0.000 NA
ATOM      5  C   UNL     1       4.504   6.233  16.961  0.00  0.00    +0.000 C 
ATOM      6  C   UNL     1       5.697   7.164  17.189  0.00  0.00    +0.000 C 
ENDROOT
BRANCH   1   7
ATOM      7  C   UNL     1       7.386   5.426  16.710  0.00  0.00    +0.000 C 
ATOM      8  O   UNL     1       7.862   4.322  16.985  0.00  0.00    +0.000 OA
BRANCH   7   9
ATOM      9  O   UNL     1       7.181   5.855  15.442  0.00  0.00    +0.000 OA
BRANCH   9  11
ATOM     10  C   UNL     1       5.737   4.253  14.307  0.00  0.00    +0.000 C 
ATOM     11  C   UNL     1       7.148   4.795  14.465  0.00  0.00    +0.000 C 
ENDBRANCH   9  11
ENDBRANCH   7   9
ENDBRANCH   1   7
BRANCH   1  12
ATOM     12  C   UNL     1       8.072   7.364  18.133  0.00  0.00    +0.000 C 
BRANCH  12  13
ATOM     13  C   UNL     1       7.759   8.843  17.872  0.00  0.00    +0.000 C 
BRANCH  13  14
ATOM     14  O   UNL     1       8.970   9.571  17.648  0.00  0.00    +0.000 OA
BRANCH  14  15
ATOM     15  C   UNL     1       9.171  10.601  18.535  0.00  0.00    +0.000 A 
ATOM     16  C   UNL     1       9.051  11.887  18.006  0.00  0.00    +0.000 A 
ATOM     17  C   UNL     1       9.245  13.006  18.821  0.00  0.00    +0.000 A 
ATOM     18  C   UNL     1       9.542  12.846  20.174  0.00  0.00    +0.000 A 
ATOM     19  C   UNL     1       9.642  11.565  20.712  0.00  0.00    +0.000 A 
ATOM     20  C   UNL     1       9.454  10.445  19.895  0.00  0.00    +0.000 A 
ENDBRANCH  14  15
ENDBRANCH  13  14
ENDBRANCH  12  13
ENDBRANCH   1  12
BRANCH   4  21
ATOM     21  C   UNL     1       2.891   4.757  18.019  0.00  0.00    +0.000 C 
BRANCH  21  22
ATOM     22  C   UNL     1       2.349   4.127  19.273  0.00  0.00    +0.000 A 
ATOM     23  N   UNL     1       1.960   4.826  20.328  0.00  0.00    +0.000 NA
ATOM     24  C   UNL     1       1.584   3.914  21.273  0.00  0.00    +0.000 A 
ATOM     25  C   UNL     1       1.743   2.639  20.798  0.00  0.00    +0.000 A 
ATOM     26  N   UNL     1       2.215   2.776  19.516  0.00  0.00    +0.000 N 
BRANCH  26  27
ATOM     27  C   UNL     1       2.390   1.668  18.600  0.00  0.00    +0.000 C 
ATOM     28  C   UNL     1       3.830   1.229  18.387  0.00  0.00    +0.000 C 
ENDBRANCH  26  27
ENDBRANCH  21  22
ENDBRANCH   4  21
TORSDOF 10
ENDMDL
MODEL 2
REMARK VINA RESULT:      -7.4      0.689      1.049
REMARK  Name = 
REMARK  12 active torsions:
REMARK  status: ('A' for Active; 'I' for Inactive)
REMARK    1  A    between atoms: C_1  and  C_2
REMARK    2  A    between atoms: C_2  and  O_3
REMARK    3  A    between atoms: O_3  and  C_4
REMARK    4  A    between atoms: C_4  and  C_6
REMARK    5  A    between atoms: C_6  and  C_7
REMARK    6  A    between atoms: C_7  and  C_8
REMARK    7  A    between atoms: C_8  and  O_9
REMARK    8  A    between atoms: O_9  and  C_10
REMARK    9  A    between atoms: N_18  and  C_19
REMARK   10  A    between atoms: C_19  and  C_20
REMARK   11  A    between atoms: N_24  and  C_25
REMARK   12  A    between atoms: C_25  and  C_26
REMARK                            x       y       z     vdW  Elec       q    Type
REMARK                         _______ _______ _______ _____ _____    ______ ____
ROOT
ATOM      1  C   UNL     1       6.905   6.508  17.568  0.00  0.00    +0.000 C 
ATOM      2  C   UNL     1       6.461   5.885  18.909  0.00  0.00    +0.000 C 
ATOM      3  C   UNL     1       5.122   5.145  18.814  0.00  0.00    +0.000 C 
ATOM      4  N   UNL     1       4.054   5.995  18.255  0.00  0.00    +0.000 NA
ATOM      5  C   UNL     1       4.444   6.516  16.935  0.00  0.00    +0.000 C 
ATOM      6  C   UNL     1       5.721   7.352  17.044  0.00  0.00    +0.000 C 
ENDROOT
BRANCH   1   7
ATOM      7  C   UNL     1       7.224   5.474  16.481  0.00  0.00    +0.000 C 
ATOM      8  O   UNL     1       7.841   4.433  16.721  0.00  0.00    +0.000 OA
BRANCH   7   9
ATOM      9  O   UNL     1       6.711   5.773  15.265  0.00  0.00    +0.000 OA
BRANCH   9  11
ATOM     10  C   UNL     1       5.694   3.968  13.981  0.00  0.00    +0.000 C 
ATOM     11  C   UNL     1       6.957   4.765  14.263  0.00  0.00    +0.000 C 
ENDBRANCH   9  11
ENDBRANCH   7   9
ENDBRANCH   1   7
BRANCH   1  12
ATOM     12  C   UNL     1       8.172   7.378  17.795  0.00  0.00    +0.000 C 
BRANCH  12  13
ATOM     13  C   UNL     1       7.877   8.764  18.383  0.00  0.00    +0.000 C 
BRANCH  13  14
ATOM     14  O   UNL     1       8.528   9.776  17.609  0.00  0.00    +0.000 OA
BRANCH  14  15
ATOM     15  C   UNL     1       9.392  10.560  18.335  0.00  0.00    +0.000 A 
ATOM     16  C   UNL     1       9.223  10.525  19.720  0.00  0.00    +0.000 A 
ATOM     17  C   UNL     1      10.044  11.292  20.552  0.00  0.00    +0.000 A 
ATOM     18  C   UNL     1      11.051  12.085  20.004  0.00  0.00    +0.000 A 
ATOM     19  C   UNL     1      11.239  12.108  18.624  0.00  0.00    +0.000 A 
ATOM     20  C   UNL     1      10.413  11.344  17.792  0.00  0.00    +0.000 A 
ENDBRANCH  14  15
ENDBRANCH  13  14
ENDBRANCH  12  13
ENDBRANCH   1  12
BRANCH   4  21
ATOM     21  C   UNL     1       2.808   5.197  18.154  0.00  0.00    +0.000 C 
BRANCH  21  22
ATOM     22  C   UNL     1       2.452   4.441  19.404  0.00  0.00    +0.000 A 
ATOM     23  N   UNL     1       2.266   5.023  20.578  0.00  0.00    +0.000 NA
ATOM     24  C   UNL     1       2.011   4.019  21.467  0.00  0.00    +0.000 A 
ATOM     25  C   UNL     1       2.041   2.802  20.837  0.00  0.00    +0.000 A 
ATOM     26  N   UNL     1       2.304   3.075  19.517  0.00  0.00    +0.000 N 
BRANCH  26  27
ATOM     27  C   UNL     1       2.285   2.074  18.470  0.00  0.00    +0.000 C 
ATOM     28  C   UNL     1       3.605   1.355  18.241  0.00  0.00    +0.000 C 
ENDBRANCH  26  27
ENDBRANCH  21  22
ENDBRANCH   4  21
TORSDOF 10
ENDMDL
MODEL 3
REMARK VINA RESULT:      -7.4      0.989      1.749
REMARK  Name = 
REMARK  12 active torsions:
REMARK  status: ('A' for Active; 'I' for Inactive)
REMARK    1  A    between atoms: C_1  and  C_2
REMARK    2  A    between atoms: C_2  and  O_3
REMARK    3  A    between atoms: O_3  and  C_4
REMARK    4  A    between atoms: C_4  and  C_6
REMARK    5  A    between atoms: C_6  and  C_7
REMARK    6  A    between atoms: C_7  and  C_8
REMARK    7  A    between atoms: C_8  and  O_9
REMARK    8  A    between atoms: O_9  and  C_10
REMARK    9  A    between atoms: N_18  and  C_19
REMARK   10  A    between atoms: C_19  and  C_20
REMARK   11  A    between atoms: N_24  and  C_25
REMARK   12  A    between atoms: C_25  and  C_26
REMARK                            x       y       z     vdW  Elec       q    Type
REMARK                         _______ _______ _______ _____ _____    ______ ____
ROOT
ATOM      1  C   UNL     1       6.874   6.528  17.521  0.00  0.00    +0.000 C 
ATOM      2  C   UNL     1       6.682   6.015  18.964  0.00  0.00    +0.000 C 
ATOM      3  C   UNL     1       5.388   5.214  19.150  0.00  0.00    +0.000 C 
ATOM      4  N   UNL     1       4.200   5.962  18.699  0.00  0.00    +0.000 NA
ATOM      5  C   UNL     1       4.348   6.374  17.294  0.00  0.00    +0.000 C 
ATOM      6  C   UNL     1       5.578   7.269  17.124  0.00  0.00    +0.000 C 
ENDROOT
BRANCH   1   7
ATOM      7  C   UNL     1       7.077   5.411  16.490  0.00  0.00    +0.000 C 
ATOM      8  O   UNL     1       7.698   4.378  16.750  0.00  0.00    +0.000 OA
BRANCH   7   9
ATOM      9  O   UNL     1       6.459   5.633  15.305  0.00  0.00    +0.000 OA
BRANCH   9  11
ATOM     10  C   UNL     1       5.905   3.872  13.715  0.00  0.00    +0.000 C 
ATOM     11  C   UNL     1       6.970   4.830  14.222  0.00  0.00    +0.000 C 
ENDBRANCH   9  11
ENDBRANCH   7   9
ENDBRANCH   1   7
BRANCH   1  12
ATOM     12  C   UNL     1       8.111   7.468  17.466  0.00  0.00    +0.000 C 
BRANCH  12  13
ATOM     13  C   UNL     1       7.927   8.782  18.236  0.00  0.00    +0.000 C 
BRANCH  13  14
ATOM     14  O   UNL     1       8.650   9.835  17.594  0.00  0.00    +0.000 OA
BRANCH  14  15
ATOM     15  C   UNL     1       9.441  10.567  18.448  0.00  0.00    +0.000 A 
ATOM     16  C   UNL     1      10.453  11.314  17.843  0.00  0.00    +0.000 A 
ATOM     17  C   UNL     1      11.320  12.088  18.620  0.00  0.00    +0.000 A 
ATOM     18  C   UNL     1      11.168  12.133  20.006  0.00  0.00    +0.000 A 
ATOM     19  C   UNL     1      10.147  11.405  20.613  0.00  0.00    +0.000 A 
ATOM     20  C   UNL     1       9.283  10.627  19.835  0.00  0.00    +0.000 A 
ENDBRANCH  14  15
ENDBRANCH  13  14
ENDBRANCH  12  13
ENDBRANCH   1  12
BRANCH   4  21
ATOM     21  C   UNL     1       3.001   5.107  18.869  0.00  0.00    +0.000 C 
BRANCH  21  22
ATOM     22  C   UNL     1       3.245   3.641  18.636  0.00  0.00    +0.000 A 
ATOM     23  N   UNL     1       3.540   3.133  17.450  0.00  0.00    +0.000 NA
ATOM     24  C   UNL     1       3.637   1.782  17.627  0.00  0.00    +0.000 A 
ATOM     25  C   UNL     1       3.399   1.452  18.935  0.00  0.00    +0.000 A 
ATOM     26  N   UNL     1       3.166   2.641  19.581  0.00  0.00    +0.000 N 
BRANCH  26  27
ATOM     27  C   UNL     1       3.005   2.758  21.016  0.00  0.00    +0.000 C 
ATOM     28  C   UNL     1       1.565   2.793  21.503  0.00  0.00    +0.000 C 
ENDBRANCH  26  27
ENDBRANCH  21  22
ENDBRANCH   4  21
TORSDOF 10
ENDMDL
MODEL 4
REMARK VINA RESULT:      -7.2      1.078      2.066
REMARK  Name = 
REMARK  12 active torsions:
REMARK  status: ('A' for Active; 'I' for Inactive)
REMARK    1  A    between atoms: C_1  and  C_2
REMARK    2  A    between atoms: C_2  and  O_3
REMARK    3  A    between atoms: O_3  and  C_4
REMARK    4  A    between atoms: C_4  and  C_6
REMARK    5  A    between atoms: C_6  and  C_7
REMARK    6  A    between atoms: C_7  and  C_8
REMARK    7  A    between atoms: C_8  and  O_9
REMARK    8  A    between atoms: O_9  and  C_10
REMARK    9  A    between atoms: N_18  and  C_19
REMARK   10  A    between atoms: C_19  and  C_20
REMARK   11  A    between atoms: N_24  and  C_25
REMARK   12  A    between atoms: C_25  and  C_26
REMARK                            x       y       z     vdW  Elec       q    Type
REMARK                         _______ _______ _______ _____ _____    ______ ____
ROOT
ATOM      1  C   UNL     1       6.515   6.319  17.394  0.00  0.00    +0.000 C 
ATOM      2  C   UNL     1       6.632   5.994  18.899  0.00  0.00    +0.000 C 
ATOM      3  C   UNL     1       6.079   4.612  19.261  0.00  0.00    +0.000 C 
ATOM      4  N   UNL     1       4.693   4.426  18.793  0.00  0.00    +0.000 NA
ATOM      5  C   UNL     1       4.602   4.648  17.341  0.00  0.00    +0.000 C 
ATOM      6  C   UNL     1       5.046   6.070  16.987  0.00  0.00    +0.000 C 
ENDROOT
BRANCH   1   7
ATOM      7  C   UNL     1       7.379   5.420  16.500  0.00  0.00    +0.000 C 
ATOM      8  O   UNL     1       8.024   4.468  16.947  0.00  0.00    +0.000 OA
BRANCH   7   9
ATOM      9  O   UNL     1       7.314   5.724  15.182  0.00  0.00    +0.000 OA
BRANCH   9  11
ATOM     10  C   UNL     1       7.359   4.844  12.910  0.00  0.00    +0.000 C 
ATOM     11  C   UNL     1       6.917   4.618  14.347  0.00  0.00    +0.000 C 
ENDBRANCH   9  11
ENDBRANCH   7   9
ENDBRANCH   1   7
BRANCH   1  12
ATOM     12  C   UNL     1       6.936   7.794  17.148  0.00  0.00    +0.000 C 
BRANCH  12  13
ATOM     13  C   UNL     1       8.066   8.279  18.065  0.00  0.00    +0.000 C 
BRANCH  13  14
ATOM     14  O   UNL     1       8.761   9.371  17.457  0.00  0.00    +0.000 OA
BRANCH  14  15
ATOM     15  C   UNL     1       8.962  10.440  18.298  0.00  0.00    +0.000 A 
ATOM     16  C   UNL     1       9.270  10.118  19.621  0.00  0.00    +0.000 A 
ATOM     17  C   UNL     1       9.485  11.130  20.561  0.00  0.00    +0.000 A 
ATOM     18  C   UNL     1       9.410  12.469  20.179  0.00  0.00    +0.000 A 
ATOM     19  C   UNL     1       9.123  12.796  18.855  0.00  0.00    +0.000 A 
ATOM     20  C   UNL     1       8.903  11.782  17.916  0.00  0.00    +0.000 A 
ENDBRANCH  14  15
ENDBRANCH  13  14
ENDBRANCH  12  13
ENDBRANCH   1  12
BRANCH   4  21
ATOM     21  C   UNL     1       4.248   3.055  19.139  0.00  0.00    +0.000 C 
BRANCH  21  22
ATOM     22  C   UNL     1       2.755   2.878  19.184  0.00  0.00    +0.000 A 
ATOM     23  N   UNL     1       2.102   2.018  18.418  0.00  0.00    +0.000 NA
ATOM     24  C   UNL     1       0.777   2.181  18.705  0.00  0.00    +0.000 A 
ATOM     25  C   UNL     1       0.609   3.152  19.656  0.00  0.00    +0.000 A 
ATOM     26  N   UNL     1       1.873   3.584  19.974  0.00  0.00    +0.000 N 
BRANCH  26  27
ATOM     27  C   UNL     1       2.160   4.516  21.045  0.00  0.00    +0.000 C 
ATOM     28  C   UNL     1       1.878   5.975  20.722  0.00  0.00    +0.000 C 
ENDBRANCH  26  27
ENDBRANCH  21  22
ENDBRANCH   4  21
TORSDOF 10
ENDMDL
MODEL 5
REMARK VINA RESULT:      -7.0      1.026      1.196
REMARK  Name = 
REMARK  12 active torsions:
REMARK  status: ('A' for Active; 'I' for Inactive)
REMARK    1  A    between atoms: C_1  and  C_2
REMARK    2  A    between atoms: C_2  and  O_3
REMARK    3  A    between atoms: O_3  and  C_4
REMARK    4  A    between atoms: C_4  and  C_6
REMARK    5  A    between atoms: C_6  and  C_7
REMARK    6  A    between atoms: C_7  and  C_8
REMARK    7  A    between atoms: C_8  and  O_9
REMARK    8  A    between atoms: O_9  and  C_10
REMARK    9  A    between atoms: N_18  and  C_19
REMARK   10  A    between atoms: C_19  and  C_20
REMARK   11  A    between atoms: N_24  and  C_25
REMARK   12  A    between atoms: C_25  and  C_26
REMARK                            x       y       z     vdW  Elec       q    Type
REMARK                         _______ _______ _______ _____ _____    ______ ____
ROOT
ATOM      1  C   UNL     1       6.557   6.369  17.409  0.00  0.00    +0.000 C 
ATOM      2  C   UNL     1       7.010   5.958  18.827  0.00  0.00    +0.000 C 
ATOM      3  C   UNL     1       6.472   4.589  19.256  0.00  0.00    +0.000 C 
ATOM      4  N   UNL     1       5.005   4.502  19.131  0.00  0.00    +0.000 NA
ATOM      5  C   UNL     1       4.583   4.807  17.755  0.00  0.00    +0.000 C 
ATOM      6  C   UNL     1       5.020   6.220  17.361  0.00  0.00    +0.000 C 
ENDROOT
BRANCH   1   7
ATOM      7  C   UNL     1       7.122   5.477  16.297  0.00  0.00    +0.000 C 
ATOM      8  O   UNL     1       7.927   4.570  16.524  0.00  0.00    +0.000 OA
BRANCH   7   9
ATOM      9  O   UNL     1       6.608   5.729  15.070  0.00  0.00    +0.000 OA
BRANCH   9  11
ATOM     10  C   UNL     1       5.895   3.834  13.714  0.00  0.00    +0.000 C 
ATOM     11  C   UNL     1       7.025   4.790  14.059  0.00  0.00    +0.000 C 
ENDBRANCH   9  11
ENDBRANCH   7   9
ENDBRANCH   1   7
BRANCH   1  12
ATOM     12  C   UNL     1       7.000   7.832  17.127  0.00  0.00    +0.000 C 
BRANCH  12  13
ATOM     13  C   UNL     1       8.073   8.352  18.092  0.00  0.00    +0.000 C 
BRANCH  13  14
ATOM     14  O   UNL     1       8.718   9.502  17.538  0.00  0.00    +0.000 OA
BRANCH  14  15
ATOM     15  C   UNL     1       9.032  10.465  18.468  0.00  0.00    +0.000 A 
ATOM     16  C   UNL     1       9.009  11.782  18.005  0.00  0.00    +0.000 A 
ATOM     17  C   UNL     1       9.320  12.838  18.866  0.00  0.00    +0.000 A 
ATOM     18  C   UNL     1       9.639  12.585  20.199  0.00  0.00    +0.000 A 
ATOM     19  C   UNL     1       9.643  11.274  20.672  0.00  0.00    +0.000 A 
ATOM     20  C   UNL     1       9.337  10.217  19.809  0.00  0.00    +0.000 A 
ENDBRANCH  14  15
ENDBRANCH  13  14
ENDBRANCH  12  13
ENDBRANCH   1  12
BRANCH   4  21
ATOM     21  C   UNL     1       4.569   3.139  19.520  0.00  0.00    +0.000 C 
BRANCH  21  22
ATOM     22  C   UNL     1       3.242   3.088  20.225  0.00  0.00    +0.000 A 
ATOM     23  N   UNL     1       3.118   3.072  21.543  0.00  0.00    +0.000 NA
ATOM     24  C   UNL     1       1.781   2.974  21.801  0.00  0.00    +0.000 A 
ATOM     25  C   UNL     1       1.070   2.927  20.630  0.00  0.00    +0.000 A 
ATOM     26  N   UNL     1       2.002   3.018  19.626  0.00  0.00    +0.000 N 
BRANCH  26  27
ATOM     27  C   UNL     1       1.663   3.145  18.224  0.00  0.00    +0.000 C 
ATOM     28  C   UNL     1       2.340   2.141  17.303  0.00  0.00    +0.000 C 
ENDBRANCH  26  27
ENDBRANCH  21  22
ENDBRANCH   4  21
TORSDOF 10
ENDMDL
MODEL 6
REMARK VINA RESULT:      -7.0      1.336      1.783
REMARK  Name = 
REMARK  12 active torsions:
REMARK  status: ('A' for Active; 'I' for Inactive)
REMARK    1  A    between atoms: C_1  and  C_2
REMARK    2  A    between atoms: C_2  and  O_3
REMARK    3  A    between atoms: O_3  and  C_4
REMARK    4  A    between atoms: C_4  and  C_6
REMARK    5  A    between atoms: C_6  and  C_7
REMARK    6  A    between atoms: C_7  and  C_8
REMARK    7  A    between atoms: C_8  and  O_9
REMARK    8  A    between atoms: O_9  and  C_10
REMARK    9  A    between atoms: N_18  and  C_19
REMARK   10  A    between atoms: C_19  and  C_20
REMARK   11  A    between atoms: N_24  and  C_25
REMARK   12  A    between atoms: C_25  and  C_26
REMARK                            x       y       z     vdW  Elec       q    Type
REMARK                         _______ _______ _______ _____ _____    ______ ____
ROOT
ATOM      1  C   UNL     1       6.908   6.459  17.477  0.00  0.00    +0.000 C 
ATOM      2  C   UNL     1       7.129   6.012  18.939  0.00  0.00    +0.000 C 
ATOM      3  C   UNL     1       6.005   5.114  19.468  0.00  0.00    +0.000 C 
ATOM      4  N   UNL     1       4.676   5.730  19.305  0.00  0.00    +0.000 NA
ATOM      5  C   UNL     1       4.432   6.075  17.895  0.00  0.00    +0.000 C 
ATOM      6  C   UNL     1       5.488   7.062  17.395  0.00  0.00    +0.000 C 
ENDROOT
BRANCH   1   7
ATOM      7  C   UNL     1       6.959   5.309  16.464  0.00  0.00    +0.000 C 
ATOM      8  O   UNL     1       7.696   4.331  16.612  0.00  0.00    +0.000 OA
BRANCH   7   9
ATOM      9  O   UNL     1       6.080   5.433  15.442  0.00  0.00    +0.000 OA
BRANCH   9  11
ATOM     10  C   UNL     1       6.180   3.912  13.541  0.00  0.00    +0.000 C 
ATOM     11  C   UNL     1       5.606   4.173  14.924  0.00  0.00    +0.000 C 
ENDBRANCH   9  11
ENDBRANCH   7   9
ENDBRANCH   1   7
BRANCH   1  12
ATOM     12  C   UNL     1       7.996   7.498  17.084  0.00  0.00    +0.000 C 
BRANCH  12  13
ATOM     13  C   UNL     1       7.856   8.845  17.804  0.00  0.00    +0.000 C 
BRANCH  13  14
ATOM     14  O   UNL     1       8.829   8.951  18.846  0.00  0.00    +0.000 OA
BRANCH  14  15
ATOM     15  C   UNL     1       9.213  10.242  19.120  0.00  0.00    +0.000 A 
ATOM     16  C   UNL     1       9.234  11.111  18.028  0.00  0.00    +0.000 A 
ATOM     17  C   UNL     1       9.617  12.445  18.194  0.00  0.00    +0.000 A 
ATOM     18  C   UNL     1       9.963  12.922  19.458  0.00  0.00    +0.000 A 
ATOM     19  C   UNL     1       9.923  12.065  20.556  0.00  0.00    +0.000 A 
ATOM     20  C   UNL     1       9.545  10.729  20.387  0.00  0.00    +0.000 A 
ENDBRANCH  14  15
ENDBRANCH  13  14
ENDBRANCH  12  13
ENDBRANCH   1  12
BRANCH   4  21
ATOM     21  C   UNL     1       3.644   4.785  19.797  0.00  0.00    +0.000 C 
BRANCH  21  22
ATOM     22  C   UNL     1       3.870   3.354  19.394  0.00  0.00    +0.000 A 
ATOM     23  N   UNL     1       4.564   2.494  20.122  0.00  0.00    +0.000 NA
ATOM     24  C   UNL     1       4.592   1.327  19.414  0.00  0.00    +0.000 A 
ATOM     25  C   UNL     1       3.908   1.466  18.235  0.00  0.00    +0.000 A 
ATOM     26  N   UNL     1       3.433   2.755  18.231  0.00  0.00    +0.000 N 
BRANCH  26  27
ATOM     27  C   UNL     1       2.535   3.278  17.223  0.00  0.00    +0.000 C 
ATOM     28  C   UNL     1       1.270   3.928  17.760  0.00  0.00    +0.000 C 
ENDBRANCH  26  27
ENDBRANCH  21  22
ENDBRANCH   4  21
TORSDOF 10
ENDMDL
MODEL 7
REMARK VINA RESULT:      -7.0      1.066      1.929
REMARK  Name = 
REMARK  12 active torsions:
REMARK  status: ('A' for Active; 'I' for Inactive)
REMARK    1  A    between atoms: C_1  and  C_2
REMARK    2  A    between atoms: C_2  and  O_3
REMARK    3  A    between atoms: O_3  and  C_4
REMARK    4  A    between atoms: C_4  and  C_6
REMARK    5  A    between atoms: C_6  and  C_7
REMARK    6  A    between atoms: C_7  and  C_8
REMARK    7  A    between atoms: C_8  and  O_9
REMARK    8  A    between atoms: O_9  and  C_10
REMARK    9  A    between atoms: N_18  and  C_19
REMARK   10  A    between atoms: C_19  and  C_20
REMARK   11  A    between atoms: N_24  and  C_25
REMARK   12  A    between atoms: C_25  and  C_26
REMARK                            x       y       z     vdW  Elec       q    Type
REMARK                         _______ _______ _______ _____ _____    ______ ____
ROOT
ATOM      1  C   UNL     1       6.864   6.467  17.330  0.00  0.00    +0.000 C 
ATOM      2  C   UNL     1       7.406   6.083  18.724  0.00  0.00    +0.000 C 
ATOM      3  C   UNL     1       6.696   4.868  19.330  0.00  0.00    +0.000 C 
ATOM      4  N   UNL     1       5.232   5.039  19.369  0.00  0.00    +0.000 NA
ATOM      5  C   UNL     1       4.707   5.317  18.022  0.00  0.00    +0.000 C 
ATOM      6  C   UNL     1       5.330   6.596  17.457  0.00  0.00    +0.000 C 
ENDROOT
BRANCH   1   7
ATOM      7  C   UNL     1       7.130   5.410  16.251  0.00  0.00    +0.000 C 
ATOM      8  O   UNL     1       7.871   4.443  16.442  0.00  0.00    +0.000 OA
BRANCH   7   9
ATOM      9  O   UNL     1       6.430   5.599  15.107  0.00  0.00    +0.000 OA
BRANCH   9  11
ATOM     10  C   UNL     1       6.300   3.930  13.336  0.00  0.00    +0.000 C 
ATOM     11  C   UNL     1       5.726   4.425  14.654  0.00  0.00    +0.000 C 
ENDBRANCH   9  11
ENDBRANCH   7   9
ENDBRANCH   1   7
BRANCH   1  12
ATOM     12  C   UNL     1       7.514   7.802  16.871  0.00  0.00    +0.000 C 
BRANCH  12  13
ATOM     13  C   UNL     1       7.822   8.770  18.020  0.00  0.00    +0.000 C 
BRANCH  13  14
ATOM     14  O   UNL     1       8.957   9.577  17.695  0.00  0.00    +0.000 OA
BRANCH  14  15
ATOM     15  C   UNL     1       9.154  10.632  18.554  0.00  0.00    +0.000 A 
ATOM     16  C   UNL     1       8.939  11.901  18.014  0.00  0.00    +0.000 A 
ATOM     17  C   UNL     1       9.119  13.043  18.799  0.00  0.00    +0.000 A 
ATOM     18  C   UNL     1       9.498  12.921  20.136  0.00  0.00    +0.000 A 
ATOM     19  C   UNL     1       9.693  11.656  20.687  0.00  0.00    +0.000 A 
ATOM     20  C   UNL     1       9.518  10.514  19.898  0.00  0.00    +0.000 A 
ENDBRANCH  14  15
ENDBRANCH  13  14
ENDBRANCH  12  13
ENDBRANCH   1  12
BRANCH   4  21
ATOM     21  C   UNL     1       4.619   3.808  19.924  0.00  0.00    +0.000 C 
BRANCH  21  22
ATOM     22  C   UNL     1       3.364   3.368  19.222  0.00  0.00    +0.000 A 
ATOM     23  N   UNL     1       3.357   2.505  18.218  0.00  0.00    +0.000 NA
ATOM     24  C   UNL     1       2.057   2.396  17.815  0.00  0.00    +0.000 A 
ATOM     25  C   UNL     1       1.251   3.202  18.576  0.00  0.00    +0.000 A 
ATOM     26  N   UNL     1       2.084   3.808  19.485  0.00  0.00    +0.000 N 
BRANCH  26  27
ATOM     27  C   UNL     1       1.617   4.641  20.574  0.00  0.00    +0.000 C 
ATOM     28  C   UNL     1       1.802   6.136  20.368  0.00  0.00    +0.000 C 
ENDBRANCH  26  27
ENDBRANCH  21  22
ENDBRANCH   4  21
TORSDOF 10
ENDMDL
MODEL 8
REMARK VINA RESULT:      -7.0      1.108      1.930
REMARK  Name = 
REMARK  12 active torsions:
REMARK  status: ('A' for Active; 'I' for Inactive)
REMARK    1  A    between atoms: C_1  and  C_2
REMARK    2  A    between atoms: C_2  and  O_3
REMARK    3  A    between atoms: O_3  and  C_4
REMARK    4  A    between atoms: C_4  and  C_6
REMARK    5  A    between atoms: C_6  and  C_7
REMARK    6  A    between atoms: C_7  and  C_8
REMARK    7  A    between atoms: C_8  and  O_9
REMARK    8  A    between atoms: O_9  and  C_10
REMARK    9  A    between atoms: N_18  and  C_19
REMARK   10  A    between atoms: C_19  and  C_20
REMARK   11  A    between atoms: N_24  and  C_25
REMARK   12  A    between atoms: C_25  and  C_26
REMARK                            x       y       z     vdW  Elec       q    Type
REMARK                         _______ _______ _______ _____ _____    ______ ____
ROOT
ATOM      1  C   UNL     1       6.640   6.394  17.877  0.00  0.00    +0.000 C 
ATOM      2  C   UNL     1       6.023   5.582  19.036  0.00  0.00    +0.000 C 
ATOM      3  C   UNL     1       4.611   5.073  18.729  0.00  0.00    +0.000 C 
ATOM      4  N   UNL     1       3.705   6.160  18.314  0.00  0.00    +0.000 NA
ATOM      5  C   UNL     1       4.253   6.877  17.151  0.00  0.00    +0.000 C 
ATOM      6  C   UNL     1       5.616   7.485  17.490  0.00  0.00    +0.000 C 
ENDROOT
BRANCH   1   7
ATOM      7  C   UNL     1       6.901   5.566  16.613  0.00  0.00    +0.000 C 
ATOM      8  O   UNL     1       7.468   6.033  15.622  0.00  0.00    +0.000 OA
BRANCH   7   9
ATOM      9  O   UNL     1       6.518   4.271  16.711  0.00  0.00    +0.000 OA
BRANCH   9  11
ATOM     10  C   UNL     1       6.290   3.786  14.334  0.00  0.00    +0.000 C 
ATOM     11  C   UNL     1       5.595   3.855  15.684  0.00  0.00    +0.000 C 
ENDBRANCH   9  11
ENDBRANCH   7   9
ENDBRANCH   1   7
BRANCH   1  12
ATOM     12  C   UNL     1       7.989   7.012  18.338  0.00  0.00    +0.000 C 
BRANCH  12  13
ATOM     13  C   UNL     1       8.172   8.479  17.928  0.00  0.00    +0.000 C 
BRANCH  13  14
ATOM     14  O   UNL     1       8.843   9.200  18.965  0.00  0.00    +0.000 OA
BRANCH  14  15
ATOM     15  C   UNL     1       9.240  10.463  18.596  0.00  0.00    +0.000 A 
ATOM     16  C   UNL     1       8.279  11.231  17.936  0.00  0.00    +0.000 A 
ATOM     17  C   UNL     1       8.582  12.527  17.509  0.00  0.00    +0.000 A 
ATOM     18  C   UNL     1       9.843  13.070  17.757  0.00  0.00    +0.000 A 
ATOM     19  C   UNL     1      10.799  12.316  18.434  0.00  0.00    +0.000 A 
ATOM     20  C   UNL     1      10.497  11.017  18.856  0.00  0.00    +0.000 A 
ENDBRANCH  14  15
ENDBRANCH  13  14
ENDBRANCH  12  13
ENDBRANCH   1  12
BRANCH   4  21
ATOM     21  C   UNL     1       2.377   5.583  17.992  0.00  0.00    +0.000 C 
BRANCH  21  22
ATOM     22  C   UNL     1       2.293   4.090  18.153  0.00  0.00    +0.000 A 
ATOM     23  N   UNL     1       2.737   3.235  17.245  0.00  0.00    +0.000 NA
ATOM     24  C   UNL     1       2.442   1.988  17.718  0.00  0.00    +0.000 A 
ATOM     25  C   UNL     1       1.808   2.073  18.930  0.00  0.00    +0.000 A 
ATOM     26  N   UNL     1       1.730   3.414  19.215  0.00  0.00    +0.000 N 
BRANCH  26  27
ATOM     27  C   UNL     1       1.250   3.942  20.475  0.00  0.00    +0.000 C 
ATOM     28  C   UNL     1       2.191   3.751  21.654  0.00  0.00    +0.000 C 
ENDBRANCH  26  27
ENDBRANCH  21  22
ENDBRANCH   4  21
TORSDOF 10
ENDMDL
MODEL 9
REMARK VINA RESULT:      -6.9      1.067      1.969
REMARK  Name = 
REMARK  12 active torsions:
REMARK  status: ('A' for Active; 'I' for Inactive)
REMARK    1  A    between atoms: C_1  and  C_2
REMARK    2  A    between atoms: C_2  and  O_3
REMARK    3  A    between atoms: O_3  and  C_4
REMARK    4  A    between atoms: C_4  and  C_6
REMARK    5  A    between atoms: C_6  and  C_7
REMARK    6  A    between atoms: C_7  and  C_8
REMARK    7  A    between atoms: C_8  and  O_9
REMARK    8  A    between atoms: O_9  and  C_10
REMARK    9  A    between atoms: N_18  and  C_19
REMARK   10  A    between atoms: C_19  and  C_20
REMARK   11  A    between atoms: N_24  and  C_25
REMARK   12  A    between atoms: C_25  and  C_26
REMARK                            x       y       z     vdW  Elec       q    Type
REMARK                         _______ _______ _______ _____ _____    ______ ____
ROOT
ATOM      1  C   UNL     1       6.759   6.457  17.443  0.00  0.00    +0.000 C 
ATOM      2  C   UNL     1       6.416   6.426  18.949  0.00  0.00    +0.000 C 
ATOM      3  C   UNL     1       5.187   5.568  19.267  0.00  0.00    +0.000 C 
ATOM      4  N   UNL     1       4.010   5.962  18.471  0.00  0.00    +0.000 NA
ATOM      5  C   UNL     1       4.313   5.905  17.032  0.00  0.00    +0.000 C 
ATOM      6  C   UNL     1       5.469   6.849  16.690  0.00  0.00    +0.000 C 
ENDROOT
BRANCH   1   7
ATOM      7  C   UNL     1       7.203   5.100  16.883  0.00  0.00    +0.000 C 
ATOM      8  O   UNL     1       7.528   4.159  17.612  0.00  0.00    +0.000 OA
BRANCH   7   9
ATOM      9  O   UNL     1       7.138   5.011  15.533  0.00  0.00    +0.000 OA
BRANCH   9  11
ATOM     10  C   UNL     1       5.828   4.059  13.713  0.00  0.00    +0.000 C 
ATOM     11  C   UNL     1       6.491   3.813  15.058  0.00  0.00    +0.000 C 
ENDBRANCH   9  11
ENDBRANCH   7   9
ENDBRANCH   1   7
BRANCH   1  12
ATOM     12  C   UNL     1       7.901   7.480  17.193  0.00  0.00    +0.000 C 
BRANCH  12  13
ATOM     13  C   UNL     1       8.184   8.399  18.389  0.00  0.00    +0.000 C 
BRANCH  13  14
ATOM     14  O   UNL     1       8.190   9.766  17.969  0.00  0.00    +0.000 OA
BRANCH  14  15
ATOM     15  C   UNL     1       9.216  10.508  18.506  0.00  0.00    +0.000 A 
ATOM     16  C   UNL     1       9.254  10.565  19.901  0.00  0.00    +0.000 A 
ATOM     17  C   UNL     1      10.251  11.299  20.550  0.00  0.00    +0.000 A 
ATOM     18  C   UNL     1      11.226  11.966  19.808  0.00  0.00    +0.000 A 
ATOM     19  C   UNL     1      11.205  11.895  18.417  0.00  0.00    +0.000 A 
ATOM     20  C   UNL     1      10.204  11.165  17.768  0.00  0.00    +0.000 A 
ENDBRANCH  14  15
ENDBRANCH  13  14
ENDBRANCH  12  13
ENDBRANCH   1  12
BRANCH   4  21
ATOM     21  C   UNL     1       2.881   5.060  18.802  0.00  0.00    +0.000 C 
BRANCH  21  22
ATOM     22  C   UNL     1       3.187   3.596  18.643  0.00  0.00    +0.000 A 
ATOM     23  N   UNL     1       3.565   3.054  17.496  0.00  0.00    +0.000 NA
ATOM     24  C   UNL     1       3.699   1.715  17.732  0.00  0.00    +0.000 A 
ATOM     25  C   UNL     1       3.400   1.427  19.038  0.00  0.00    +0.000 A 
ATOM     26  N   UNL     1       3.091   2.631  19.622  0.00  0.00    +0.000 N 
BRANCH  26  27
ATOM     27  C   UNL     1       2.847   2.798  21.040  0.00  0.00    +0.000 C 
ATOM     28  C   UNL     1       1.381   2.831  21.443  0.00  0.00    +0.000 C 
ENDBRANCH  26  27
ENDBRANCH  21  22
ENDBRANCH   4  21
TORSDOF 10
ENDMDL
