MODEL 1
REMARK VINA RESULT:      -8.0      0.000      0.000
REMARK  Name = 
REMARK  11 active torsions:
REMARK  status: ('A' for Active; 'I' for Inactive)
REMARK    1  A    between atoms: C_1  and  C_2
REMARK    2  A    between atoms: C_3  and  C_4
REMARK    3  A    between atoms: C_4  and  O_6
REMARK    4  A    between atoms: O_6  and  C_7
REMARK    5  A    between atoms: C_8  and  C_9
REMARK    6  A    between atoms: C_12  and  C_13
REMARK    7  A    between atoms: C_12  and  C_14
REMARK    8  A    between atoms: C_19  and  C_20
REMARK    9  A    between atoms: C_19  and  C_21
REMARK   10  A    between atoms: N_26  and  C_27
REMARK   11  A    between atoms: C_27  and  C_28
REMARK                            x       y       z     vdW  Elec       q    Type
REMARK                         _______ _______ _______ _____ _____    ______ ____
ROOT
ATOM      1  C   UNL     1       0.149  12.178  20.393  0.00  0.00    +0.000 C 
ATOM      2  C   UNL     1      -0.941  13.248  20.666  0.00  0.00    +0.000 C 
ATOM      3  O   UNL     1      -0.317  14.348  21.355  0.00  0.00    +0.000 OA
ATOM      4  C   UNL     1       1.084  14.284  21.164  0.00  0.00    +0.000 C 
ATOM      5  O   UNL     1       1.554  15.035  20.049  0.00  0.00    +0.000 OA
ATOM      6  C   UNL     1       2.706  14.311  19.598  0.00  0.00    +0.000 C 
ATOM      7  C   UNL     1       2.866  14.493  18.095  0.00  0.00    +0.000 C 
ATOM      8  C   UNL     1       3.972  14.821  20.304  0.00  0.00    +0.000 C 
ATOM      9  O   UNL     1       2.517  12.918  19.892  0.00  0.00    +0.000 OA
ATOM     10  C   UNL     1       1.456  12.859  20.841  0.00  0.00    +0.000 C 
ENDROOT
BRANCH   2  11
ATOM     11  C   UNL     1      -2.177  12.761  21.472  0.00  0.00    +0.000 C 
ATOM     12  C   UNL     1      -1.932  11.795  22.610  0.00  0.00    +0.000 C 
ATOM     13  O   UNL     1      -3.104  11.876  23.428  0.00  0.00    +0.000 OA
ATOM     14  C   UNL     1      -3.732  13.127  23.095  0.00  0.00    +0.000 C 
ATOM     15  C   UNL     1      -5.091  12.837  22.476  0.00  0.00    +0.000 C 
ATOM     16  C   UNL     1      -3.903  13.944  24.373  0.00  0.00    +0.000 C 
ATOM     17  O   UNL     1      -2.904  13.818  22.137  0.00  0.00    +0.000 OA
ENDBRANCH   2  11
BRANCH   1  18
ATOM     18  O   UNL     1       0.183  11.688  19.023  0.00  0.00    +0.000 OA
BRANCH  18  19
ATOM     19  C   UNL     1      -0.156  10.362  18.846  0.00  0.00    +0.000 C 
ATOM     20  O   UNL     1      -1.323   9.988  18.803  0.00  0.00    +0.000 OA
BRANCH  19  23
ATOM     21  C   UNL     1       1.314   8.439  21.108  0.00  0.00    +0.000 C 
ATOM     22  C   UNL     1       1.579   8.631  19.662  0.00  0.00    +0.000 A 
ATOM     23  C   UNL     1       0.978   9.438  18.693  0.00  0.00    +0.000 A 
ATOM     24  N   UNL     1       1.639   9.248  17.504  0.00  0.00    +0.000 NA
ATOM     25  N   UNL     1       2.600   8.352  17.688  0.00  0.00    +0.000 NA
ATOM     26  N   UNL     1       2.546   7.918  18.969  0.00  0.00    +0.000 N 
BRANCH  26  27
ATOM     27  C   UNL     1       3.080   6.591  19.274  0.00  0.00    +0.000 C 
BRANCH  27  28
ATOM     28  C   UNL     1       2.140   5.397  19.280  0.00  0.00    +0.000 A 
ATOM     29  C   UNL     1       2.046   4.620  18.115  0.00  0.00    +0.000 A 
ATOM     30  C   UNL     1       1.383   3.388  18.097  0.00  0.00    +0.000 A 
ATOM     31  C   UNL     1       0.806   2.901  19.266  0.00  0.00    +0.000 A 
ATOM     32  C   UNL     1       0.867   3.667  20.425  0.00  0.00    +0.000 A 
ATOM     33  C   UNL     1       1.527   4.908  20.440  0.00  0.00    +0.000 A 
ENDBRANCH  27  28
ENDBRANCH  26  27
ENDBRANCH  19  23
ENDBRANCH  18  19
ENDBRANCH   1  18
TORSDOF 6
ENDMDL
MODEL 2
REMARK VINA RESULT:      -7.9      2.644      4.030
REMARK  Name = 
REMARK  11 active torsions:
REMARK  status: ('A' for Active; 'I' for Inactive)
REMARK    1  A    between atoms: C_1  and  C_2
REMARK    2  A    between atoms: C_3  and  C_4
REMARK    3  A    between atoms: C_4  and  O_6
REMARK    4  A    between atoms: O_6  and  C_7
REMARK    5  A    between atoms: C_8  and  C_9
REMARK    6  A    between atoms: C_12  and  C_13
REMARK    7  A    between atoms: C_12  and  C_14
REMARK    8  A    between atoms: C_19  and  C_20
REMARK    9  A    between atoms: C_19  and  C_21
REMARK   10  A    between atoms: N_26  and  C_27
REMARK   11  A    between atoms: C_27  and  C_28
REMARK                            x       y       z     vdW  Elec       q    Type
REMARK                         _______ _______ _______ _____ _____    ______ ____
ROOT
ATOM      1  C   UNL     1      -0.216  11.234  19.869  0.00  0.00    +0.000 C 
ATOM      2  C   UNL     1      -0.493  11.771  18.440  0.00  0.00    +0.000 C 
ATOM      3  O   UNL     1      -0.883  13.153  18.555  0.00  0.00    +0.000 OA
ATOM      4  C   UNL     1      -0.474  13.650  19.816  0.00  0.00    +0.000 C 
ATOM      5  O   UNL     1       0.809  14.268  19.810  0.00  0.00    +0.000 OA
ATOM      6  C   UNL     1       1.323  14.022  21.125  0.00  0.00    +0.000 C 
ATOM      7  C   UNL     1       2.842  13.925  21.068  0.00  0.00    +0.000 C 
ATOM      8  C   UNL     1       0.928  15.162  22.078  0.00  0.00    +0.000 C 
ATOM      9  O   UNL     1       0.783  12.782  21.605  0.00  0.00    +0.000 OA
ATOM     10  C   UNL     1      -0.326  12.485  20.762  0.00  0.00    +0.000 C 
ENDROOT
BRANCH   2  11
ATOM     11  C   UNL     1      -1.559  10.994  17.622  0.00  0.00    +0.000 C 
ATOM     12  C   UNL     1      -2.227   9.812  18.291  0.00  0.00    +0.000 C 
ATOM     13  O   UNL     1      -3.425   9.586  17.542  0.00  0.00    +0.000 OA
ATOM     14  C   UNL     1      -3.692  10.816  16.843  0.00  0.00    +0.000 C 
ATOM     15  C   UNL     1      -3.594  10.554  15.347  0.00  0.00    +0.000 C 
ATOM     16  C   UNL     1      -5.099  11.287  17.201  0.00  0.00    +0.000 C 
ATOM     17  O   UNL     1      -2.699  11.789  17.228  0.00  0.00    +0.000 OA
ENDBRANCH   2  11
BRANCH   1  18
ATOM     18  O   UNL     1       1.045  10.521  20.012  0.00  0.00    +0.000 OA
BRANCH  18  19
ATOM     19  C   UNL     1       0.950   9.158  20.202  0.00  0.00    +0.000 C 
ATOM     20  O   UNL     1       0.166   8.664  21.006  0.00  0.00    +0.000 OA
BRANCH  19  23
ATOM     21  C   UNL     1       1.926   6.015  20.594  0.00  0.00    +0.000 C 
ATOM     22  C   UNL     1       2.232   7.014  19.542  0.00  0.00    +0.000 A 
ATOM     23  C   UNL     1       1.839   8.343  19.361  0.00  0.00    +0.000 A 
ATOM     24  N   UNL     1       2.442   8.818  18.221  0.00  0.00    +0.000 NA
ATOM     25  N   UNL     1       3.168   7.846  17.685  0.00  0.00    +0.000 NA
ATOM     26  N   UNL     1       3.010   6.728  18.430  0.00  0.00    +0.000 N 
BRANCH  26  27
ATOM     27  C   UNL     1       3.220   5.431  17.787  0.00  0.00    +0.000 C 
BRANCH  27  28
ATOM     28  C   UNL     1       4.639   4.955  17.525  0.00  0.00    +0.000 A 
ATOM     29  C   UNL     1       4.972   4.544  16.224  0.00  0.00    +0.000 A 
ATOM     30  C   UNL     1       6.295   4.302  15.838  0.00  0.00    +0.000 A 
ATOM     31  C   UNL     1       7.323   4.482  16.759  0.00  0.00    +0.000 A 
ATOM     32  C   UNL     1       7.012   4.864  18.060  0.00  0.00    +0.000 A 
ATOM     33  C   UNL     1       5.681   5.101  18.448  0.00  0.00    +0.000 A 
ENDBRANCH  27  28
ENDBRANCH  26  27
ENDBRANCH  19  23
ENDBRANCH  18  19
ENDBRANCH   1  18
TORSDOF 6
ENDMDL
MODEL 3
REMARK VINA RESULT:      -7.8      2.180      5.250
REMARK  Name = 
REMARK  11 active torsions:
REMARK  status: ('A' for Active; 'I' for Inactive)
REMARK    1  A    between atoms: C_1  and  C_2
REMARK    2  A    between atoms: C_3  and  C_4
REMARK    3  A    between atoms: C_4  and  O_6
REMARK    4  A    between atoms: O_6  and  C_7
REMARK    5  A    between atoms: C_8  and  C_9
REMARK    6  A    between atoms: C_12  and  C_13
REMARK    7  A    between atoms: C_12  and  C_14
REMARK    8  A    between atoms: C_19  and  C_20
REMARK    9  A    between atoms: C_19  and  C_21
REMARK   10  A    between atoms: N_26  and  C_27
REMARK   11  A    between atoms: C_27  and  C_28
REMARK                            x       y       z     vdW  Elec       q    Type
REMARK                         _______ _______ _______ _____ _____    ______ ____
ROOT
ATOM      1  C   UNL     1       0.727  11.955  19.660  0.00  0.00    +0.000 C 
ATOM      2  C   UNL     1       1.788  12.917  20.257  0.00  0.00    +0.000 C 
ATOM      3  O   UNL     1       1.097  13.884  21.071  0.00  0.00    +0.000 OA
ATOM      4  C   UNL     1      -0.190  13.391  21.392  0.00  0.00    +0.000 C 
ATOM      5  O   UNL     1      -0.249  12.677  22.623  0.00  0.00    +0.000 OA
ATOM      6  C   UNL     1      -1.285  11.708  22.418  0.00  0.00    +0.000 C 
ATOM      7  C   UNL     1      -0.990  10.464  23.245  0.00  0.00    +0.000 C 
ATOM      8  C   UNL     1      -2.648  12.281  22.840  0.00  0.00    +0.000 C 
ATOM      9  O   UNL     1      -1.319  11.359  21.026  0.00  0.00    +0.000 OA
ATOM     10  C   UNL     1      -0.585  12.376  20.350  0.00  0.00    +0.000 C 
ENDROOT
BRANCH   2  11
ATOM     11  C   UNL     1       2.690  13.650  19.227  0.00  0.00    +0.000 C 
ATOM     12  C   UNL     1       2.043  14.707  18.359  0.00  0.00    +0.000 C 
ATOM     13  O   UNL     1       3.126  15.502  17.867  0.00  0.00    +0.000 OA
ATOM     14  C   UNL     1       4.229  15.263  18.761  0.00  0.00    +0.000 C 
ATOM     15  C   UNL     1       5.348  14.590  17.979  0.00  0.00    +0.000 C 
ATOM     16  C   UNL     1       4.709  16.602  19.315  0.00  0.00    +0.000 C 
ATOM     17  O   UNL     1       3.785  14.386  19.817  0.00  0.00    +0.000 OA
ENDBRANCH   2  11
BRANCH   1  18
ATOM     18  O   UNL     1       1.042  10.542  19.811  0.00  0.00    +0.000 OA
BRANCH  18  19
ATOM     19  C   UNL     1       0.838   9.754  18.696  0.00  0.00    +0.000 C 
ATOM     20  O   UNL     1      -0.116   9.924  17.944  0.00  0.00    +0.000 OA
BRANCH  19  23
ATOM     21  C   UNL     1       1.682   7.178  20.601  0.00  0.00    +0.000 C 
ATOM     22  C   UNL     1       2.187   7.631  19.283  0.00  0.00    +0.000 A 
ATOM     23  C   UNL     1       1.852   8.715  18.467  0.00  0.00    +0.000 A 
ATOM     24  N   UNL     1       2.657   8.681  17.354  0.00  0.00    +0.000 NA
ATOM     25  N   UNL     1       3.454   7.623  17.436  0.00  0.00    +0.000 NA
ATOM     26  N   UNL     1       3.148   6.939  18.562  0.00  0.00    +0.000 N 
BRANCH  26  27
ATOM     27  C   UNL     1       3.453   5.509  18.607  0.00  0.00    +0.000 C 
BRANCH  27  28
ATOM     28  C   UNL     1       4.751   5.008  17.996  0.00  0.00    +0.000 A 
ATOM     29  C   UNL     1       4.699   4.408  16.728  0.00  0.00    +0.000 A 
ATOM     30  C   UNL     1       5.856   4.119  15.996  0.00  0.00    +0.000 A 
ATOM     31  C   UNL     1       7.102   4.442  16.525  0.00  0.00    +0.000 A 
ATOM     32  C   UNL     1       7.177   5.014  17.791  0.00  0.00    +0.000 A 
ATOM     33  C   UNL     1       6.013   5.297  18.528  0.00  0.00    +0.000 A 
ENDBRANCH  27  28
ENDBRANCH  26  27
ENDBRANCH  19  23
ENDBRANCH  18  19
ENDBRANCH   1  18
TORSDOF 6
ENDMDL
MODEL 4
REMARK VINA RESULT:      -7.8      1.100      4.617
REMARK  Name = 
REMARK  11 active torsions:
REMARK  status: ('A' for Active; 'I' for Inactive)
REMARK    1  A    between atoms: C_1  and  C_2
REMARK    2  A    between atoms: C_3  and  C_4
REMARK    3  A    between atoms: C_4  and  O_6
REMARK    4  A    between atoms: O_6  and  C_7
REMARK    5  A    between atoms: C_8  and  C_9
REMARK    6  A    between atoms: C_12  and  C_13
REMARK    7  A    between atoms: C_12  and  C_14
REMARK    8  A    between atoms: C_19  and  C_20
REMARK    9  A    between atoms: C_19  and  C_21
REMARK   10  A    between atoms: N_26  and  C_27
REMARK   11  A    between atoms: C_27  and  C_28
REMARK                            x       y       z     vdW  Elec       q    Type
REMARK                         _______ _______ _______ _____ _____    ______ ____
ROOT
ATOM      1  C   UNL     1       0.114  12.538  19.968  0.00  0.00    +0.000 C 
ATOM      2  C   UNL     1       1.271  13.232  20.734  0.00  0.00    +0.000 C 
ATOM      3  O   UNL     1       0.755  14.449  21.306  0.00  0.00    +0.000 OA
ATOM      4  C   UNL     1      -0.658  14.383  21.350  0.00  0.00    +0.000 C 
ATOM      5  O   UNL     1      -1.179  13.876  22.574  0.00  0.00    +0.000 OA
ATOM      6  C   UNL     1      -2.395  13.219  22.195  0.00  0.00    +0.000 C 
ATOM      7  C   UNL     1      -2.664  12.057  23.141  0.00  0.00    +0.000 C 
ATOM      8  C   UNL     1      -3.577  14.200  22.254  0.00  0.00    +0.000 C 
ATOM      9  O   UNL     1      -2.249  12.720  20.857  0.00  0.00    +0.000 OA
ATOM     10  C   UNL     1      -1.121  13.395  20.308  0.00  0.00    +0.000 C 
ENDROOT
BRANCH   2  11
ATOM     11  C   UNL     1       2.542  13.545  19.898  0.00  0.00    +0.000 C 
ATOM     12  C   UNL     1       2.600  13.003  18.486  0.00  0.00    +0.000 C 
ATOM     13  O   UNL     1       3.599  13.787  17.826  0.00  0.00    +0.000 OA
ATOM     14  C   UNL     1       3.735  14.990  18.604  0.00  0.00    +0.000 C 
ATOM     15  C   UNL     1       5.143  15.038  19.180  0.00  0.00    +0.000 C 
ATOM     16  C   UNL     1       3.502  16.191  17.691  0.00  0.00    +0.000 C 
ATOM     17  O   UNL     1       2.775  14.955  19.680  0.00  0.00    +0.000 OA
ENDBRANCH   2  11
BRANCH   1  18
ATOM     18  O   UNL     1      -0.050  11.125  20.273  0.00  0.00    +0.000 OA
BRANCH  18  19
ATOM     19  C   UNL     1      -0.212  10.286  19.189  0.00  0.00    +0.000 C 
ATOM     20  O   UNL     1      -1.228  10.297  18.502  0.00  0.00    +0.000 OA
BRANCH  19  23
ATOM     21  C   UNL     1       1.383   8.198  21.208  0.00  0.00    +0.000 C 
ATOM     22  C   UNL     1       1.579   8.519  19.774  0.00  0.00    +0.000 A 
ATOM     23  C   UNL     1       0.926   9.398  18.907  0.00  0.00    +0.000 A 
ATOM     24  N   UNL     1       1.535   9.323  17.678  0.00  0.00    +0.000 NA
ATOM     25  N   UNL     1       2.515   8.430  17.741  0.00  0.00    +0.000 NA
ATOM     26  N   UNL     1       2.523   7.886  18.980  0.00  0.00    +0.000 N 
BRANCH  26  27
ATOM     27  C   UNL     1       3.087   6.546  19.143  0.00  0.00    +0.000 C 
BRANCH  27  28
ATOM     28  C   UNL     1       2.150   5.351  19.216  0.00  0.00    +0.000 A 
ATOM     29  C   UNL     1       1.916   4.618  18.042  0.00  0.00    +0.000 A 
ATOM     30  C   UNL     1       1.253   3.387  18.056  0.00  0.00    +0.000 A 
ATOM     31  C   UNL     1       0.817   2.855  19.266  0.00  0.00    +0.000 A 
ATOM     32  C   UNL     1       1.016   3.577  20.438  0.00  0.00    +0.000 A 
ATOM     33  C   UNL     1       1.678   4.818  20.421  0.00  0.00    +0.000 A 
ENDBRANCH  27  28
ENDBRANCH  26  27
ENDBRANCH  19  23
ENDBRANCH  18  19
ENDBRANCH   1  18
TORSDOF 6
ENDMDL
MODEL 5
REMARK VINA RESULT:      -7.7      2.190      3.739
REMARK  Name = 
REMARK  11 active torsions:
REMARK  status: ('A' for Active; 'I' for Inactive)
REMARK    1  A    between atoms: C_1  and  C_2
REMARK    2  A    between atoms: C_3  and  C_4
REMARK    3  A    between atoms: C_4  and  O_6
REMARK    4  A    between atoms: O_6  and  C_7
REMARK    5  A    between atoms: C_8  and  C_9
REMARK    6  A    between atoms: C_12  and  C_13
REMARK    7  A    between atoms: C_12  and  C_14
REMARK    8  A    between atoms: C_19  and  C_20
REMARK    9  A    between atoms: C_19  and  C_21
REMARK   10  A    between atoms: N_26  and  C_27
REMARK   11  A    between atoms: C_27  and  C_28
REMARK                            x       y       z     vdW  Elec       q    Type
REMARK                         _______ _______ _______ _____ _____    ______ ____
ROOT
ATOM      1  C   UNL     1      -1.137  12.357  20.185  0.00  0.00    +0.000 C 
ATOM      2  C   UNL     1      -0.579  12.225  18.743  0.00  0.00    +0.000 C 
ATOM      3  O   UNL     1      -0.544  13.541  18.160  0.00  0.00    +0.000 OA
ATOM      4  C   UNL     1      -0.604  14.510  19.190  0.00  0.00    +0.000 C 
ATOM      5  O   UNL     1       0.669  14.948  19.653  0.00  0.00    +0.000 OA
ATOM      6  C   UNL     1       0.451  15.269  21.032  0.00  0.00    +0.000 C 
ATOM      7  C   UNL     1       1.731  15.026  21.821  0.00  0.00    +0.000 C 
ATOM      8  C   UNL     1       0.041  16.742  21.183  0.00  0.00    +0.000 C 
ATOM      9  O   UNL     1      -0.590  14.423  21.542  0.00  0.00    +0.000 OA
ATOM     10  C   UNL     1      -1.247  13.879  20.400  0.00  0.00    +0.000 C 
ENDROOT
BRANCH   2  11
ATOM     11  C   UNL     1      -1.355  11.259  17.806  0.00  0.00    +0.000 C 
ATOM     12  C   UNL     1      -2.034  10.065  18.441  0.00  0.00    +0.000 C 
ATOM     13  O   UNL     1      -3.007   9.635  17.484  0.00  0.00    +0.000 OA
ATOM     14  C   UNL     1      -3.234  10.763  16.617  0.00  0.00    +0.000 C 
ATOM     15  C   UNL     1      -2.781  10.393  15.213  0.00  0.00    +0.000 C 
ATOM     16  C   UNL     1      -4.725  11.088  16.619  0.00  0.00    +0.000 C 
ATOM     17  O   UNL     1      -2.453  11.877  17.097  0.00  0.00    +0.000 OA
ENDBRANCH   2  11
BRANCH   1  18
ATOM     18  O   UNL     1      -0.349  11.677  21.201  0.00  0.00    +0.000 OA
BRANCH  18  19
ATOM     19  C   UNL     1       0.915  11.276  20.819  0.00  0.00    +0.000 C 
ATOM     20  O   UNL     1       1.804  12.081  20.561  0.00  0.00    +0.000 OA
BRANCH  19  23
ATOM     21  C   UNL     1       1.710   9.357  18.238  0.00  0.00    +0.000 C 
ATOM     22  C   UNL     1       1.466   9.032  19.664  0.00  0.00    +0.000 A 
ATOM     23  C   UNL     1       1.125   9.821  20.765  0.00  0.00    +0.000 A 
ATOM     24  N   UNL     1       0.992   9.000  21.858  0.00  0.00    +0.000 NA
ATOM     25  N   UNL     1       1.253   7.753  21.490  0.00  0.00    +0.000 NA
ATOM     26  N   UNL     1       1.602   7.753  20.182  0.00  0.00    +0.000 N 
BRANCH  26  27
ATOM     27  C   UNL     1       2.449   6.666  19.691  0.00  0.00    +0.000 C 
BRANCH  27  28
ATOM     28  C   UNL     1       1.830   5.301  19.440  0.00  0.00    +0.000 A 
ATOM     29  C   UNL     1       1.985   4.726  18.168  0.00  0.00    +0.000 A 
ATOM     30  C   UNL     1       1.646   3.394  17.910  0.00  0.00    +0.000 A 
ATOM     31  C   UNL     1       1.150   2.599  18.939  0.00  0.00    +0.000 A 
ATOM     32  C   UNL     1       0.966   3.157  20.201  0.00  0.00    +0.000 A 
ATOM     33  C   UNL     1       1.301   4.498  20.456  0.00  0.00    +0.000 A 
ENDBRANCH  27  28
ENDBRANCH  26  27
ENDBRANCH  19  23
ENDBRANCH  18  19
ENDBRANCH   1  18
TORSDOF 6
ENDMDL
MODEL 6
REMARK VINA RESULT:      -7.7      2.424      3.681
REMARK  Name = 
REMARK  11 active torsions:
REMARK  status: ('A' for Active; 'I' for Inactive)
REMARK    1  A    between atoms: C_1  and  C_2
REMARK    2  A    between atoms: C_3  and  C_4
REMARK    3  A    between atoms: C_4  and  O_6
REMARK    4  A    between atoms: O_6  and  C_7
REMARK    5  A    between atoms: C_8  and  C_9
REMARK    6  A    between atoms: C_12  and  C_13
REMARK    7  A    between atoms: C_12  and  C_14
REMARK    8  A    between atoms: C_19  and  C_20
REMARK    9  A    between atoms: C_19  and  C_21
REMARK   10  A    between atoms: N_26  and  C_27
REMARK   11  A    between atoms: C_27  and  C_28
REMARK                            x       y       z     vdW  Elec       q    Type
REMARK                         _______ _______ _______ _____ _____    ______ ____
ROOT
ATOM      1  C   UNL     1      -0.122  11.560  20.056  0.00  0.00    +0.000 C 
ATOM      2  C   UNL     1      -0.254  11.949  18.559  0.00  0.00    +0.000 C 
ATOM      3  O   UNL     1      -0.658  13.329  18.496  0.00  0.00    +0.000 OA
ATOM      4  C   UNL     1      -0.382  13.955  19.736  0.00  0.00    +0.000 C 
ATOM      5  O   UNL     1       0.893  14.586  19.798  0.00  0.00    +0.000 OA
ATOM      6  C   UNL     1       1.272  14.479  21.175  0.00  0.00    +0.000 C 
ATOM      7  C   UNL     1       2.788  14.397  21.282  0.00  0.00    +0.000 C 
ATOM      8  C   UNL     1       0.778  15.702  21.965  0.00  0.00    +0.000 C 
ATOM      9  O   UNL     1       0.690  13.285  21.720  0.00  0.00    +0.000 OA
ATOM     10  C   UNL     1      -0.327  12.891  20.803  0.00  0.00    +0.000 C 
ENDROOT
BRANCH   2  11
ATOM     11  C   UNL     1      -1.229  11.079  17.720  0.00  0.00    +0.000 C 
ATOM     12  C   UNL     1      -1.914   9.925  18.419  0.00  0.00    +0.000 C 
ATOM     13  O   UNL     1      -3.041   9.606  17.597  0.00  0.00    +0.000 OA
ATOM     14  C   UNL     1      -3.287  10.774  16.793  0.00  0.00    +0.000 C 
ATOM     15  C   UNL     1      -3.062  10.412  15.332  0.00  0.00    +0.000 C 
ATOM     16  C   UNL     1      -4.731  11.219  17.006  0.00  0.00    +0.000 C 
ATOM     17  O   UNL     1      -2.357  11.806  17.182  0.00  0.00    +0.000 OA
ENDBRANCH   2  11
BRANCH   1  18
ATOM     18  O   UNL     1       1.120  10.881  20.396  0.00  0.00    +0.000 OA
BRANCH  18  19
ATOM     19  C   UNL     1       1.005   9.796  21.241  0.00  0.00    +0.000 C 
ATOM     20  O   UNL     1       0.604   9.908  22.395  0.00  0.00    +0.000 OA
BRANCH  19  23
ATOM     21  C   UNL     1       2.102   9.101  18.193  0.00  0.00    +0.000 C 
ATOM     22  C   UNL     1       1.845   8.231  19.365  0.00  0.00    +0.000 A 
ATOM     23  C   UNL     1       1.377   8.500  20.654  0.00  0.00    +0.000 A 
ATOM     24  N   UNL     1       1.298   7.313  21.340  0.00  0.00    +0.000 NA
ATOM     25  N   UNL     1       1.710   6.333  20.546  0.00  0.00    +0.000 NA
ATOM     26  N   UNL     1       2.104   6.869  19.368  0.00  0.00    +0.000 N 
BRANCH  26  27
ATOM     27  C   UNL     1       3.083   6.135  18.566  0.00  0.00    +0.000 C 
BRANCH  27  28
ATOM     28  C   UNL     1       3.098   4.617  18.621  0.00  0.00    +0.000 A 
ATOM     29  C   UNL     1       2.282   3.912  17.722  0.00  0.00    +0.000 A 
ATOM     30  C   UNL     1       2.392   2.528  17.549  0.00  0.00    +0.000 A 
ATOM     31  C   UNL     1       3.344   1.818  18.275  0.00  0.00    +0.000 A 
ATOM     32  C   UNL     1       4.145   2.494  19.190  0.00  0.00    +0.000 A 
ATOM     33  C   UNL     1       4.028   3.884  19.367  0.00  0.00    +0.000 A 
ENDBRANCH  27  28
ENDBRANCH  26  27
ENDBRANCH  19  23
ENDBRANCH  18  19
ENDBRANCH   1  18
TORSDOF 6
ENDMDL
MODEL 7
REMARK VINA RESULT:      -7.7      1.383      4.707
REMARK  Name = 
REMARK  11 active torsions:
REMARK  status: ('A' for Active; 'I' for Inactive)
REMARK    1  A    between atoms: C_1  and  C_2
REMARK    2  A    between atoms: C_3  and  C_4
REMARK    3  A    between atoms: C_4  and  O_6
REMARK    4  A    between atoms: O_6  and  C_7
REMARK    5  A    between atoms: C_8  and  C_9
REMARK    6  A    between atoms: C_12  and  C_13
REMARK    7  A    between atoms: C_12  and  C_14
REMARK    8  A    between atoms: C_19  and  C_20
REMARK    9  A    between atoms: C_19  and  C_21
REMARK   10  A    between atoms: N_26  and  C_27
REMARK   11  A    between atoms: C_27  and  C_28
REMARK                            x       y       z     vdW  Elec       q    Type
REMARK                         _______ _______ _______ _____ _____    ______ ____
ROOT
ATOM      1  C   UNL     1       0.539  11.981  19.752  0.00  0.00    +0.000 C 
ATOM      2  C   UNL     1       1.718  12.805  20.335  0.00  0.00    +0.000 C 
ATOM      3  O   UNL     1       1.164  13.811  21.205  0.00  0.00    +0.000 OA
ATOM      4  C   UNL     1      -0.156  13.446  21.562  0.00  0.00    +0.000 C 
ATOM      5  O   UNL     1      -0.245  12.701  22.772  0.00  0.00    +0.000 OA
ATOM      6  C   UNL     1      -1.385  11.854  22.580  0.00  0.00    +0.000 C 
ATOM      7  C   UNL     1      -1.195  10.558  23.356  0.00  0.00    +0.000 C 
ATOM      8  C   UNL     1      -2.663  12.552  23.073  0.00  0.00    +0.000 C 
ATOM      9  O   UNL     1      -1.507  11.558  21.180  0.00  0.00    +0.000 OA
ATOM     10  C   UNL     1      -0.694  12.514  20.506  0.00  0.00    +0.000 C 
ENDROOT
BRANCH   2  11
ATOM     11  C   UNL     1       2.654  13.474  19.292  0.00  0.00    +0.000 C 
ATOM     12  C   UNL     1       2.005  14.223  18.149  0.00  0.00    +0.000 C 
ATOM     13  O   UNL     1       3.027  15.084  17.637  0.00  0.00    +0.000 OA
ATOM     14  C   UNL     1       4.002  15.208  18.689  0.00  0.00    +0.000 C 
ATOM     15  C   UNL     1       5.312  14.601  18.209  0.00  0.00    +0.000 C 
ATOM     16  C   UNL     1       4.196  16.689  19.004  0.00  0.00    +0.000 C 
ATOM     17  O   UNL     1       3.530  14.483  19.843  0.00  0.00    +0.000 OA
ENDBRANCH   2  11
BRANCH   1  18
ATOM     18  O   UNL     1       0.707  10.539  19.847  0.00  0.00    +0.000 OA
BRANCH  18  19
ATOM     19  C   UNL     1       0.720   9.850  18.651  0.00  0.00    +0.000 C 
ATOM     20  O   UNL     1      -0.074  10.096  17.749  0.00  0.00    +0.000 OA
BRANCH  19  23
ATOM     21  C   UNL     1       1.769   7.640  20.886  0.00  0.00    +0.000 C 
ATOM     22  C   UNL     1       2.185   7.893  19.486  0.00  0.00    +0.000 A 
ATOM     23  C   UNL     1       1.763   8.821  18.530  0.00  0.00    +0.000 A 
ATOM     24  N   UNL     1       2.509   8.635  17.392  0.00  0.00    +0.000 NA
ATOM     25  N   UNL     1       3.352   7.630  17.593  0.00  0.00    +0.000 NA
ATOM     26  N   UNL     1       3.134   7.125  18.829  0.00  0.00    +0.000 N 
BRANCH  26  27
ATOM     27  C   UNL     1       3.499   5.731  19.082  0.00  0.00    +0.000 C 
BRANCH  27  28
ATOM     28  C   UNL     1       2.399   4.703  19.292  0.00  0.00    +0.000 A 
ATOM     29  C   UNL     1       1.849   4.080  18.161  0.00  0.00    +0.000 A 
ATOM     30  C   UNL     1       0.997   2.974  18.264  0.00  0.00    +0.000 A 
ATOM     31  C   UNL     1       0.689   2.460  19.520  0.00  0.00    +0.000 A 
ATOM     32  C   UNL     1       1.205   3.078  20.654  0.00  0.00    +0.000 A 
ATOM     33  C   UNL     1       2.055   4.193  20.549  0.00  0.00    +0.000 A 
ENDBRANCH  27  28
ENDBRANCH  26  27
ENDBRANCH  19  23
ENDBRANCH  18  19
ENDBRANCH   1  18
TORSDOF 6
ENDMDL
MODEL 8
REMARK VINA RESULT:      -7.6      2.399      3.824
REMARK  Name = 
REMARK  11 active torsions:
REMARK  status: ('A' for Active; 'I' for Inactive)
REMARK    1  A    between atoms: C_1  and  C_2
REMARK    2  A    between atoms: C_3  and  C_4
REMARK    3  A    between atoms: C_4  and  O_6
REMARK    4  A    between atoms: O_6  and  C_7
REMARK    5  A    between atoms: C_8  and  C_9
REMARK    6  A    between atoms: C_12  and  C_13
REMARK    7  A    between atoms: C_12  and  C_14
REMARK    8  A    between atoms: C_19  and  C_20
REMARK    9  A    between atoms: C_19  and  C_21
REMARK   10  A    between atoms: N_26  and  C_27
REMARK   11  A    between atoms: C_27  and  C_28
REMARK                            x       y       z     vdW  Elec       q    Type
REMARK                         _______ _______ _______ _____ _____    ______ ____
ROOT
ATOM      1  C   UNL     1      -1.245  11.915  20.535  0.00  0.00    +0.000 C 
ATOM      2  C   UNL     1      -2.403  12.276  21.503  0.00  0.00    +0.000 C 
ATOM      3  O   UNL     1      -3.435  12.921  20.734  0.00  0.00    +0.000 OA
ATOM      4  C   UNL     1      -3.251  12.625  19.362  0.00  0.00    +0.000 C 
ATOM      5  O   UNL     1      -3.971  11.482  18.912  0.00  0.00    +0.000 OA
ATOM      6  C   UNL     1      -3.154  10.941  17.866  0.00  0.00    +0.000 C 
ATOM      7  C   UNL     1      -3.340   9.431  17.804  0.00  0.00    +0.000 C 
ATOM      8  C   UNL     1      -3.542  11.552  16.510  0.00  0.00    +0.000 C 
ATOM      9  O   UNL     1      -1.780  11.240  18.155  0.00  0.00    +0.000 OA
ATOM     10  C   UNL     1      -1.802  12.267  19.143  0.00  0.00    +0.000 C 
ENDROOT
BRANCH   2  11
ATOM     11  C   UNL     1      -2.017  13.170  22.713  0.00  0.00    +0.000 C 
ATOM     12  C   UNL     1      -0.611  13.728  22.748  0.00  0.00    +0.000 C 
ATOM     13  O   UNL     1      -0.667  14.828  23.662  0.00  0.00    +0.000 OA
ATOM     14  C   UNL     1      -2.056  15.198  23.748  0.00  0.00    +0.000 C 
ATOM     15  C   UNL     1      -2.534  14.956  25.172  0.00  0.00    +0.000 C 
ATOM     16  C   UNL     1      -2.190  16.677  23.395  0.00  0.00    +0.000 C 
ATOM     17  O   UNL     1      -2.811  14.371  22.840  0.00  0.00    +0.000 OA
ENDBRANCH   2  11
BRANCH   1  18
ATOM     18  O   UNL     1      -0.771  10.544  20.648  0.00  0.00    +0.000 OA
BRANCH  18  19
ATOM     19  C   UNL     1       0.582  10.387  20.874  0.00  0.00    +0.000 C 
ATOM     20  O   UNL     1       1.246  11.234  21.464  0.00  0.00    +0.000 OA
BRANCH  19  23
ATOM     21  C   UNL     1       1.574   9.586  17.816  0.00  0.00    +0.000 C 
ATOM     22  C   UNL     1       1.579   8.816  19.083  0.00  0.00    +0.000 A 
ATOM     23  C   UNL     1       1.161   9.130  20.379  0.00  0.00    +0.000 A 
ATOM     24  N   UNL     1       1.369   8.031  21.176  0.00  0.00    +0.000 NA
ATOM     25  N   UNL     1       1.910   7.067  20.442  0.00  0.00    +0.000 NA
ATOM     26  N   UNL     1       2.104   7.537  19.188  0.00  0.00    +0.000 N 
BRANCH  26  27
ATOM     27  C   UNL     1       3.149   6.920  18.372  0.00  0.00    +0.000 C 
BRANCH  27  28
ATOM     28  C   UNL     1       2.985   5.478  17.921  0.00  0.00    +0.000 A 
ATOM     29  C   UNL     1       4.143   4.730  17.657  0.00  0.00    +0.000 A 
ATOM     30  C   UNL     1       4.101   3.346  17.453  0.00  0.00    +0.000 A 
ATOM     31  C   UNL     1       2.882   2.678  17.524  0.00  0.00    +0.000 A 
ATOM     32  C   UNL     1       1.720   3.405  17.760  0.00  0.00    +0.000 A 
ATOM     33  C   UNL     1       1.763   4.796  17.958  0.00  0.00    +0.000 A 
ENDBRANCH  27  28
ENDBRANCH  26  27
ENDBRANCH  19  23
ENDBRANCH  18  19
ENDBRANCH   1  18
TORSDOF 6
ENDMDL
MODEL 9
REMARK VINA RESULT:      -7.6      4.311      9.726
REMARK  Name = 
REMARK  11 active torsions:
REMARK  status: ('A' for Active; 'I' for Inactive)
REMARK    1  A    between atoms: C_1  and  C_2
REMARK    2  A    between atoms: C_3  and  C_4
REMARK    3  A    between atoms: C_4  and  O_6
REMARK    4  A    between atoms: O_6  and  C_7
REMARK    5  A    between atoms: C_8  and  C_9
REMARK    6  A    between atoms: C_12  and  C_13
REMARK    7  A    between atoms: C_12  and  C_14
REMARK    8  A    between atoms: C_19  and  C_20
REMARK    9  A    between atoms: C_19  and  C_21
REMARK   10  A    between atoms: N_26  and  C_27
REMARK   11  A    between atoms: C_27  and  C_28
REMARK                            x       y       z     vdW  Elec       q    Type
REMARK                         _______ _______ _______ _____ _____    ______ ____
ROOT
ATOM      1  C   UNL     1       3.709   5.299  19.394  0.00  0.00    +0.000 C 
ATOM      2  C   UNL     1       4.706   4.339  18.692  0.00  0.00    +0.000 C 
ATOM      3  O   UNL     1       4.795   3.140  19.485  0.00  0.00    +0.000 OA
ATOM      4  C   UNL     1       3.674   3.063  20.346  0.00  0.00    +0.000 C 
ATOM      5  O   UNL     1       2.577   2.333  19.808  0.00  0.00    +0.000 OA
ATOM      6  C   UNL     1       1.423   2.954  20.389  0.00  0.00    +0.000 C 
ATOM      7  C   UNL     1       0.247   2.843  19.428  0.00  0.00    +0.000 C 
ATOM      8  C   UNL     1       1.054   2.270  21.715  0.00  0.00    +0.000 C 
ATOM      9  O   UNL     1       1.717   4.339  20.625  0.00  0.00    +0.000 OA
ATOM     10  C   UNL     1       3.135   4.457  20.549  0.00  0.00    +0.000 C 
ENDROOT
BRANCH   2  11
ATOM     11  C   UNL     1       6.129   4.908  18.443  0.00  0.00    +0.000 C 
ATOM     12  C   UNL     1       6.696   4.782  17.046  0.00  0.00    +0.000 C 
ATOM     13  O   UNL     1       7.751   5.747  16.982  0.00  0.00    +0.000 OA
ATOM     14  C   UNL     1       7.488   6.690  18.037  0.00  0.00    +0.000 C 
ATOM     15  C   UNL     1       8.624   6.616  19.047  0.00  0.00    +0.000 C 
ATOM     16  C   UNL     1       7.414   8.090  17.434  0.00  0.00    +0.000 C 
ATOM     17  O   UNL     1       6.248   6.329  18.680  0.00  0.00    +0.000 OA
ENDBRANCH   2  11
BRANCH   1  18
ATOM     18  O   UNL     1       2.694   5.862  18.517  0.00  0.00    +0.000 OA
BRANCH  18  19
ATOM     19  C   UNL     1       3.007   7.067  17.923  0.00  0.00    +0.000 C 
ATOM     20  O   UNL     1       3.881   7.165  17.068  0.00  0.00    +0.000 OA
BRANCH  19  23
ATOM     21  C   UNL     1       1.729   7.705  20.913  0.00  0.00    +0.000 C 
ATOM     22  C   UNL     1       1.683   8.468  19.643  0.00  0.00    +0.000 A 
ATOM     23  C   UNL     1       2.207   8.216  18.372  0.00  0.00    +0.000 A 
ATOM     24  N   UNL     1       1.842   9.250  17.544  0.00  0.00    +0.000 NA
ATOM     25  N   UNL     1       1.138  10.130  18.244  0.00  0.00    +0.000 NA
ATOM     26  N   UNL     1       1.080   9.712  19.530  0.00  0.00    +0.000 N 
BRANCH  26  27
ATOM     27  C   UNL     1       0.876  10.714  20.575  0.00  0.00    +0.000 C 
BRANCH  27  28
ATOM     28  C   UNL     1      -0.529  11.228  20.845  0.00  0.00    +0.000 A 
ATOM     29  C   UNL     1      -0.945  11.353  22.180  0.00  0.00    +0.000 A 
ATOM     30  C   UNL     1      -2.126  12.018  22.530  0.00  0.00    +0.000 A 
ATOM     31  C   UNL     1      -2.914  12.587  21.534  0.00  0.00    +0.000 A 
ATOM     32  C   UNL     1      -2.533  12.452  20.203  0.00  0.00    +0.000 A 
ATOM     33  C   UNL     1      -1.349  11.778  19.853  0.00  0.00    +0.000 A 
ENDBRANCH  27  28
ENDBRANCH  26  27
ENDBRANCH  19  23
ENDBRANCH  18  19
ENDBRANCH   1  18
TORSDOF 6
ENDMDL
