MODEL 1
REMARK VINA RESULT:      -8.8      0.000      0.000
REMARK  Name = 
REMARK  11 active torsions:
REMARK  status: ('A' for Active; 'I' for Inactive)
REMARK    1  A    between atoms: C_1  and  O_2
REMARK    2  A    between atoms: O_2  and  C_3
REMARK    3  A    between atoms: C_6  and  C_7
REMARK    4  A    between atoms: C_7  and  C_8
REMARK    5  A    between atoms: C_8  and  N_9
REMARK    6  A    between atoms: N_12  and  C_13
REMARK    7  A    between atoms: C_13  and  C_14
REMARK    8  A    between atoms: C_13  and  C_24
REMARK    9  A    between atoms: N_16  and  C_17
REMARK   10  A    between atoms: C_31  and  O_32
REMARK   11  A    between atoms: O_32  and  C_33
REMARK                            x       y       z     vdW  Elec       q    Type
REMARK                         _______ _______ _______ _____ _____    ______ ____
ROOT
ATOM      1  N   UNL     1       7.860   8.879  17.663  0.00  0.00    +0.000 N 
ATOM      2  C   UNL     1       7.614   7.536  17.747  0.00  0.00    +0.000 C 
ATOM      3  O   UNL     1       8.117   6.833  18.627  0.00  0.00    +0.000 OA
ATOM      4  N   UNL     1       6.789   7.035  16.789  0.00  0.00    +0.000 N 
ATOM      5  H   UNL     1       7.378   9.443  16.980  0.00  0.00    +0.000 HD
ATOM      6  H   UNL     1       6.156   7.664  16.317  0.00  0.00    +0.000 HD
ENDROOT
BRANCH   1   7
ATOM      7  C   UNL     1       8.737   9.505  18.655  0.00  0.00    +0.000 C 
BRANCH   7   8
ATOM      8  C   UNL     1       9.515  10.729  18.148  0.00  0.00    +0.000 C 
BRANCH   8  12
ATOM      9  C   UNL     1       9.969  13.851  21.139  0.00  0.00    +0.000 A 
ATOM     10  C   UNL     1       9.759  12.512  21.513  0.00  0.00    +0.000 A 
ATOM     11  C   UNL     1       9.630  11.504  20.553  0.00  0.00    +0.000 A 
ATOM     12  C   UNL     1       9.617  11.819  19.201  0.00  0.00    +0.000 A 
ATOM     13  C   UNL     1       9.726  13.169  18.830  0.00  0.00    +0.000 A 
ATOM     14  C   UNL     1       9.903  14.194  19.783  0.00  0.00    +0.000 A 
BRANCH   9  16
ATOM     15  C   UNL     1       9.075  15.426  22.658  0.00  0.00    +0.000 C 
ATOM     16  O   UNL     1      10.234  14.800  22.094  0.00  0.00    +0.000 OA
ENDBRANCH   9  16
BRANCH  14  17
ATOM     17  O   UNL     1      10.008  15.420  19.180  0.00  0.00    +0.000 OA
ATOM     18  C   UNL     1       8.909  15.956  18.465  0.00  0.00    +0.000 C 
ENDBRANCH  14  17
ENDBRANCH   8  12
ENDBRANCH   7   8
ENDBRANCH   1   7
BRANCH   4  19
ATOM     19  C   UNL     1       6.358   5.626  16.832  0.00  0.00    +0.000 C 
BRANCH  19  20
ATOM     20  C   UNL     1       6.419   5.000  15.445  0.00  0.00    +0.000 A 
ATOM     21  C   UNL     1       7.495   5.277  14.585  0.00  0.00    +0.000 A 
ATOM     22  C   UNL     1       7.494   4.815  13.265  0.00  0.00    +0.000 A 
ATOM     23  C   UNL     1       6.425   4.061  12.791  0.00  0.00    +0.000 A 
ATOM     24  C   UNL     1       5.377   3.729  13.646  0.00  0.00    +0.000 A 
ATOM     25  C   UNL     1       5.378   4.186  14.967  0.00  0.00    +0.000 A 
ENDBRANCH  19  20
BRANCH  19  26
ATOM     26  C   UNL     1       4.929   5.575  17.429  0.00  0.00    +0.000 C 
ATOM     27  O   UNL     1       4.086   6.430  17.145  0.00  0.00    +0.000 OA
ATOM     28  N   UNL     1       4.708   4.525  18.321  0.00  0.00    +0.000 N 
ATOM     29  H   UNL     1       5.522   4.238  18.857  0.00  0.00    +0.000 HD
BRANCH  28  30
ATOM     30  C   UNL     1       3.467   4.402  18.997  0.00  0.00    +0.000 A 
ATOM     31  C   UNL     1       3.112   5.326  19.985  0.00  0.00    +0.000 A 
ATOM     32  C   UNL     1       1.883   5.217  20.643  0.00  0.00    +0.000 A 
ATOM     33  C   UNL     1       1.011   4.175  20.331  0.00  0.00    +0.000 A 
ATOM     34  C   UNL     1       1.358   3.247  19.351  0.00  0.00    +0.000 A 
ATOM     35  C   UNL     1       2.575   3.369  18.673  0.00  0.00    +0.000 A 
ATOM     36 CL   UNL     1       2.997   2.160  17.511  0.00  0.00    +0.000 Cl
ENDBRANCH  28  30
ENDBRANCH  19  26
ENDBRANCH   4  19
TORSDOF 9
ENDMDL
MODEL 2
REMARK VINA RESULT:      -8.4      5.711     10.045
REMARK  Name = 
REMARK  11 active torsions:
REMARK  status: ('A' for Active; 'I' for Inactive)
REMARK    1  A    between atoms: C_1  and  O_2
REMARK    2  A    between atoms: O_2  and  C_3
REMARK    3  A    between atoms: C_6  and  C_7
REMARK    4  A    between atoms: C_7  and  C_8
REMARK    5  A    between atoms: C_8  and  N_9
REMARK    6  A    between atoms: N_12  and  C_13
REMARK    7  A    between atoms: C_13  and  C_14
REMARK    8  A    between atoms: C_13  and  C_24
REMARK    9  A    between atoms: N_16  and  C_17
REMARK   10  A    between atoms: C_31  and  O_32
REMARK   11  A    between atoms: O_32  and  C_33
REMARK                            x       y       z     vdW  Elec       q    Type
REMARK                         _______ _______ _______ _____ _____    ______ ____
ROOT
ATOM      1  N   UNL     1       2.435   7.624  18.707  0.00  0.00    +0.000 N 
ATOM      2  C   UNL     1       1.614   8.422  19.455  0.00  0.00    +0.000 C 
ATOM      3  O   UNL     1       1.354   8.170  20.634  0.00  0.00    +0.000 OA
ATOM      4  N   UNL     1       1.099   9.499  18.804  0.00  0.00    +0.000 N 
ATOM      5  H   UNL     1       2.689   7.892  17.769  0.00  0.00    +0.000 HD
ATOM      6  H   UNL     1       1.579   9.846  17.987  0.00  0.00    +0.000 HD
ENDROOT
BRANCH   1   7
ATOM      7  C   UNL     1       3.035   6.441  19.327  0.00  0.00    +0.000 C 
BRANCH   7   8
ATOM      8  C   UNL     1       3.070   5.191  18.435  0.00  0.00    +0.000 C 
BRANCH   8  12
ATOM      9  C   UNL     1       6.477   5.235  15.735  0.00  0.00    +0.000 A 
ATOM     10  C   UNL     1       5.581   4.151  15.755  0.00  0.00    +0.000 A 
ATOM     11  C   UNL     1       4.475   4.143  16.610  0.00  0.00    +0.000 A 
ATOM     12  C   UNL     1       4.287   5.170  17.526  0.00  0.00    +0.000 A 
ATOM     13  C   UNL     1       5.238   6.202  17.574  0.00  0.00    +0.000 A 
ATOM     14  C   UNL     1       6.335   6.250  16.689  0.00  0.00    +0.000 A 
BRANCH   9  16
ATOM     15  C   UNL     1       7.153   4.659  13.544  0.00  0.00    +0.000 C 
ATOM     16  O   UNL     1       7.472   5.288  14.792  0.00  0.00    +0.000 OA
ENDBRANCH   9  16
BRANCH  14  17
ATOM     17  O   UNL     1       7.106   7.361  16.913  0.00  0.00    +0.000 OA
ATOM     18  C   UNL     1       7.891   7.454  18.088  0.00  0.00    +0.000 C 
ENDBRANCH  14  17
ENDBRANCH   8  12
ENDBRANCH   7   8
ENDBRANCH   1   7
BRANCH   4  19
ATOM     19  C   UNL     1       0.289  10.496  19.527  0.00  0.00    +0.000 C 
BRANCH  19  20
ATOM     20  C   UNL     1      -1.033  10.740  18.810  0.00  0.00    +0.000 A 
ATOM     21  C   UNL     1      -1.963  11.661  19.323  0.00  0.00    +0.000 A 
ATOM     22  C   UNL     1      -3.230  11.794  18.748  0.00  0.00    +0.000 A 
ATOM     23  C   UNL     1      -3.582  11.019  17.647  0.00  0.00    +0.000 A 
ATOM     24  C   UNL     1      -2.653  10.142  17.092  0.00  0.00    +0.000 A 
ATOM     25  C   UNL     1      -1.383  10.010  17.662  0.00  0.00    +0.000 A 
ENDBRANCH  19  20
BRANCH  19  26
ATOM     26  C   UNL     1       1.125  11.794  19.660  0.00  0.00    +0.000 C 
ATOM     27  O   UNL     1       1.550  12.171  20.755  0.00  0.00    +0.000 OA
ATOM     28  N   UNL     1       1.312  12.491  18.466  0.00  0.00    +0.000 N 
ATOM     29  H   UNL     1       0.549  12.412  17.799  0.00  0.00    +0.000 HD
BRANCH  28  30
ATOM     30  C   UNL     1       1.996  13.733  18.455  0.00  0.00    +0.000 A 
ATOM     31  C   UNL     1       3.373  13.773  18.210  0.00  0.00    +0.000 A 
ATOM     32  C   UNL     1       4.048  14.997  18.184  0.00  0.00    +0.000 A 
ATOM     33  C   UNL     1       3.357  16.185  18.419  0.00  0.00    +0.000 A 
ATOM     34  C   UNL     1       1.985  16.154  18.667  0.00  0.00    +0.000 A 
ATOM     35  C   UNL     1       1.303  14.933  18.669  0.00  0.00    +0.000 A 
ATOM     36 CL   UNL     1      -0.384  14.932  19.045  0.00  0.00    +0.000 Cl
ENDBRANCH  28  30
ENDBRANCH  19  26
ENDBRANCH   4  19
TORSDOF 9
ENDMDL
MODEL 3
REMARK VINA RESULT:      -8.1      6.239     10.207
REMARK  Name = 
REMARK  11 active torsions:
REMARK  status: ('A' for Active; 'I' for Inactive)
REMARK    1  A    between atoms: C_1  and  O_2
REMARK    2  A    between atoms: O_2  and  C_3
REMARK    3  A    between atoms: C_6  and  C_7
REMARK    4  A    between atoms: C_7  and  C_8
REMARK    5  A    between atoms: C_8  and  N_9
REMARK    6  A    between atoms: N_12  and  C_13
REMARK    7  A    between atoms: C_13  and  C_14
REMARK    8  A    between atoms: C_13  and  C_24
REMARK    9  A    between atoms: N_16  and  C_17
REMARK   10  A    between atoms: C_31  and  O_32
REMARK   11  A    between atoms: O_32  and  C_33
REMARK                            x       y       z     vdW  Elec       q    Type
REMARK                         _______ _______ _______ _____ _____    ______ ____
ROOT
ATOM      1  N   UNL     1       2.039   8.280  18.327  0.00  0.00    +0.000 N 
ATOM      2  C   UNL     1       1.064   8.915  19.047  0.00  0.00    +0.000 C 
ATOM      3  O   UNL     1       0.865   8.668  20.238  0.00  0.00    +0.000 OA
ATOM      4  N   UNL     1       0.328   9.824  18.353  0.00  0.00    +0.000 N 
ATOM      5  H   UNL     1       2.229   8.554  17.375  0.00  0.00    +0.000 HD
ATOM      6  H   UNL     1       0.721  10.229  17.516  0.00  0.00    +0.000 HD
ENDROOT
BRANCH   1   7
ATOM      7  C   UNL     1       2.882   7.286  18.994  0.00  0.00    +0.000 C 
BRANCH   7   8
ATOM      8  C   UNL     1       2.843   5.883  18.369  0.00  0.00    +0.000 C 
BRANCH   8  12
ATOM      9  C   UNL     1       6.410   5.059  16.024  0.00  0.00    +0.000 A 
ATOM     10  C   UNL     1       5.428   4.072  16.224  0.00  0.00    +0.000 A 
ATOM     11  C   UNL     1       4.272   4.340  16.963  0.00  0.00    +0.000 A 
ATOM     12  C   UNL     1       4.111   5.566  17.594  0.00  0.00    +0.000 A 
ATOM     13  C   UNL     1       5.137   6.517  17.477  0.00  0.00    +0.000 A 
ATOM     14  C   UNL     1       6.289   6.281  16.698  0.00  0.00    +0.000 A 
BRANCH   9  16
ATOM     15  C   UNL     1       7.120   4.762  13.789  0.00  0.00    +0.000 C 
ATOM     16  O   UNL     1       7.464   4.820  15.179  0.00  0.00    +0.000 OA
ENDBRANCH   9  16
BRANCH  14  17
ATOM     17  O   UNL     1       7.133   7.361  16.717  0.00  0.00    +0.000 OA
ATOM     18  C   UNL     1       7.832   7.694  17.903  0.00  0.00    +0.000 C 
ENDBRANCH  14  17
ENDBRANCH   8  12
ENDBRANCH   7   8
ENDBRANCH   1   7
BRANCH   4  19
ATOM     19  C   UNL     1      -0.680  10.654  19.038  0.00  0.00    +0.000 C 
BRANCH  19  20
ATOM     20  C   UNL     1      -1.913  10.837  18.164  0.00  0.00    +0.000 A 
ATOM     21  C   UNL     1      -3.007  11.591  18.622  0.00  0.00    +0.000 A 
ATOM     22  C   UNL     1      -4.193  11.654  17.885  0.00  0.00    +0.000 A 
ATOM     23  C   UNL     1      -4.300  10.974  16.675  0.00  0.00    +0.000 A 
ATOM     24  C   UNL     1      -3.207  10.268  16.179  0.00  0.00    +0.000 A 
ATOM     25  C   UNL     1      -2.018  10.207  16.912  0.00  0.00    +0.000 A 
ENDBRANCH  19  20
BRANCH  19  26
ATOM     26  C   UNL     1      -0.022  12.009  19.404  0.00  0.00    +0.000 C 
ATOM     27  O   UNL     1       0.286  12.276  20.568  0.00  0.00    +0.000 OA
ATOM     28  N   UNL     1       0.147  12.883  18.329  0.00  0.00    +0.000 N 
ATOM     29  H   UNL     1      -0.559  12.810  17.602  0.00  0.00    +0.000 HD
BRANCH  28  30
ATOM     30  C   UNL     1       0.669  14.185  18.534  0.00  0.00    +0.000 A 
ATOM     31  C   UNL     1      -0.195  15.254  18.793  0.00  0.00    +0.000 A 
ATOM     32  C   UNL     1       0.317  16.537  19.010  0.00  0.00    +0.000 A 
ATOM     33  C   UNL     1       1.692  16.762  18.952  0.00  0.00    +0.000 A 
ATOM     34  C   UNL     1       2.561  15.703  18.691  0.00  0.00    +0.000 A 
ATOM     35  C   UNL     1       2.052  14.415  18.499  0.00  0.00    +0.000 A 
ATOM     36 CL   UNL     1       3.157  13.142  18.113  0.00  0.00    +0.000 Cl
ENDBRANCH  28  30
ENDBRANCH  19  26
ENDBRANCH   4  19
TORSDOF 9
ENDMDL
MODEL 4
REMARK VINA RESULT:      -8.0      0.901      1.232
REMARK  Name = 
REMARK  11 active torsions:
REMARK  status: ('A' for Active; 'I' for Inactive)
REMARK    1  A    between atoms: C_1  and  O_2
REMARK    2  A    between atoms: O_2  and  C_3
REMARK    3  A    between atoms: C_6  and  C_7
REMARK    4  A    between atoms: C_7  and  C_8
REMARK    5  A    between atoms: C_8  and  N_9
REMARK    6  A    between atoms: N_12  and  C_13
REMARK    7  A    between atoms: C_13  and  C_14
REMARK    8  A    between atoms: C_13  and  C_24
REMARK    9  A    between atoms: N_16  and  C_17
REMARK   10  A    between atoms: C_31  and  O_32
REMARK   11  A    between atoms: O_32  and  C_33
REMARK                            x       y       z     vdW  Elec       q    Type
REMARK                         _______ _______ _______ _____ _____    ______ ____
ROOT
ATOM      1  N   UNL     1       7.706   8.686  17.685  0.00  0.00    +0.000 N 
ATOM      2  C   UNL     1       7.619   7.321  17.651  0.00  0.00    +0.000 C 
ATOM      3  O   UNL     1       8.241   6.607  18.440  0.00  0.00    +0.000 OA
ATOM      4  N   UNL     1       6.811   6.814  16.682  0.00  0.00    +0.000 N 
ATOM      5  H   UNL     1       7.131   9.248  17.077  0.00  0.00    +0.000 HD
ATOM      6  H   UNL     1       6.088   7.404  16.296  0.00  0.00    +0.000 HD
ENDROOT
BRANCH   1   7
ATOM      7  C   UNL     1       8.554   9.319  18.697  0.00  0.00    +0.000 C 
BRANCH   7   8
ATOM      8  C   UNL     1       9.405  10.492  18.185  0.00  0.00    +0.000 C 
BRANCH   8  12
ATOM      9  C   UNL     1       9.945  13.653  21.119  0.00  0.00    +0.000 A 
ATOM     10  C   UNL     1       9.679  12.331  21.517  0.00  0.00    +0.000 A 
ATOM     11  C   UNL     1       9.522  11.309  20.576  0.00  0.00    +0.000 A 
ATOM     12  C   UNL     1       9.537  11.597  19.218  0.00  0.00    +0.000 A 
ATOM     13  C   UNL     1       9.703  12.934  18.822  0.00  0.00    +0.000 A 
ATOM     14  C   UNL     1       9.908  13.971  19.756  0.00  0.00    +0.000 A 
BRANCH   9  16
ATOM     15  C   UNL     1       9.092  15.240  22.650  0.00  0.00    +0.000 C 
ATOM     16  O   UNL     1      10.236  14.610  22.059  0.00  0.00    +0.000 OA
ENDBRANCH   9  16
BRANCH  14  17
ATOM     17  O   UNL     1      10.068  15.180  19.130  0.00  0.00    +0.000 OA
ATOM     18  C   UNL     1      10.359  15.228  17.745  0.00  0.00    +0.000 C 
ENDBRANCH  14  17
ENDBRANCH   8  12
ENDBRANCH   7   8
ENDBRANCH   1   7
BRANCH   4  19
ATOM     19  C   UNL     1       6.545   5.366  16.608  0.00  0.00    +0.000 C 
BRANCH  19  20
ATOM     20  C   UNL     1       6.450   4.908  15.159  0.00  0.00    +0.000 A 
ATOM     21  C   UNL     1       5.353   4.145  14.722  0.00  0.00    +0.000 A 
ATOM     22  C   UNL     1       5.322   3.609  13.432  0.00  0.00    +0.000 A 
ATOM     23  C   UNL     1       6.379   3.837  12.556  0.00  0.00    +0.000 A 
ATOM     24  C   UNL     1       7.448   4.637  12.953  0.00  0.00    +0.000 A 
ATOM     25  C   UNL     1       7.479   5.177  14.241  0.00  0.00    +0.000 A 
ENDBRANCH  19  20
BRANCH  19  26
ATOM     26  C   UNL     1       5.244   5.072  17.397  0.00  0.00    +0.000 C 
ATOM     27  O   UNL     1       4.399   5.949  17.585  0.00  0.00    +0.000 OA
ATOM     28  N   UNL     1       5.144   3.770  17.889  0.00  0.00    +0.000 N 
ATOM     29  H   UNL     1       6.029   3.335  18.135  0.00  0.00    +0.000 HD
BRANCH  28  30
ATOM     30  C   UNL     1       4.040   3.385  18.691  0.00  0.00    +0.000 A 
ATOM     31  C   UNL     1       4.187   3.267  20.077  0.00  0.00    +0.000 A 
ATOM     32  C   UNL     1       3.096   2.902  20.872  0.00  0.00    +0.000 A 
ATOM     33  C   UNL     1       1.859   2.637  20.287  0.00  0.00    +0.000 A 
ATOM     34  C   UNL     1       1.704   2.748  18.906  0.00  0.00    +0.000 A 
ATOM     35  C   UNL     1       2.787   3.137  18.111  0.00  0.00    +0.000 A 
ATOM     36 CL   UNL     1       2.571   3.200  16.397  0.00  0.00    +0.000 Cl
ENDBRANCH  28  30
ENDBRANCH  19  26
ENDBRANCH   4  19
TORSDOF 9
ENDMDL
MODEL 5
REMARK VINA RESULT:      -8.0      1.382      2.115
REMARK  Name = 
REMARK  11 active torsions:
REMARK  status: ('A' for Active; 'I' for Inactive)
REMARK    1  A    between atoms: C_1  and  O_2
REMARK    2  A    between atoms: O_2  and  C_3
REMARK    3  A    between atoms: C_6  and  C_7
REMARK    4  A    between atoms: C_7  and  C_8
REMARK    5  A    between atoms: C_8  and  N_9
REMARK    6  A    between atoms: N_12  and  C_13
REMARK    7  A    between atoms: C_13  and  C_14
REMARK    8  A    between atoms: C_13  and  C_24
REMARK    9  A    between atoms: N_16  and  C_17
REMARK   10  A    between atoms: C_31  and  O_32
REMARK   11  A    between atoms: O_32  and  C_33
REMARK                            x       y       z     vdW  Elec       q    Type
REMARK                         _______ _______ _______ _____ _____    ______ ____
ROOT
ATOM      1  N   UNL     1       7.781   9.183  17.768  0.00  0.00    +0.000 N 
ATOM      2  C   UNL     1       7.835   7.820  17.863  0.00  0.00    +0.000 C 
ATOM      3  O   UNL     1       8.520   7.250  18.715  0.00  0.00    +0.000 OA
ATOM      4  N   UNL     1       7.092   7.143  16.946  0.00  0.00    +0.000 N 
ATOM      5  H   UNL     1       7.155   9.624  17.111  0.00  0.00    +0.000 HD
ATOM      6  H   UNL     1       6.316   7.617  16.507  0.00  0.00    +0.000 HD
ENDROOT
BRANCH   1   7
ATOM      7  C   UNL     1       8.549   9.993  18.716  0.00  0.00    +0.000 C 
BRANCH   7   8
ATOM      8  C   UNL     1       9.854  10.578  18.156  0.00  0.00    +0.000 C 
BRANCH   8  12
ATOM      9  C   UNL     1       9.741  14.924  18.116  0.00  0.00    +0.000 A 
ATOM     10  C   UNL     1      10.735  14.217  17.415  0.00  0.00    +0.000 A 
ATOM     11  C   UNL     1      10.763  12.819  17.413  0.00  0.00    +0.000 A 
ATOM     12  C   UNL     1       9.858  12.097  18.179  0.00  0.00    +0.000 A 
ATOM     13  C   UNL     1       8.929  12.806  18.957  0.00  0.00    +0.000 A 
ATOM     14  C   UNL     1       8.856  14.214  18.937  0.00  0.00    +0.000 A 
BRANCH   9  16
ATOM     15  C   UNL     1      10.631  17.028  18.721  0.00  0.00    +0.000 C 
ATOM     16  O   UNL     1       9.646  16.287  17.990  0.00  0.00    +0.000 OA
ENDBRANCH   9  16
BRANCH  14  17
ATOM     17  O   UNL     1       7.858  14.672  19.756  0.00  0.00    +0.000 OA
ATOM     18  C   UNL     1       8.170  15.175  21.043  0.00  0.00    +0.000 C 
ENDBRANCH  14  17
ENDBRANCH   8  12
ENDBRANCH   7   8
ENDBRANCH   1   7
BRANCH   4  19
ATOM     19  C   UNL     1       6.978   5.675  17.008  0.00  0.00    +0.000 C 
BRANCH  19  20
ATOM     20  C   UNL     1       6.669   5.099  15.633  0.00  0.00    +0.000 A 
ATOM     21  C   UNL     1       5.587   4.219  15.454  0.00  0.00    +0.000 A 
ATOM     22  C   UNL     1       5.376   3.583  14.227  0.00  0.00    +0.000 A 
ATOM     23  C   UNL     1       6.234   3.826  13.159  0.00  0.00    +0.000 A 
ATOM     24  C   UNL     1       7.277   4.738  13.301  0.00  0.00    +0.000 A 
ATOM     25  C   UNL     1       7.488   5.378  14.526  0.00  0.00    +0.000 A 
ENDBRANCH  19  20
BRANCH  19  26
ATOM     26  C   UNL     1       5.884   5.318  18.046  0.00  0.00    +0.000 C 
ATOM     27  O   UNL     1       6.137   4.611  19.024  0.00  0.00    +0.000 OA
ATOM     28  N   UNL     1       4.618   5.827  17.754  0.00  0.00    +0.000 N 
ATOM     29  H   UNL     1       4.408   5.914  16.764  0.00  0.00    +0.000 HD
BRANCH  28  30
ATOM     30  C   UNL     1       3.509   5.517  18.581  0.00  0.00    +0.000 A 
ATOM     31  C   UNL     1       3.105   6.411  19.578  0.00  0.00    +0.000 A 
ATOM     32  C   UNL     1       2.002   6.116  20.386  0.00  0.00    +0.000 A 
ATOM     33  C   UNL     1       1.308   4.919  20.214  0.00  0.00    +0.000 A 
ATOM     34  C   UNL     1       1.705   4.019  19.225  0.00  0.00    +0.000 A 
ATOM     35  C   UNL     1       2.792   4.324  18.400  0.00  0.00    +0.000 A 
ATOM     36 CL   UNL     1       3.293   3.154  17.230  0.00  0.00    +0.000 Cl
ENDBRANCH  28  30
ENDBRANCH  19  26
ENDBRANCH   4  19
TORSDOF 9
ENDMDL
MODEL 6
REMARK VINA RESULT:      -8.0      1.787      2.013
REMARK  Name = 
REMARK  11 active torsions:
REMARK  status: ('A' for Active; 'I' for Inactive)
REMARK    1  A    between atoms: C_1  and  O_2
REMARK    2  A    between atoms: O_2  and  C_3
REMARK    3  A    between atoms: C_6  and  C_7
REMARK    4  A    between atoms: C_7  and  C_8
REMARK    5  A    between atoms: C_8  and  N_9
REMARK    6  A    between atoms: N_12  and  C_13
REMARK    7  A    between atoms: C_13  and  C_14
REMARK    8  A    between atoms: C_13  and  C_24
REMARK    9  A    between atoms: N_16  and  C_17
REMARK   10  A    between atoms: C_31  and  O_32
REMARK   11  A    between atoms: O_32  and  C_33
REMARK                            x       y       z     vdW  Elec       q    Type
REMARK                         _______ _______ _______ _____ _____    ______ ____
ROOT
ATOM      1  N   UNL     1       7.739   9.212  17.612  0.00  0.00    +0.000 N 
ATOM      2  C   UNL     1       7.838   7.865  17.833  0.00  0.00    +0.000 C 
ATOM      3  O   UNL     1       8.513   7.402  18.756  0.00  0.00    +0.000 OA
ATOM      4  N   UNL     1       7.153   7.080  16.959  0.00  0.00    +0.000 N 
ATOM      5  H   UNL     1       7.122   9.566  16.897  0.00  0.00    +0.000 HD
ATOM      6  H   UNL     1       6.376   7.482  16.454  0.00  0.00    +0.000 HD
ENDROOT
BRANCH   1   7
ATOM      7  C   UNL     1       8.445  10.133  18.506  0.00  0.00    +0.000 C 
BRANCH   7   8
ATOM      8  C   UNL     1       9.822  10.592  18.004  0.00  0.00    +0.000 C 
BRANCH   8  12
ATOM      9  C   UNL     1      10.125  14.923  17.798  0.00  0.00    +0.000 A 
ATOM     10  C   UNL     1      11.258  14.107  17.632  0.00  0.00    +0.000 A 
ATOM     11  C   UNL     1      11.160  12.714  17.681  0.00  0.00    +0.000 A 
ATOM     12  C   UNL     1       9.950  12.105  17.984  0.00  0.00    +0.000 A 
ATOM     13  C   UNL     1       8.840  12.923  18.249  0.00  0.00    +0.000 A 
ATOM     14  C   UNL     1       8.909  14.329  18.160  0.00  0.00    +0.000 A 
BRANCH   9  16
ATOM     15  C   UNL     1       9.747  17.075  18.701  0.00  0.00    +0.000 C 
ATOM     16  O   UNL     1      10.217  16.279  17.606  0.00  0.00    +0.000 OA
ENDBRANCH   9  16
BRANCH  14  17
ATOM     17  O   UNL     1       7.697  14.905  18.437  0.00  0.00    +0.000 OA
ATOM     18  C   UNL     1       6.542  14.508  17.719  0.00  0.00    +0.000 C 
ENDBRANCH  14  17
ENDBRANCH   8  12
ENDBRANCH   7   8
ENDBRANCH   1   7
BRANCH   4  19
ATOM     19  C   UNL     1       7.088   5.620  17.152  0.00  0.00    +0.000 C 
BRANCH  19  20
ATOM     20  C   UNL     1       6.836   4.911  15.829  0.00  0.00    +0.000 A 
ATOM     21  C   UNL     1       7.372   5.421  14.633  0.00  0.00    +0.000 A 
ATOM     22  C   UNL     1       7.037   4.855  13.400  0.00  0.00    +0.000 A 
ATOM     23  C   UNL     1       6.173   3.764  13.344  0.00  0.00    +0.000 A 
ATOM     24  C   UNL     1       5.679   3.211  14.522  0.00  0.00    +0.000 A 
ATOM     25  C   UNL     1       6.015   3.774  15.757  0.00  0.00    +0.000 A 
ENDBRANCH  19  20
BRANCH  19  26
ATOM     26  C   UNL     1       5.980   5.319  18.193  0.00  0.00    +0.000 C 
ATOM     27  O   UNL     1       6.238   4.744  19.253  0.00  0.00    +0.000 OA
ATOM     28  N   UNL     1       4.698   5.714  17.808  0.00  0.00    +0.000 N 
ATOM     29  H   UNL     1       4.519   5.674  16.808  0.00  0.00    +0.000 HD
BRANCH  28  30
ATOM     30  C   UNL     1       3.579   5.433  18.633  0.00  0.00    +0.000 A 
ATOM     31  C   UNL     1       3.110   6.398  19.531  0.00  0.00    +0.000 A 
ATOM     32  C   UNL     1       1.998   6.130  20.335  0.00  0.00    +0.000 A 
ATOM     33  C   UNL     1       1.359   4.893  20.260  0.00  0.00    +0.000 A 
ATOM     34  C   UNL     1       1.822   3.924  19.370  0.00  0.00    +0.000 A 
ATOM     35  C   UNL     1       2.919   4.198  18.547  0.00  0.00    +0.000 A 
ATOM     36 CL   UNL     1       3.501   2.948  17.505  0.00  0.00    +0.000 Cl
ENDBRANCH  28  30
ENDBRANCH  19  26
ENDBRANCH   4  19
TORSDOF 9
ENDMDL
MODEL 7
REMARK VINA RESULT:      -8.0      5.657      9.373
REMARK  Name = 
REMARK  11 active torsions:
REMARK  status: ('A' for Active; 'I' for Inactive)
REMARK    1  A    between atoms: C_1  and  O_2
REMARK    2  A    between atoms: O_2  and  C_3
REMARK    3  A    between atoms: C_6  and  C_7
REMARK    4  A    between atoms: C_7  and  C_8
REMARK    5  A    between atoms: C_8  and  N_9
REMARK    6  A    between atoms: N_12  and  C_13
REMARK    7  A    between atoms: C_13  and  C_14
REMARK    8  A    between atoms: C_13  and  C_24
REMARK    9  A    between atoms: N_16  and  C_17
REMARK   10  A    between atoms: C_31  and  O_32
REMARK   11  A    between atoms: O_32  and  C_33
REMARK                            x       y       z     vdW  Elec       q    Type
REMARK                         _______ _______ _______ _____ _____    ______ ____
ROOT
ATOM      1  N   UNL     1       1.514   9.841  19.682  0.00  0.00    +0.000 N 
ATOM      2  C   UNL     1       1.443   8.745  18.866  0.00  0.00    +0.000 C 
ATOM      3  O   UNL     1       0.936   8.798  17.744  0.00  0.00    +0.000 OA
ATOM      4  N   UNL     1       1.959   7.599  19.386  0.00  0.00    +0.000 N 
ATOM      5  H   UNL     1       2.000   9.788  20.565  0.00  0.00    +0.000 HD
ATOM      6  H   UNL     1       2.639   7.667  20.129  0.00  0.00    +0.000 HD
ENDROOT
BRANCH   1   7
ATOM      7  C   UNL     1       0.983  11.119  19.204  0.00  0.00    +0.000 C 
BRANCH   7   8
ATOM      8  C   UNL     1      -0.187  11.681  20.027  0.00  0.00    +0.000 C 
BRANCH   8  12
ATOM      9  C   UNL     1      -3.937  11.386  17.848  0.00  0.00    +0.000 A 
ATOM     10  C   UNL     1      -3.846  12.125  19.041  0.00  0.00    +0.000 A 
ATOM     11  C   UNL     1      -2.637  12.235  19.734  0.00  0.00    +0.000 A 
ATOM     12  C   UNL     1      -1.515  11.540  19.304  0.00  0.00    +0.000 A 
ATOM     13  C   UNL     1      -1.632  10.722  18.168  0.00  0.00    +0.000 A 
ATOM     14  C   UNL     1      -2.831  10.634  17.431  0.00  0.00    +0.000 A 
BRANCH   9  16
ATOM     15  C   UNL     1      -6.208  12.033  17.757  0.00  0.00    +0.000 C 
ATOM     16  O   UNL     1      -5.093  11.407  17.110  0.00  0.00    +0.000 OA
ENDBRANCH   9  16
BRANCH  14  17
ATOM     17  O   UNL     1      -2.693   9.796  16.355  0.00  0.00    +0.000 OA
ATOM     18  C   UNL     1      -2.875  10.292  15.041  0.00  0.00    +0.000 C 
ENDBRANCH  14  17
ENDBRANCH   8  12
ENDBRANCH   7   8
ENDBRANCH   1   7
BRANCH   4  19
ATOM     19  C   UNL     1       2.043   6.375  18.568  0.00  0.00    +0.000 C 
BRANCH  19  20
ATOM     20  C   UNL     1       1.820   5.137  19.425  0.00  0.00    +0.000 A 
ATOM     21  C   UNL     1       2.276   5.098  20.755  0.00  0.00    +0.000 A 
ATOM     22  C   UNL     1       2.195   3.922  21.505  0.00  0.00    +0.000 A 
ATOM     23  C   UNL     1       1.647   2.772  20.944  0.00  0.00    +0.000 A 
ATOM     24  C   UNL     1       1.139   2.808  19.648  0.00  0.00    +0.000 A 
ATOM     25  C   UNL     1       1.216   3.985  18.896  0.00  0.00    +0.000 A 
ENDBRANCH  19  20
BRANCH  19  26
ATOM     26  C   UNL     1       3.425   6.356  17.868  0.00  0.00    +0.000 C 
ATOM     27  O   UNL     1       4.044   7.399  17.644  0.00  0.00    +0.000 OA
ATOM     28  N   UNL     1       3.869   5.087  17.493  0.00  0.00    +0.000 N 
ATOM     29  H   UNL     1       3.134   4.431  17.244  0.00  0.00    +0.000 HD
BRANCH  28  30
ATOM     30  C   UNL     1       5.084   4.930  16.778  0.00  0.00    +0.000 A 
ATOM     31  C   UNL     1       5.066   4.798  15.385  0.00  0.00    +0.000 A 
ATOM     32  C   UNL     1       6.262   4.658  14.675  0.00  0.00    +0.000 A 
ATOM     33  C   UNL     1       7.481   4.632  15.353  0.00  0.00    +0.000 A 
ATOM     34  C   UNL     1       7.508   4.759  16.741  0.00  0.00    +0.000 A 
ATOM     35  C   UNL     1       6.315   4.925  17.451  0.00  0.00    +0.000 A 
ATOM     36 CL   UNL     1       6.386   5.013  19.176  0.00  0.00    +0.000 Cl
ENDBRANCH  28  30
ENDBRANCH  19  26
ENDBRANCH   4  19
TORSDOF 9
ENDMDL
MODEL 8
REMARK VINA RESULT:      -7.9      1.880      2.332
REMARK  Name = 
REMARK  11 active torsions:
REMARK  status: ('A' for Active; 'I' for Inactive)
REMARK    1  A    between atoms: C_1  and  O_2
REMARK    2  A    between atoms: O_2  and  C_3
REMARK    3  A    between atoms: C_6  and  C_7
REMARK    4  A    between atoms: C_7  and  C_8
REMARK    5  A    between atoms: C_8  and  N_9
REMARK    6  A    between atoms: N_12  and  C_13
REMARK    7  A    between atoms: C_13  and  C_14
REMARK    8  A    between atoms: C_13  and  C_24
REMARK    9  A    between atoms: N_16  and  C_17
REMARK   10  A    between atoms: C_31  and  O_32
REMARK   11  A    between atoms: O_32  and  C_33
REMARK                            x       y       z     vdW  Elec       q    Type
REMARK                         _______ _______ _______ _____ _____    ______ ____
ROOT
ATOM      1  N   UNL     1       7.536   8.959  17.528  0.00  0.00    +0.000 N 
ATOM      2  C   UNL     1       7.430   7.595  17.522  0.00  0.00    +0.000 C 
ATOM      3  O   UNL     1       8.072   6.887  18.301  0.00  0.00    +0.000 OA
ATOM      4  N   UNL     1       6.580   7.081  16.593  0.00  0.00    +0.000 N 
ATOM      5  H   UNL     1       6.945   9.518  16.931  0.00  0.00    +0.000 HD
ATOM      6  H   UNL     1       5.851   7.674  16.224  0.00  0.00    +0.000 HD
ENDROOT
BRANCH   1   7
ATOM      7  C   UNL     1       8.429   9.599  18.496  0.00  0.00    +0.000 C 
BRANCH   7   8
ATOM      8  C   UNL     1       9.724  10.171  17.901  0.00  0.00    +0.000 C 
BRANCH   8  12
ATOM      9  C   UNL     1       9.809  14.517  17.879  0.00  0.00    +0.000 A 
ATOM     10  C   UNL     1      10.979  13.769  18.102  0.00  0.00    +0.000 A 
ATOM     11  C   UNL     1      10.957  12.372  18.092  0.00  0.00    +0.000 A 
ATOM     12  C   UNL     1       9.756  11.689  17.950  0.00  0.00    +0.000 A 
ATOM     13  C   UNL     1       8.575  12.437  17.828  0.00  0.00    +0.000 A 
ATOM     14  C   UNL     1       8.583  13.847  17.790  0.00  0.00    +0.000 A 
BRANCH   9  16
ATOM     15  C   UNL     1      10.974  16.358  16.961  0.00  0.00    +0.000 C 
ATOM     16  O   UNL     1       9.878  15.882  17.752  0.00  0.00    +0.000 OA
ENDBRANCH   9  16
BRANCH  14  17
ATOM     17  O   UNL     1       7.316  14.348  17.641  0.00  0.00    +0.000 OA
ATOM     18  C   UNL     1       6.626  14.876  18.759  0.00  0.00    +0.000 C 
ENDBRANCH  14  17
ENDBRANCH   8  12
ENDBRANCH   7   8
ENDBRANCH   1   7
BRANCH   4  19
ATOM     19  C   UNL     1       6.294   5.636  16.555  0.00  0.00    +0.000 C 
BRANCH  19  20
ATOM     20  C   UNL     1       6.352   5.111  15.127  0.00  0.00    +0.000 A 
ATOM     21  C   UNL     1       5.301   4.334  14.609  0.00  0.00    +0.000 A 
ATOM     22  C   UNL     1       5.405   3.739  13.349  0.00  0.00    +0.000 A 
ATOM     23  C   UNL     1       6.553   3.920  12.584  0.00  0.00    +0.000 A 
ATOM     24  C   UNL     1       7.580   4.732  13.057  0.00  0.00    +0.000 A 
ATOM     25  C   UNL     1       7.477   5.332  14.316  0.00  0.00    +0.000 A 
ENDBRANCH  19  20
BRANCH  19  26
ATOM     26  C   UNL     1       4.907   5.401  17.205  0.00  0.00    +0.000 C 
ATOM     27  O   UNL     1       4.179   6.345  17.519  0.00  0.00    +0.000 OA
ATOM     28  N   UNL     1       4.588   4.060  17.426  0.00  0.00    +0.000 N 
ATOM     29  H   UNL     1       5.382   3.458  17.626  0.00  0.00    +0.000 HD
BRANCH  28  30
ATOM     30  C   UNL     1       3.381   3.704  18.080  0.00  0.00    +0.000 A 
ATOM     31  C   UNL     1       2.149   4.070  17.526  0.00  0.00    +0.000 A 
ATOM     32  C   UNL     1       0.957   3.708  18.160  0.00  0.00    +0.000 A 
ATOM     33  C   UNL     1       0.988   2.995  19.358  0.00  0.00    +0.000 A 
ATOM     34  C   UNL     1       2.211   2.630  19.919  0.00  0.00    +0.000 A 
ATOM     35  C   UNL     1       3.404   2.969  19.274  0.00  0.00    +0.000 A 
ATOM     36 CL   UNL     1       4.900   2.554  20.035  0.00  0.00    +0.000 Cl
ENDBRANCH  28  30
ENDBRANCH  19  26
ENDBRANCH   4  19
TORSDOF 9
ENDMDL
MODEL 9
REMARK VINA RESULT:      -7.9      5.932     10.327
REMARK  Name = 
REMARK  11 active torsions:
REMARK  status: ('A' for Active; 'I' for Inactive)
REMARK    1  A    between atoms: C_1  and  O_2
REMARK    2  A    between atoms: O_2  and  C_3
REMARK    3  A    between atoms: C_6  and  C_7
REMARK    4  A    between atoms: C_7  and  C_8
REMARK    5  A    between atoms: C_8  and  N_9
REMARK    6  A    between atoms: N_12  and  C_13
REMARK    7  A    between atoms: C_13  and  C_14
REMARK    8  A    between atoms: C_13  and  C_24
REMARK    9  A    between atoms: N_16  and  C_17
REMARK   10  A    between atoms: C_31  and  O_32
REMARK   11  A    between atoms: O_32  and  C_33
REMARK                            x       y       z     vdW  Elec       q    Type
REMARK                         _______ _______ _______ _____ _____    ______ ____
ROOT
ATOM      1  N   UNL     1       2.166   8.315  18.635  0.00  0.00    +0.000 N 
ATOM      2  C   UNL     1       1.219   9.103  19.230  0.00  0.00    +0.000 C 
ATOM      3  O   UNL     1       0.747   8.836  20.337  0.00  0.00    +0.000 OA
ATOM      4  N   UNL     1       0.831  10.190  18.509  0.00  0.00    +0.000 N 
ATOM      5  H   UNL     1       2.588   8.596  17.763  0.00  0.00    +0.000 HD
ATOM      6  H   UNL     1       1.453  10.547  17.798  0.00  0.00    +0.000 HD
ENDROOT
BRANCH   1   7
ATOM      7  C   UNL     1       2.643   7.123  19.340  0.00  0.00    +0.000 C 
BRANCH   7   8
ATOM      8  C   UNL     1       2.479   5.806  18.567  0.00  0.00    +0.000 C 
BRANCH   8  12
ATOM      9  C   UNL     1       5.988   4.833  16.192  0.00  0.00    +0.000 A 
ATOM     10  C   UNL     1       5.034   3.851  16.516  0.00  0.00    +0.000 A 
ATOM     11  C   UNL     1       3.897   4.165  17.264  0.00  0.00    +0.000 A 
ATOM     12  C   UNL     1       3.728   5.442  17.783  0.00  0.00    +0.000 A 
ATOM     13  C   UNL     1       4.730   6.396  17.544  0.00  0.00    +0.000 A 
ATOM     14  C   UNL     1       5.862   6.110  16.753  0.00  0.00    +0.000 A 
BRANCH   9  16
ATOM     15  C   UNL     1       6.660   4.485  13.953  0.00  0.00    +0.000 C 
ATOM     16  O   UNL     1       7.020   4.536  15.339  0.00  0.00    +0.000 OA
ENDBRANCH   9  16
BRANCH  14  17
ATOM     17  O   UNL     1       6.682   7.202  16.644  0.00  0.00    +0.000 OA
ATOM     18  C   UNL     1       7.668   7.451  17.630  0.00  0.00    +0.000 C 
ENDBRANCH  14  17
ENDBRANCH   8  12
ENDBRANCH   7   8
ENDBRANCH   1   7
BRANCH   4  19
ATOM     19  C   UNL     1      -0.101  11.178  19.083  0.00  0.00    +0.000 C 
BRANCH  19  20
ATOM     20  C   UNL     1      -1.504  10.983  18.526  0.00  0.00    +0.000 A 
ATOM     21  C   UNL     1      -1.723  10.144  17.420  0.00  0.00    +0.000 A 
ATOM     22  C   UNL     1      -2.984  10.062  16.821  0.00  0.00    +0.000 A 
ATOM     23  C   UNL     1      -4.046  10.808  17.326  0.00  0.00    +0.000 A 
ATOM     24  C   UNL     1      -3.860  11.600  18.456  0.00  0.00    +0.000 A 
ATOM     25  C   UNL     1      -2.602  11.680  19.059  0.00  0.00    +0.000 A 
ENDBRANCH  19  20
BRANCH  19  26
ATOM     26  C   UNL     1       0.452  12.594  18.782  0.00  0.00    +0.000 C 
ATOM     27  O   UNL     1      -0.189  13.399  18.102  0.00  0.00    +0.000 OA
ATOM     28  N   UNL     1       1.720  12.847  19.307  0.00  0.00    +0.000 N 
ATOM     29  H   UNL     1       2.329  12.036  19.366  0.00  0.00    +0.000 HD
BRANCH  28  30
ATOM     30  C   UNL     1       2.376  14.077  19.046  0.00  0.00    +0.000 A 
ATOM     31  C   UNL     1       3.116  14.242  17.871  0.00  0.00    +0.000 A 
ATOM     32  C   UNL     1       3.752  15.458  17.603  0.00  0.00    +0.000 A 
ATOM     33  C   UNL     1       3.666  16.509  18.514  0.00  0.00    +0.000 A 
ATOM     34  C   UNL     1       2.934  16.353  19.690  0.00  0.00    +0.000 A 
ATOM     35  C   UNL     1       2.276  15.147  19.948  0.00  0.00    +0.000 A 
ATOM     36 CL   UNL     1       1.432  14.971  21.447  0.00  0.00    +0.000 Cl
ENDBRANCH  28  30
ENDBRANCH  19  26
ENDBRANCH   4  19
TORSDOF 9
ENDMDL
