MODEL 1
REMARK VINA RESULT:      -8.2      0.000      0.000
REMARK  Name = 
REMARK  6 active torsions:
REMARK  status: ('A' for Active; 'I' for Inactive)
REMARK    1  A    between atoms: C_1  and  N_2
REMARK    2  A    between atoms: N_2  and  C_3
REMARK    3  A    between atoms: C_3  and  C_4
REMARK    4  A    between atoms: C_6  and  C_7
REMARK    5  A    between atoms: C_17  and  C_18
REMARK    6  A    between atoms: C_20  and  O_21
REMARK                            x       y       z     vdW  Elec       q    Type
REMARK                         _______ _______ _______ _____ _____    ______ ____
ROOT
ATOM      1  C   UNL     1       6.324   4.444  17.331  0.00  0.00    +0.000 C 
ATOM      2  N   UNL     1       5.888   5.809  17.590  0.00  0.00    +0.000 N 
ATOM      3  C   UNL     1       4.643   6.030  18.176  0.00  0.00    +0.000 A 
ATOM      4  C   UNL     1       4.106   5.126  19.070  0.00  0.00    +0.000 A 
ATOM      5  C   UNL     1       2.871   5.405  19.629  0.00  0.00    +0.000 A 
ATOM      6  N   UNL     1       2.184   6.509  19.285  0.00  0.00    +0.000 NA
ATOM      7  C   UNL     1       2.764   7.344  18.430  0.00  0.00    +0.000 A 
ATOM      8  N   UNL     1       2.045   8.454  18.038  0.00  0.00    +0.000 N 
ATOM      9  N   UNL     1       3.962   7.151  17.870  0.00  0.00    +0.000 NA
ATOM     10  H   UNL     1       1.058   8.297  18.200  0.00  0.00    +0.000 HD
ATOM     11  H   UNL     1       2.311   8.781  17.123  0.00  0.00    +0.000 HD
ENDROOT
BRANCH   5  12
ATOM     12  C   UNL     1       2.182   4.508  20.708  0.00  0.00    +0.000 C 
ATOM     13  C   UNL     1       2.814   3.140  21.059  0.00  0.00    +0.000 C 
ATOM     14  C   UNL     1       1.392   2.550  21.148  0.00  0.00    +0.000 C 
ATOM     15  C   UNL     1       0.891   3.744  20.315  0.00  0.00    +0.000 C 
BRANCH  14  16
ATOM     16  O   UNL     1       0.838   2.412  22.471  0.00  0.00    +0.000 OA
ATOM     17  H   UNL     1      -0.019   2.869  22.453  0.00  0.00    +0.000 HD
ENDBRANCH  14  16
ENDBRANCH   5  12
BRANCH   2  18
ATOM     18  C   UNL     1       6.519   6.885  16.825  0.00  0.00    +0.000 C 
BRANCH  18  19
ATOM     19  C   UNL     1       7.449   7.765  17.578  0.00  0.00    +0.000 A 
ATOM     20  C   UNL     1       7.814   9.086  17.475  0.00  0.00    +0.000 A 
ATOM     21  C   UNL     1       8.728   9.317  18.543  0.00  0.00    +0.000 A 
ATOM     22  N   UNL     1       8.951   8.182  19.226  0.00  0.00    +0.000 NA
ATOM     23  N   UNL     1       8.182   7.276  18.616  0.00  0.00    +0.000 N 
ATOM     24  H   UNL     1       8.151   6.323  18.968  0.00  0.00    +0.000 HD
BRANCH  21  25
ATOM     25  C   UNL     1       9.347  10.578  18.939  0.00  0.00    +0.000 A 
ATOM     26  C   UNL     1       9.495  10.890  20.298  0.00  0.00    +0.000 A 
ATOM     27  C   UNL     1      10.029  12.117  20.690  0.00  0.00    +0.000 A 
ATOM     28  C   UNL     1      10.428  13.041  19.726  0.00  0.00    +0.000 A 
ATOM     29  C   UNL     1      10.302  12.735  18.372  0.00  0.00    +0.000 A 
ATOM     30  C   UNL     1       9.764  11.509  17.978  0.00  0.00    +0.000 A 
ENDBRANCH  21  25
ENDBRANCH  18  19
ENDBRANCH   2  18
TORSDOF 5
ENDMDL
MODEL 2
REMARK VINA RESULT:      -8.1      4.421      7.442
REMARK  Name = 
REMARK  6 active torsions:
REMARK  status: ('A' for Active; 'I' for Inactive)
REMARK    1  A    between atoms: C_1  and  N_2
REMARK    2  A    between atoms: N_2  and  C_3
REMARK    3  A    between atoms: C_3  and  C_4
REMARK    4  A    between atoms: C_6  and  C_7
REMARK    5  A    between atoms: C_17  and  C_18
REMARK    6  A    between atoms: C_20  and  O_21
REMARK                            x       y       z     vdW  Elec       q    Type
REMARK                         _______ _______ _______ _____ _____    ______ ____
ROOT
ATOM      1  C   UNL     1       3.223   3.733  18.804  0.00  0.00    +0.000 C 
ATOM      2  N   UNL     1       3.681   5.087  18.524  0.00  0.00    +0.000 N 
ATOM      3  C   UNL     1       4.742   5.282  17.643  0.00  0.00    +0.000 A 
ATOM      4  C   UNL     1       4.955   4.424  16.584  0.00  0.00    +0.000 A 
ATOM      5  C   UNL     1       6.018   4.675  15.734  0.00  0.00    +0.000 A 
ATOM      6  N   UNL     1       6.856   5.706  15.952  0.00  0.00    +0.000 NA
ATOM      7  C   UNL     1       6.586   6.501  16.981  0.00  0.00    +0.000 A 
ATOM      8  N   UNL     1       7.466   7.532  17.237  0.00  0.00    +0.000 N 
ATOM      9  N   UNL     1       5.565   6.333  17.827  0.00  0.00    +0.000 NA
ATOM     10  H   UNL     1       8.361   7.331  16.808  0.00  0.00    +0.000 HD
ATOM     11  H   UNL     1       7.475   7.798  18.209  0.00  0.00    +0.000 HD
ENDROOT
BRANCH   5  12
ATOM     12  C   UNL     1       6.330   3.831  14.456  0.00  0.00    +0.000 C 
ATOM     13  C   UNL     1       7.228   4.445  13.356  0.00  0.00    +0.000 C 
ATOM     14  C   UNL     1       6.306   3.801  12.299  0.00  0.00    +0.000 C 
ATOM     15  C   UNL     1       5.220   3.682  13.384  0.00  0.00    +0.000 C 
BRANCH  14  16
ATOM     16  O   UNL     1       6.768   2.568  11.714  0.00  0.00    +0.000 OA
ATOM     17  H   UNL     1       6.077   2.291  11.089  0.00  0.00    +0.000 HD
ENDBRANCH  14  16
ENDBRANCH   5  12
BRANCH   2  18
ATOM     18  C   UNL     1       3.357   6.132  19.497  0.00  0.00    +0.000 C 
BRANCH  18  19
ATOM     19  C   UNL     1       2.651   7.325  18.965  0.00  0.00    +0.000 A 
ATOM     20  C   UNL     1       1.725   8.201  19.481  0.00  0.00    +0.000 A 
ATOM     21  C   UNL     1       1.487   9.157  18.452  0.00  0.00    +0.000 A 
ATOM     22  N   UNL     1       2.187   8.848  17.348  0.00  0.00    +0.000 NA
ATOM     23  N   UNL     1       2.860   7.743  17.686  0.00  0.00    +0.000 N 
ATOM     24  H   UNL     1       3.497   7.318  17.019  0.00  0.00    +0.000 HD
BRANCH  21  25
ATOM     25  C   UNL     1       0.654  10.354  18.513  0.00  0.00    +0.000 A 
ATOM     26  C   UNL     1      -0.718  10.269  18.237  0.00  0.00    +0.000 A 
ATOM     27  C   UNL     1      -1.514  11.415  18.233  0.00  0.00    +0.000 A 
ATOM     28  C   UNL     1      -0.946  12.655  18.514  0.00  0.00    +0.000 A 
ATOM     29  C   UNL     1       0.413  12.751  18.808  0.00  0.00    +0.000 A 
ATOM     30  C   UNL     1       1.212  11.605  18.808  0.00  0.00    +0.000 A 
ENDBRANCH  21  25
ENDBRANCH  18  19
ENDBRANCH   2  18
TORSDOF 5
ENDMDL
MODEL 3
REMARK VINA RESULT:      -8.0      4.932      7.656
REMARK  Name = 
REMARK  6 active torsions:
REMARK  status: ('A' for Active; 'I' for Inactive)
REMARK    1  A    between atoms: C_1  and  N_2
REMARK    2  A    between atoms: N_2  and  C_3
REMARK    3  A    between atoms: C_3  and  C_4
REMARK    4  A    between atoms: C_6  and  C_7
REMARK    5  A    between atoms: C_17  and  C_18
REMARK    6  A    between atoms: C_20  and  O_21
REMARK                            x       y       z     vdW  Elec       q    Type
REMARK                         _______ _______ _______ _____ _____    ______ ____
ROOT
ATOM      1  C   UNL     1       2.439   3.254  18.085  0.00  0.00    +0.000 C 
ATOM      2  N   UNL     1       3.349   4.262  18.609  0.00  0.00    +0.000 N 
ATOM      3  C   UNL     1       4.640   4.353  18.094  0.00  0.00    +0.000 A 
ATOM      4  C   UNL     1       4.905   4.038  16.777  0.00  0.00    +0.000 A 
ATOM      5  C   UNL     1       6.204   4.159  16.317  0.00  0.00    +0.000 A 
ATOM      6  N   UNL     1       7.202   4.535  17.139  0.00  0.00    +0.000 NA
ATOM      7  C   UNL     1       6.876   4.837  18.391  0.00  0.00    +0.000 A 
ATOM      8  N   UNL     1       7.901   5.178  19.249  0.00  0.00    +0.000 N 
ATOM      9  N   UNL     1       5.641   4.766  18.896  0.00  0.00    +0.000 NA
ATOM     10  H   UNL     1       8.779   4.828  18.890  0.00  0.00    +0.000 HD
ATOM     11  H   UNL     1       7.683   4.966  20.211  0.00  0.00    +0.000 HD
ENDROOT
BRANCH   5  12
ATOM     12  C   UNL     1       6.631   3.907  14.835  0.00  0.00    +0.000 C 
ATOM     13  C   UNL     1       7.306   5.055  14.046  0.00  0.00    +0.000 C 
ATOM     14  C   UNL     1       6.500   4.624  12.804  0.00  0.00    +0.000 C 
ATOM     15  C   UNL     1       5.528   3.887  13.745  0.00  0.00    +0.000 C 
BRANCH  14  16
ATOM     16  O   UNL     1       7.198   3.813  11.838  0.00  0.00    +0.000 OA
ATOM     17  H   UNL     1       7.966   4.335  11.553  0.00  0.00    +0.000 HD
ENDBRANCH  14  16
ENDBRANCH   5  12
BRANCH   2  18
ATOM     18  C   UNL     1       3.069   4.811  19.937  0.00  0.00    +0.000 C 
BRANCH  18  19
ATOM     19  C   UNL     1       2.428   6.151  19.970  0.00  0.00    +0.000 A 
ATOM     20  C   UNL     1       1.586   6.790  20.847  0.00  0.00    +0.000 A 
ATOM     21  C   UNL     1       1.377   8.090  20.302  0.00  0.00    +0.000 A 
ATOM     22  N   UNL     1       2.014   8.216  19.126  0.00  0.00    +0.000 NA
ATOM     23  N   UNL     1       2.620   7.037  18.954  0.00  0.00    +0.000 N 
ATOM     24  H   UNL     1       3.201   6.886  18.134  0.00  0.00    +0.000 HD
BRANCH  21  25
ATOM     25  C   UNL     1       0.633   9.200  20.887  0.00  0.00    +0.000 A 
ATOM     26  C   UNL     1       0.286   9.174  22.245  0.00  0.00    +0.000 A 
ATOM     27  C   UNL     1      -0.478  10.200  22.803  0.00  0.00    +0.000 A 
ATOM     28  C   UNL     1      -0.894  11.266  22.009  0.00  0.00    +0.000 A 
ATOM     29  C   UNL     1      -0.541  11.313  20.661  0.00  0.00    +0.000 A 
ATOM     30  C   UNL     1       0.220  10.285  20.100  0.00  0.00    +0.000 A 
ENDBRANCH  21  25
ENDBRANCH  18  19
ENDBRANCH   2  18
TORSDOF 5
ENDMDL
MODEL 4
REMARK VINA RESULT:      -8.0      5.206      8.233
REMARK  Name = 
REMARK  6 active torsions:
REMARK  status: ('A' for Active; 'I' for Inactive)
REMARK    1  A    between atoms: C_1  and  N_2
REMARK    2  A    between atoms: N_2  and  C_3
REMARK    3  A    between atoms: C_3  and  C_4
REMARK    4  A    between atoms: C_6  and  C_7
REMARK    5  A    between atoms: C_17  and  C_18
REMARK    6  A    between atoms: C_20  and  O_21
REMARK                            x       y       z     vdW  Elec       q    Type
REMARK                         _______ _______ _______ _____ _____    ______ ____
ROOT
ATOM      1  C   UNL     1       1.945   8.659  18.411  0.00  0.00    +0.000 C 
ATOM      2  N   UNL     1       2.276   7.481  19.200  0.00  0.00    +0.000 N 
ATOM      3  C   UNL     1       2.972   6.432  18.604  0.00  0.00    +0.000 A 
ATOM      4  C   UNL     1       3.885   6.665  17.597  0.00  0.00    +0.000 A 
ATOM      5  C   UNL     1       4.556   5.584  17.051  0.00  0.00    +0.000 A 
ATOM      6  N   UNL     1       4.301   4.327  17.458  0.00  0.00    +0.000 NA
ATOM      7  C   UNL     1       3.420   4.174  18.441  0.00  0.00    +0.000 A 
ATOM      8  N   UNL     1       3.120   2.886  18.831  0.00  0.00    +0.000 N 
ATOM      9  N   UNL     1       2.754   5.172  19.030  0.00  0.00    +0.000 NA
ATOM     10  H   UNL     1       3.362   2.239  18.091  0.00  0.00    +0.000 HD
ATOM     11  H   UNL     1       2.194   2.808  19.221  0.00  0.00    +0.000 HD
ENDROOT
BRANCH   5  12
ATOM     12  C   UNL     1       5.667   5.710  15.959  0.00  0.00    +0.000 C 
ATOM     13  C   UNL     1       5.570   4.831  14.689  0.00  0.00    +0.000 C 
ATOM     14  C   UNL     1       7.100   4.640  14.752  0.00  0.00    +0.000 C 
ATOM     15  C   UNL     1       7.047   5.058  16.233  0.00  0.00    +0.000 C 
BRANCH  14  16
ATOM     16  O   UNL     1       7.885   5.474  13.877  0.00  0.00    +0.000 OA
ATOM     17  H   UNL     1       8.514   4.881  13.433  0.00  0.00    +0.000 HD
ENDBRANCH  14  16
ENDBRANCH   5  12
BRANCH   2  18
ATOM     18  C   UNL     1       1.486   7.222  20.406  0.00  0.00    +0.000 C 
BRANCH  18  19
ATOM     19  C   UNL     1       1.035   8.419  21.161  0.00  0.00    +0.000 A 
ATOM     20  C   UNL     1       0.074   9.380  20.951  0.00  0.00    +0.000 A 
ATOM     21  C   UNL     1       0.129  10.233  22.091  0.00  0.00    +0.000 A 
ATOM     22  N   UNL     1       1.109   9.846  22.923  0.00  0.00    +0.000 NA
ATOM     23  N   UNL     1       1.636   8.769  22.331  0.00  0.00    +0.000 N 
ATOM     24  H   UNL     1       2.392   8.265  22.786  0.00  0.00    +0.000 HD
BRANCH  21  25
ATOM     25  C   UNL     1      -0.741  11.360  22.411  0.00  0.00    +0.000 A 
ATOM     26  C   UNL     1      -0.404  12.651  21.981  0.00  0.00    +0.000 A 
ATOM     27  C   UNL     1      -1.194  13.746  22.333  0.00  0.00    +0.000 A 
ATOM     28  C   UNL     1      -2.334  13.557  23.110  0.00  0.00    +0.000 A 
ATOM     29  C   UNL     1      -2.690  12.276  23.530  0.00  0.00    +0.000 A 
ATOM     30  C   UNL     1      -1.897  11.180  23.182  0.00  0.00    +0.000 A 
ENDBRANCH  21  25
ENDBRANCH  18  19
ENDBRANCH   2  18
TORSDOF 5
ENDMDL
MODEL 5
REMARK VINA RESULT:      -7.8      4.407      7.556
REMARK  Name = 
REMARK  6 active torsions:
REMARK  status: ('A' for Active; 'I' for Inactive)
REMARK    1  A    between atoms: C_1  and  N_2
REMARK    2  A    between atoms: N_2  and  C_3
REMARK    3  A    between atoms: C_3  and  C_4
REMARK    4  A    between atoms: C_6  and  C_7
REMARK    5  A    between atoms: C_17  and  C_18
REMARK    6  A    between atoms: C_20  and  O_21
REMARK                            x       y       z     vdW  Elec       q    Type
REMARK                         _______ _______ _______ _____ _____    ______ ____
ROOT
ATOM      1  C   UNL     1       4.016   3.235  18.774  0.00  0.00    +0.000 C 
ATOM      2  N   UNL     1       4.295   4.651  18.586  0.00  0.00    +0.000 N 
ATOM      3  C   UNL     1       5.275   5.041  17.676  0.00  0.00    +0.000 A 
ATOM      4  C   UNL     1       5.527   4.299  16.540  0.00  0.00    +0.000 A 
ATOM      5  C   UNL     1       6.504   4.741  15.666  0.00  0.00    +0.000 A 
ATOM      6  N   UNL     1       7.226   5.846  15.928  0.00  0.00    +0.000 NA
ATOM      7  C   UNL     1       6.923   6.521  17.032  0.00  0.00    +0.000 A 
ATOM      8  N   UNL     1       7.689   7.629  17.330  0.00  0.00    +0.000 N 
ATOM      9  N   UNL     1       5.978   6.167  17.907  0.00  0.00    +0.000 NA
ATOM     10  H   UNL     1       8.576   7.572  16.845  0.00  0.00    +0.000 HD
ATOM     11  H   UNL     1       7.721   7.819  18.319  0.00  0.00    +0.000 HD
ENDROOT
BRANCH   5  12
ATOM     12  C   UNL     1       6.841   4.041  14.309  0.00  0.00    +0.000 C 
ATOM     13  C   UNL     1       7.480   4.878  13.175  0.00  0.00    +0.000 C 
ATOM     14  C   UNL     1       6.598   4.112  12.167  0.00  0.00    +0.000 C 
ATOM     15  C   UNL     1       5.676   3.722  13.336  0.00  0.00    +0.000 C 
BRANCH  14  16
ATOM     16  O   UNL     1       7.230   3.028  11.457  0.00  0.00    +0.000 OA
ATOM     17  H   UNL     1       8.039   3.397  11.066  0.00  0.00    +0.000 HD
ENDBRANCH  14  16
ENDBRANCH   5  12
BRANCH   2  18
ATOM     18  C   UNL     1       3.906   5.572  19.656  0.00  0.00    +0.000 C 
BRANCH  18  19
ATOM     19  C   UNL     1       3.023   6.698  19.261  0.00  0.00    +0.000 A 
ATOM     20  C   UNL     1       2.088   7.462  19.920  0.00  0.00    +0.000 A 
ATOM     21  C   UNL     1       1.626   8.412  18.965  0.00  0.00    +0.000 A 
ATOM     22  N   UNL     1       2.207   8.204  17.772  0.00  0.00    +0.000 NA
ATOM     23  N   UNL     1       3.024   7.167  17.982  0.00  0.00    +0.000 N 
ATOM     24  H   UNL     1       3.609   6.826  17.225  0.00  0.00    +0.000 HD
BRANCH  21  25
ATOM     25  C   UNL     1       0.693   9.515  19.174  0.00  0.00    +0.000 A 
ATOM     26  C   UNL     1       0.474  10.012  20.466  0.00  0.00    +0.000 A 
ATOM     27  C   UNL     1      -0.460  11.024  20.688  0.00  0.00    +0.000 A 
ATOM     28  C   UNL     1      -1.176  11.556  19.618  0.00  0.00    +0.000 A 
ATOM     29  C   UNL     1      -0.954  11.082  18.326  0.00  0.00    +0.000 A 
ATOM     30  C   UNL     1      -0.023  10.066  18.102  0.00  0.00    +0.000 A 
ENDBRANCH  21  25
ENDBRANCH  18  19
ENDBRANCH   2  18
TORSDOF 5
ENDMDL
MODEL 6
REMARK VINA RESULT:      -7.8      4.825      7.552
REMARK  Name = 
REMARK  6 active torsions:
REMARK  status: ('A' for Active; 'I' for Inactive)
REMARK    1  A    between atoms: C_1  and  N_2
REMARK    2  A    between atoms: N_2  and  C_3
REMARK    3  A    between atoms: C_3  and  C_4
REMARK    4  A    between atoms: C_6  and  C_7
REMARK    5  A    between atoms: C_17  and  C_18
REMARK    6  A    between atoms: C_20  and  O_21
REMARK                            x       y       z     vdW  Elec       q    Type
REMARK                         _______ _______ _______ _____ _____    ______ ____
ROOT
ATOM      1  C   UNL     1       2.035   4.451  17.999  0.00  0.00    +0.000 C 
ATOM      2  N   UNL     1       3.111   5.335  18.426  0.00  0.00    +0.000 N 
ATOM      3  C   UNL     1       4.410   5.094  17.985  0.00  0.00    +0.000 A 
ATOM      4  C   UNL     1       4.650   4.532  16.748  0.00  0.00    +0.000 A 
ATOM      5  C   UNL     1       5.962   4.327  16.359  0.00  0.00    +0.000 A 
ATOM      6  N   UNL     1       6.987   4.629  17.177  0.00  0.00    +0.000 NA
ATOM      7  C   UNL     1       6.687   5.180  18.348  0.00  0.00    +0.000 A 
ATOM      8  N   UNL     1       7.730   5.449  19.210  0.00  0.00    +0.000 N 
ATOM      9  N   UNL     1       5.446   5.428  18.779  0.00  0.00    +0.000 NA
ATOM     10  H   UNL     1       8.533   4.884  18.963  0.00  0.00    +0.000 HD
ATOM     11  H   UNL     1       7.443   5.436  20.177  0.00  0.00    +0.000 HD
ENDROOT
BRANCH   5  12
ATOM     12  C   UNL     1       6.379   3.769  14.960  0.00  0.00    +0.000 C 
ATOM     13  C   UNL     1       7.267   4.642  14.041  0.00  0.00    +0.000 C 
ATOM     14  C   UNL     1       6.433   4.157  12.838  0.00  0.00    +0.000 C 
ATOM     15  C   UNL     1       5.321   3.759  13.826  0.00  0.00    +0.000 C 
BRANCH  14  16
ATOM     16  O   UNL     1       7.003   3.093  12.050  0.00  0.00    +0.000 OA
ATOM     17  H   UNL     1       7.551   3.524  11.373  0.00  0.00    +0.000 HD
ENDBRANCH  14  16
ENDBRANCH   5  12
BRANCH   2  18
ATOM     18  C   UNL     1       2.902   6.129  19.638  0.00  0.00    +0.000 C 
BRANCH  18  19
ATOM     19  C   UNL     1       2.212   7.431  19.456  0.00  0.00    +0.000 A 
ATOM     20  C   UNL     1       1.420   8.218  20.259  0.00  0.00    +0.000 A 
ATOM     21  C   UNL     1       1.113   9.372  19.483  0.00  0.00    +0.000 A 
ATOM     22  N   UNL     1       1.644   9.269  18.253  0.00  0.00    +0.000 NA
ATOM     23  N   UNL     1       2.281   8.094  18.269  0.00  0.00    +0.000 N 
ATOM     24  H   UNL     1       2.797   7.791  17.448  0.00  0.00    +0.000 HD
BRANCH  21  25
ATOM     25  C   UNL     1       0.375  10.562  19.895  0.00  0.00    +0.000 A 
ATOM     26  C   UNL     1       0.913  11.420  20.865  0.00  0.00    +0.000 A 
ATOM     27  C   UNL     1       0.191  12.526  21.313  0.00  0.00    +0.000 A 
ATOM     28  C   UNL     1      -1.072  12.790  20.787  0.00  0.00    +0.000 A 
ATOM     29  C   UNL     1      -1.610  11.955  19.810  0.00  0.00    +0.000 A 
ATOM     30  C   UNL     1      -0.891  10.844  19.364  0.00  0.00    +0.000 A 
ENDBRANCH  21  25
ENDBRANCH  18  19
ENDBRANCH   2  18
TORSDOF 5
ENDMDL
MODEL 7
REMARK VINA RESULT:      -7.8      4.859      7.439
REMARK  Name = 
REMARK  6 active torsions:
REMARK  status: ('A' for Active; 'I' for Inactive)
REMARK    1  A    between atoms: C_1  and  N_2
REMARK    2  A    between atoms: N_2  and  C_3
REMARK    3  A    between atoms: C_3  and  C_4
REMARK    4  A    between atoms: C_6  and  C_7
REMARK    5  A    between atoms: C_17  and  C_18
REMARK    6  A    between atoms: C_20  and  O_21
REMARK                            x       y       z     vdW  Elec       q    Type
REMARK                         _______ _______ _______ _____ _____    ______ ____
ROOT
ATOM      1  C   UNL     1       1.609   4.002  18.789  0.00  0.00    +0.000 C 
ATOM      2  N   UNL     1       2.626   4.959  19.202  0.00  0.00    +0.000 N 
ATOM      3  C   UNL     1       3.919   4.845  18.698  0.00  0.00    +0.000 A 
ATOM      4  C   UNL     1       4.148   4.346  17.433  0.00  0.00    +0.000 A 
ATOM      5  C   UNL     1       5.454   4.266  16.981  0.00  0.00    +0.000 A 
ATOM      6  N   UNL     1       6.486   4.626  17.766  0.00  0.00    +0.000 NA
ATOM      7  C   UNL     1       6.195   5.110  18.968  0.00  0.00    +0.000 A 
ATOM      8  N   UNL     1       7.250   5.437  19.794  0.00  0.00    +0.000 N 
ATOM      9  N   UNL     1       4.959   5.237  19.460  0.00  0.00    +0.000 NA
ATOM     10  H   UNL     1       8.085   4.951  19.492  0.00  0.00    +0.000 HD
ATOM     11  H   UNL     1       7.009   5.368  20.771  0.00  0.00    +0.000 HD
ENDROOT
BRANCH   5  12
ATOM     12  C   UNL     1       5.851   3.793  15.545  0.00  0.00    +0.000 C 
ATOM     13  C   UNL     1       7.134   4.367  14.897  0.00  0.00    +0.000 C 
ATOM     14  C   UNL     1       6.382   4.423  13.551  0.00  0.00    +0.000 C 
ATOM     15  C   UNL     1       5.059   4.358  14.338  0.00  0.00    +0.000 C 
BRANCH  14  16
ATOM     16  O   UNL     1       6.636   3.343  12.631  0.00  0.00    +0.000 OA
ATOM     17  H   UNL     1       7.491   2.964  12.890  0.00  0.00    +0.000 HD
ENDBRANCH  14  16
ENDBRANCH   5  12
BRANCH   2  18
ATOM     18  C   UNL     1       2.406   5.692  20.451  0.00  0.00    +0.000 C 
BRANCH  18  19
ATOM     19  C   UNL     1       1.895   7.079  20.315  0.00  0.00    +0.000 A 
ATOM     20  C   UNL     1       1.217   7.938  21.147  0.00  0.00    +0.000 A 
ATOM     21  C   UNL     1       1.063   9.147  20.410  0.00  0.00    +0.000 A 
ATOM     22  N   UNL     1       1.570   9.013  19.173  0.00  0.00    +0.000 NA
ATOM     23  N   UNL     1       2.046   7.764  19.148  0.00  0.00    +0.000 N 
ATOM     24  H   UNL     1       2.515   7.422  18.314  0.00  0.00    +0.000 HD
BRANCH  21  25
ATOM     25  C   UNL     1       0.490  10.410  20.865  0.00  0.00    +0.000 A 
ATOM     26  C   UNL     1       0.869  11.612  20.252  0.00  0.00    +0.000 A 
ATOM     27  C   UNL     1       0.377  12.832  20.717  0.00  0.00    +0.000 A 
ATOM     28  C   UNL     1      -0.508  12.859  21.794  0.00  0.00    +0.000 A 
ATOM     29  C   UNL     1      -0.906  11.668  22.399  0.00  0.00    +0.000 A 
ATOM     30  C   UNL     1      -0.410  10.447  21.938  0.00  0.00    +0.000 A 
ENDBRANCH  21  25
ENDBRANCH  18  19
ENDBRANCH   2  18
TORSDOF 5
ENDMDL
MODEL 8
REMARK VINA RESULT:      -7.8      4.934      7.554
REMARK  Name = 
REMARK  6 active torsions:
REMARK  status: ('A' for Active; 'I' for Inactive)
REMARK    1  A    between atoms: C_1  and  N_2
REMARK    2  A    between atoms: N_2  and  C_3
REMARK    3  A    between atoms: C_3  and  C_4
REMARK    4  A    between atoms: C_6  and  C_7
REMARK    5  A    between atoms: C_17  and  C_18
REMARK    6  A    between atoms: C_20  and  O_21
REMARK                            x       y       z     vdW  Elec       q    Type
REMARK                         _______ _______ _______ _____ _____    ______ ____
ROOT
ATOM      1  C   UNL     1       2.023   4.497  18.188  0.00  0.00    +0.000 C 
ATOM      2  N   UNL     1       3.137   5.282  18.702  0.00  0.00    +0.000 N 
ATOM      3  C   UNL     1       4.424   5.035  18.229  0.00  0.00    +0.000 A 
ATOM      4  C   UNL     1       4.637   4.602  16.937  0.00  0.00    +0.000 A 
ATOM      5  C   UNL     1       5.938   4.385  16.520  0.00  0.00    +0.000 A 
ATOM      6  N   UNL     1       6.977   4.551  17.360  0.00  0.00    +0.000 NA
ATOM      7  C   UNL     1       6.703   4.983  18.586  0.00  0.00    +0.000 A 
ATOM      8  N   UNL     1       7.758   5.111  19.465  0.00  0.00    +0.000 N 
ATOM      9  N   UNL     1       5.475   5.235  19.049  0.00  0.00    +0.000 NA
ATOM     10  H   UNL     1       8.535   4.543  19.153  0.00  0.00    +0.000 HD
ATOM     11  H   UNL     1       7.472   5.005  20.426  0.00  0.00    +0.000 HD
ENDROOT
BRANCH   5  12
ATOM     12  C   UNL     1       6.328   3.966  15.065  0.00  0.00    +0.000 C 
ATOM     13  C   UNL     1       7.184   4.934  14.213  0.00  0.00    +0.000 C 
ATOM     14  C   UNL     1       6.327   4.551  12.989  0.00  0.00    +0.000 C 
ATOM     15  C   UNL     1       5.244   4.047  13.960  0.00  0.00    +0.000 C 
BRANCH  14  16
ATOM     16  O   UNL     1       6.891   3.574  12.092  0.00  0.00    +0.000 OA
ATOM     17  H   UNL     1       6.138   3.111  11.690  0.00  0.00    +0.000 HD
ENDBRANCH  14  16
ENDBRANCH   5  12
BRANCH   2  18
ATOM     18  C   UNL     1       2.964   5.946  19.995  0.00  0.00    +0.000 C 
BRANCH  18  19
ATOM     19  C   UNL     1       2.176   7.205  19.983  0.00  0.00    +0.000 A 
ATOM     20  C   UNL     1       1.960   8.193  19.052  0.00  0.00    +0.000 A 
ATOM     21  C   UNL     1       1.061   9.111  19.668  0.00  0.00    +0.000 A 
ATOM     22  N   UNL     1       0.787   8.732  20.927  0.00  0.00    +0.000 NA
ATOM     23  N   UNL     1       1.479   7.599  21.085  0.00  0.00    +0.000 N 
ATOM     24  H   UNL     1       1.416   7.090  21.962  0.00  0.00    +0.000 HD
BRANCH  21  25
ATOM     25  C   UNL     1       0.441  10.293  19.078  0.00  0.00    +0.000 A 
ATOM     26  C   UNL     1       1.064  11.543  19.193  0.00  0.00    +0.000 A 
ATOM     27  C   UNL     1       0.453  12.691  18.687  0.00  0.00    +0.000 A 
ATOM     28  C   UNL     1      -0.784  12.596  18.052  0.00  0.00    +0.000 A 
ATOM     29  C   UNL     1      -1.405  11.356  17.915  0.00  0.00    +0.000 A 
ATOM     30  C   UNL     1      -0.797  10.207  18.425  0.00  0.00    +0.000 A 
ENDBRANCH  21  25
ENDBRANCH  18  19
ENDBRANCH   2  18
TORSDOF 5
ENDMDL
MODEL 9
REMARK VINA RESULT:      -7.7      5.370      8.173
REMARK  Name = 
REMARK  6 active torsions:
REMARK  status: ('A' for Active; 'I' for Inactive)
REMARK    1  A    between atoms: C_1  and  N_2
REMARK    2  A    between atoms: N_2  and  C_3
REMARK    3  A    between atoms: C_3  and  C_4
REMARK    4  A    between atoms: C_6  and  C_7
REMARK    5  A    between atoms: C_17  and  C_18
REMARK    6  A    between atoms: C_20  and  O_21
REMARK                            x       y       z     vdW  Elec       q    Type
REMARK                         _______ _______ _______ _____ _____    ______ ____
ROOT
ATOM      1  C   UNL     1       2.237   8.090  18.608  0.00  0.00    +0.000 C 
ATOM      2  N   UNL     1       2.376   6.886  19.415  0.00  0.00    +0.000 N 
ATOM      3  C   UNL     1       2.787   5.700  18.811  0.00  0.00    +0.000 A 
ATOM      4  C   UNL     1       3.644   5.712  17.730  0.00  0.00    +0.000 A 
ATOM      5  C   UNL     1       4.027   4.502  17.178  0.00  0.00    +0.000 A 
ATOM      6  N   UNL     1       3.548   3.337  17.651  0.00  0.00    +0.000 NA
ATOM      7  C   UNL     1       2.737   3.396  18.702  0.00  0.00    +0.000 A 
ATOM      8  N   UNL     1       2.206   2.209  19.164  0.00  0.00    +0.000 N 
ATOM      9  N   UNL     1       2.345   4.525  19.300  0.00  0.00    +0.000 NA
ATOM     10  H   UNL     1       2.247   1.510  18.433  0.00  0.00    +0.000 HD
ATOM     11  H   UNL     1       1.319   2.338  19.624  0.00  0.00    +0.000 HD
ENDROOT
BRANCH   5  12
ATOM     12  C   UNL     1       5.048   4.365  16.002  0.00  0.00    +0.000 C 
ATOM     13  C   UNL     1       6.553   4.216  16.333  0.00  0.00    +0.000 C 
ATOM     14  C   UNL     1       6.867   5.132  15.132  0.00  0.00    +0.000 C 
ATOM     15  C   UNL     1       5.413   5.636  15.192  0.00  0.00    +0.000 C 
BRANCH  14  16
ATOM     16  O   UNL     1       7.270   4.476  13.914  0.00  0.00    +0.000 OA
ATOM     17  H   UNL     1       8.099   4.013  14.119  0.00  0.00    +0.000 HD
ENDBRANCH  14  16
ENDBRANCH   5  12
BRANCH   2  18
ATOM     18  C   UNL     1       1.650   6.828  20.685  0.00  0.00    +0.000 C 
BRANCH  18  19
ATOM     19  C   UNL     1       1.111   8.117  21.190  0.00  0.00    +0.000 A 
ATOM     20  C   UNL     1       0.013   8.884  20.882  0.00  0.00    +0.000 A 
ATOM     21  C   UNL     1       0.057   9.993  21.775  0.00  0.00    +0.000 A 
ATOM     22  N   UNL     1       1.153   9.934  22.549  0.00  0.00    +0.000 NA
ATOM     23  N   UNL     1       1.765   8.809  22.164  0.00  0.00    +0.000 N 
ATOM     24  H   UNL     1       2.621   8.518  22.627  0.00  0.00    +0.000 HD
BRANCH  21  25
ATOM     25  C   UNL     1      -0.925  11.062  21.929  0.00  0.00    +0.000 A 
ATOM     26  C   UNL     1      -1.235  11.891  20.842  0.00  0.00    +0.000 A 
ATOM     27  C   UNL     1      -2.125  12.954  20.991  0.00  0.00    +0.000 A 
ATOM     28  C   UNL     1      -2.723  13.192  22.227  0.00  0.00    +0.000 A 
ATOM     29  C   UNL     1      -2.437  12.363  23.311  0.00  0.00    +0.000 A 
ATOM     30  C   UNL     1      -1.542  11.301  23.165  0.00  0.00    +0.000 A 
ENDBRANCH  21  25
ENDBRANCH  18  19
ENDBRANCH   2  18
TORSDOF 5
ENDMDL
