MODEL 1
REMARK VINA RESULT:      -7.2      0.000      0.000
REMARK  Name = 
REMARK  7 active torsions:
REMARK  status: ('A' for Active; 'I' for Inactive)
REMARK    1  A    between atoms: N_1  and  C_2
REMARK    2  A    between atoms: C_8  and  C_9
REMARK    3  A    between atoms: N_15  and  C1*_16
REMARK    4  A    between atoms: C4*_18  and  C5*_19
REMARK    5  A    between atoms: C5*_19  and  O5*_20
REMARK    6  A    between atoms: C3*_21  and  O3*_22
REMARK    7  A    between atoms: C2*_23  and  O2*_24
REMARK                            x       y       z     vdW  Elec       q    Type
REMARK                         _______ _______ _______ _____ _____    ______ ____
ROOT
ATOM      1  C   UNL     1       1.328   3.959  19.932  0.00  0.00    +0.000 A 
ATOM      2  N   UNL     1       1.311   2.606  19.925  0.00  0.00    +0.000 NA
ATOM      3  C   UNL     1       2.380   1.960  19.458  0.00  0.00    +0.000 A 
ATOM      4  N   UNL     1       3.514   2.487  18.977  0.00  0.00    +0.000 NA
ATOM      5  C   UNL     1       3.498   3.832  18.979  0.00  0.00    +0.000 A 
ATOM      6  C   UNL     1       2.464   4.638  19.449  0.00  0.00    +0.000 A 
ATOM      7  C   UNL     1       2.910   5.989  19.290  0.00  0.00    +0.000 A 
ATOM      8  C   UNL     1       4.158   5.954  18.697  0.00  0.00    +0.000 A 
ATOM      9  N   UNL     1       4.526   4.631  18.544  0.00  0.00    +0.000 N 
ENDROOT
BRANCH   7  10
ATOM     10  C   UNL     1       2.178   7.203  19.676  0.00  0.00    +0.000 A 
ATOM     11  C   UNL     1       1.920   8.279  18.771  0.00  0.00    +0.000 A 
ATOM     12  C   UNL     1       1.159   9.274  19.346  0.00  0.00    +0.000 A 
ATOM     13  S   UNL     1       0.779   8.934  20.976  0.00  0.00    +0.000 S 
ATOM     14  C   UNL     1       1.688   7.487  20.934  0.00  0.00    +0.000 A 
ENDBRANCH   7  10
BRANCH   9  15
ATOM     15  C1* UNL     1       5.824   4.216  18.021  0.00  0.00    +0.000 C 
ATOM     16  O4* UNL     1       6.846   4.985  18.699  0.00  0.00    +0.000 OA
ATOM     17  C4* UNL     1       7.647   5.661  17.698  0.00  0.00    +0.000 C 
ATOM     18  C3* UNL     1       6.867   5.635  16.390  0.00  0.00    +0.000 C 
ATOM     19  C2* UNL     1       6.106   4.320  16.513  0.00  0.00    +0.000 C 
BRANCH  18  20
ATOM     20  O3* UNL     1       7.716   5.698  15.248  0.00  0.00    +0.000 OA
ATOM     21  H3* UNL     1       8.208   4.863  15.163  0.00  0.00    +0.000 HD
ENDBRANCH  18  20
BRANCH  19  22
ATOM     22  O2* UNL     1       4.989   4.199  15.644  0.00  0.00    +0.000 OA
ATOM     23  H2* UNL     1       5.128   3.392  15.106  0.00  0.00    +0.000 HD
ENDBRANCH  19  22
BRANCH  17  24
ATOM     24  C5* UNL     1       7.947   7.080  18.178  0.00  0.00    +0.000 C 
BRANCH  24  25
ATOM     25  O5* UNL     1       7.607   8.017  17.155  0.00  0.00    +0.000 OA
ATOM     26  H5* UNL     1       8.263   7.889  16.445  0.00  0.00    +0.000 HD
ENDBRANCH  24  25
ENDBRANCH  17  24
ENDBRANCH   9  15
BRANCH   1  27
ATOM     27  N   UNL     1       0.176   4.560  20.416  0.00  0.00    +0.000 N 
ATOM     28  H   UNL     1      -0.641   4.013  20.176  0.00  0.00    +0.000 HD
ATOM     29  H   UNL     1       0.110   5.550  20.224  0.00  0.00    +0.000 HD
ENDBRANCH   1  27
TORSDOF 7
ENDMDL
MODEL 2
REMARK VINA RESULT:      -6.9      3.830      6.538
REMARK  Name = 
REMARK  7 active torsions:
REMARK  status: ('A' for Active; 'I' for Inactive)
REMARK    1  A    between atoms: N_1  and  C_2
REMARK    2  A    between atoms: C_8  and  C_9
REMARK    3  A    between atoms: N_15  and  C1*_16
REMARK    4  A    between atoms: C4*_18  and  C5*_19
REMARK    5  A    between atoms: C5*_19  and  O5*_20
REMARK    6  A    between atoms: C3*_21  and  O3*_22
REMARK    7  A    between atoms: C2*_23  and  O2*_24
REMARK                            x       y       z     vdW  Elec       q    Type
REMARK                         _______ _______ _______ _____ _____    ______ ____
ROOT
ATOM      1  C   UNL     1       4.606   6.547  16.549  0.00  0.00    +0.000 A 
ATOM      2  N   UNL     1       3.950   7.212  17.527  0.00  0.00    +0.000 NA
ATOM      3  C   UNL     1       3.327   6.503  18.470  0.00  0.00    +0.000 A 
ATOM      4  N   UNL     1       3.260   5.170  18.586  0.00  0.00    +0.000 NA
ATOM      5  C   UNL     1       3.904   4.533  17.592  0.00  0.00    +0.000 A 
ATOM      6  C   UNL     1       4.610   5.138  16.554  0.00  0.00    +0.000 A 
ATOM      7  C   UNL     1       5.157   4.072  15.772  0.00  0.00    +0.000 A 
ATOM      8  C   UNL     1       4.733   2.879  16.329  0.00  0.00    +0.000 A 
ATOM      9  N   UNL     1       3.998   3.170  17.463  0.00  0.00    +0.000 N 
ENDROOT
BRANCH   7  10
ATOM     10  C   UNL     1       6.012   4.207  14.585  0.00  0.00    +0.000 A 
ATOM     11  C   UNL     1       5.708   3.589  13.332  0.00  0.00    +0.000 A 
ATOM     12  C   UNL     1       6.622   3.918  12.353  0.00  0.00    +0.000 A 
ATOM     13  S   UNL     1       7.857   4.941  12.941  0.00  0.00    +0.000 S 
ATOM     14  C   UNL     1       7.208   4.891  14.521  0.00  0.00    +0.000 A 
ENDBRANCH   7  10
BRANCH   9  15
ATOM     15  C1* UNL     1       3.457   2.147  18.350  0.00  0.00    +0.000 C 
ATOM     16  O4* UNL     1       2.025   2.339  18.437  0.00  0.00    +0.000 OA
ATOM     17  C4* UNL     1       1.668   2.486  19.834  0.00  0.00    +0.000 C 
ATOM     18  C3* UNL     1       2.945   2.791  20.605  0.00  0.00    +0.000 C 
ATOM     19  C2* UNL     1       3.985   2.031  19.791  0.00  0.00    +0.000 C 
BRANCH  18  20
ATOM     20  O3* UNL     1       2.872   2.376  21.966  0.00  0.00    +0.000 OA
ATOM     21  H3* UNL     1       2.862   1.404  22.008  0.00  0.00    +0.000 HD
ENDBRANCH  18  20
BRANCH  19  22
ATOM     22  O2* UNL     1       5.327   2.438  20.014  0.00  0.00    +0.000 OA
ATOM     23  H2* UNL     1       5.389   2.727  20.949  0.00  0.00    +0.000 HD
ENDBRANCH  19  22
BRANCH  17  24
ATOM     24  C5* UNL     1       0.622   3.593  19.964  0.00  0.00    +0.000 C 
BRANCH  24  25
ATOM     25  O5* UNL     1       1.154   4.670  20.735  0.00  0.00    +0.000 OA
ATOM     26  H5* UNL     1       1.421   4.284  21.590  0.00  0.00    +0.000 HD
ENDBRANCH  24  25
ENDBRANCH  17  24
ENDBRANCH   9  15
BRANCH   1  27
ATOM     27  N   UNL     1       5.214   7.351  15.597  0.00  0.00    +0.000 N 
ATOM     28  H   UNL     1       6.195   7.120  15.506  0.00  0.00    +0.000 HD
ATOM     29  H   UNL     1       5.004   8.336  15.687  0.00  0.00    +0.000 HD
ENDBRANCH   1  27
TORSDOF 7
ENDMDL
MODEL 3
REMARK VINA RESULT:      -6.8      0.730      1.004
REMARK  Name = 
REMARK  7 active torsions:
REMARK  status: ('A' for Active; 'I' for Inactive)
REMARK    1  A    between atoms: N_1  and  C_2
REMARK    2  A    between atoms: C_8  and  C_9
REMARK    3  A    between atoms: N_15  and  C1*_16
REMARK    4  A    between atoms: C4*_18  and  C5*_19
REMARK    5  A    between atoms: C5*_19  and  O5*_20
REMARK    6  A    between atoms: C3*_21  and  O3*_22
REMARK    7  A    between atoms: C2*_23  and  O2*_24
REMARK                            x       y       z     vdW  Elec       q    Type
REMARK                         _______ _______ _______ _____ _____    ______ ____
ROOT
ATOM      1  C   UNL     1       1.613   4.025  20.225  0.00  0.00    +0.000 A 
ATOM      2  N   UNL     1       1.713   2.681  20.338  0.00  0.00    +0.000 NA
ATOM      3  C   UNL     1       2.843   2.093  19.942  0.00  0.00    +0.000 A 
ATOM      4  N   UNL     1       3.935   2.673  19.428  0.00  0.00    +0.000 NA
ATOM      5  C   UNL     1       3.802   4.006  19.309  0.00  0.00    +0.000 A 
ATOM      6  C   UNL     1       2.694   4.756  19.695  0.00  0.00    +0.000 A 
ATOM      7  C   UNL     1       3.024   6.121  19.420  0.00  0.00    +0.000 A 
ATOM      8  C   UNL     1       4.281   6.144  18.845  0.00  0.00    +0.000 A 
ATOM      9  N   UNL     1       4.765   4.850  18.816  0.00  0.00    +0.000 N 
ENDROOT
BRANCH   7  10
ATOM     10  C   UNL     1       2.182   7.295  19.689  0.00  0.00    +0.000 A 
ATOM     11  C   UNL     1       1.677   7.610  20.989  0.00  0.00    +0.000 A 
ATOM     12  C   UNL     1       0.970   8.795  21.001  0.00  0.00    +0.000 A 
ATOM     13  S   UNL     1       0.888   9.512  19.453  0.00  0.00    +0.000 S 
ATOM     14  C   UNL     1       1.739   8.206  18.752  0.00  0.00    +0.000 A 
ENDBRANCH   7  10
BRANCH   9  15
ATOM     15  C1* UNL     1       6.103   4.507  18.345  0.00  0.00    +0.000 C 
ATOM     16  O4* UNL     1       7.006   5.562  18.754  0.00  0.00    +0.000 OA
ATOM     17  C4* UNL     1       7.680   6.068  17.575  0.00  0.00    +0.000 C 
ATOM     18  C3* UNL     1       6.894   5.597  16.358  0.00  0.00    +0.000 C 
ATOM     19  C2* UNL     1       6.344   4.262  16.846  0.00  0.00    +0.000 C 
BRANCH  18  20
ATOM     20  O3* UNL     1       7.707   5.489  15.193  0.00  0.00    +0.000 OA
ATOM     21  H3* UNL     1       7.817   6.368  14.792  0.00  0.00    +0.000 HD
ENDBRANCH  18  20
BRANCH  19  22
ATOM     22  O2* UNL     1       5.246   3.765  16.095  0.00  0.00    +0.000 OA
ATOM     23  H2* UNL     1       5.530   2.916  15.696  0.00  0.00    +0.000 HD
ENDBRANCH  19  22
BRANCH  17  24
ATOM     24  C5* UNL     1       7.767   7.591  17.669  0.00  0.00    +0.000 C 
BRANCH  24  25
ATOM     25  O5* UNL     1       8.535   7.959  18.815  0.00  0.00    +0.000 OA
ATOM     26  H5* UNL     1       8.460   7.214  19.440  0.00  0.00    +0.000 HD
ENDBRANCH  24  25
ENDBRANCH  17  24
ENDBRANCH   9  15
BRANCH   1  27
ATOM     27  N   UNL     1       0.404   4.562  20.641  0.00  0.00    +0.000 N 
ATOM     28  H   UNL     1      -0.252   3.829  20.878  0.00  0.00    +0.000 HD
ATOM     29  H   UNL     1       0.044   5.293  20.041  0.00  0.00    +0.000 HD
ENDBRANCH   1  27
TORSDOF 7
ENDMDL
MODEL 4
REMARK VINA RESULT:      -6.7      0.786      1.299
REMARK  Name = 
REMARK  7 active torsions:
REMARK  status: ('A' for Active; 'I' for Inactive)
REMARK    1  A    between atoms: N_1  and  C_2
REMARK    2  A    between atoms: C_8  and  C_9
REMARK    3  A    between atoms: N_15  and  C1*_16
REMARK    4  A    between atoms: C4*_18  and  C5*_19
REMARK    5  A    between atoms: C5*_19  and  O5*_20
REMARK    6  A    between atoms: C3*_21  and  O3*_22
REMARK    7  A    between atoms: C2*_23  and  O2*_24
REMARK                            x       y       z     vdW  Elec       q    Type
REMARK                         _______ _______ _______ _____ _____    ______ ____
ROOT
ATOM      1  C   UNL     1       1.179   3.908  19.825  0.00  0.00    +0.000 A 
ATOM      2  N   UNL     1       1.135   2.557  19.756  0.00  0.00    +0.000 NA
ATOM      3  C   UNL     1       2.158   1.917  19.188  0.00  0.00    +0.000 A 
ATOM      4  N   UNL     1       3.267   2.448  18.657  0.00  0.00    +0.000 NA
ATOM      5  C   UNL     1       3.277   3.792  18.723  0.00  0.00    +0.000 A 
ATOM      6  C   UNL     1       2.293   4.591  19.299  0.00  0.00    +0.000 A 
ATOM      7  C   UNL     1       2.753   5.940  19.173  0.00  0.00    +0.000 A 
ATOM      8  C   UNL     1       3.958   5.914  18.496  0.00  0.00    +0.000 A 
ATOM      9  N   UNL     1       4.289   4.593  18.258  0.00  0.00    +0.000 N 
ENDROOT
BRANCH   7  10
ATOM     10  C   UNL     1       2.071   7.146  19.664  0.00  0.00    +0.000 A 
ATOM     11  C   UNL     1       1.628   7.294  21.015  0.00  0.00    +0.000 A 
ATOM     12  C   UNL     1       1.078   8.537  21.251  0.00  0.00    +0.000 A 
ATOM     13  S   UNL     1       1.066   9.513  19.848  0.00  0.00    +0.000 S 
ATOM     14  C   UNL     1       1.735   8.250  18.909  0.00  0.00    +0.000 A 
ENDBRANCH   7  10
BRANCH   9  15
ATOM     15  C1* UNL     1       5.541   4.184  17.630  0.00  0.00    +0.000 C 
ATOM     16  O4* UNL     1       6.600   4.327  18.606  0.00  0.00    +0.000 OA
ATOM     17  C4* UNL     1       7.624   5.186  18.044  0.00  0.00    +0.000 C 
ATOM     18  C3* UNL     1       7.013   5.915  16.856  0.00  0.00    +0.000 C 
ATOM     19  C2* UNL     1       6.014   4.884  16.344  0.00  0.00    +0.000 C 
BRANCH  18  20
ATOM     20  O3* UNL     1       7.987   6.293  15.888  0.00  0.00    +0.000 OA
ATOM     21  H3* UNL     1       7.747   5.920  15.023  0.00  0.00    +0.000 HD
ENDBRANCH  18  20
BRANCH  19  22
ATOM     22  O2* UNL     1       5.004   5.408  15.494  0.00  0.00    +0.000 OA
ATOM     23  H2* UNL     1       4.141   5.210  15.913  0.00  0.00    +0.000 HD
ENDBRANCH  19  22
BRANCH  17  24
ATOM     24  C5* UNL     1       8.121   6.139  19.130  0.00  0.00    +0.000 C 
BRANCH  24  25
ATOM     25  O5* UNL     1       8.068   5.491  20.401  0.00  0.00    +0.000 OA
ATOM     26  H5* UNL     1       7.520   4.695  20.275  0.00  0.00    +0.000 HD
ENDBRANCH  24  25
ENDBRANCH  17  24
ENDBRANCH   9  15
BRANCH   1  27
ATOM     27  N   UNL     1       0.072   4.503  20.413  0.00  0.00    +0.000 N 
ATOM     28  H   UNL     1      -0.528   3.807  20.835  0.00  0.00    +0.000 HD
ATOM     29  H   UNL     1      -0.393   5.185  19.829  0.00  0.00    +0.000 HD
ENDBRANCH   1  27
TORSDOF 7
ENDMDL
MODEL 5
REMARK VINA RESULT:      -6.6      3.949      6.601
REMARK  Name = 
REMARK  7 active torsions:
REMARK  status: ('A' for Active; 'I' for Inactive)
REMARK    1  A    between atoms: N_1  and  C_2
REMARK    2  A    between atoms: C_8  and  C_9
REMARK    3  A    between atoms: N_15  and  C1*_16
REMARK    4  A    between atoms: C4*_18  and  C5*_19
REMARK    5  A    between atoms: C5*_19  and  O5*_20
REMARK    6  A    between atoms: C3*_21  and  O3*_22
REMARK    7  A    between atoms: C2*_23  and  O2*_24
REMARK                            x       y       z     vdW  Elec       q    Type
REMARK                         _______ _______ _______ _____ _____    ______ ____
ROOT
ATOM      1  C   UNL     1       6.822   5.782  17.224  0.00  0.00    +0.000 A 
ATOM      2  N   UNL     1       6.910   6.229  18.498  0.00  0.00    +0.000 NA
ATOM      3  C   UNL     1       6.098   5.697  19.413  0.00  0.00    +0.000 A 
ATOM      4  N   UNL     1       5.174   4.744  19.239  0.00  0.00    +0.000 NA
ATOM      5  C   UNL     1       5.095   4.331  17.961  0.00  0.00    +0.000 A 
ATOM      6  C   UNL     1       5.884   4.780  16.905  0.00  0.00    +0.000 A 
ATOM      7  C   UNL     1       5.474   4.032  15.756  0.00  0.00    +0.000 A 
ATOM      8  C   UNL     1       4.437   3.203  16.142  0.00  0.00    +0.000 A 
ATOM      9  N   UNL     1       4.237   3.365  17.499  0.00  0.00    +0.000 N 
ENDROOT
BRANCH   7  10
ATOM     10  C   UNL     1       6.041   4.125  14.404  0.00  0.00    +0.000 A 
ATOM     11  C   UNL     1       5.490   3.435  13.279  0.00  0.00    +0.000 A 
ATOM     12  C   UNL     1       6.154   3.732  12.108  0.00  0.00    +0.000 A 
ATOM     13  S   UNL     1       7.452   4.814  12.360  0.00  0.00    +0.000 S 
ATOM     14  C   UNL     1       7.170   4.833  14.045  0.00  0.00    +0.000 A 
ENDBRANCH   7  10
BRANCH   9  15
ATOM     15  C1* UNL     1       3.269   2.586  18.264  0.00  0.00    +0.000 C 
ATOM     16  O4* UNL     1       2.113   3.423  18.508  0.00  0.00    +0.000 OA
ATOM     17  C4* UNL     1       1.878   3.471  19.938  0.00  0.00    +0.000 C 
ATOM     18  C3* UNL     1       3.144   2.983  20.628  0.00  0.00    +0.000 C 
ATOM     19  C2* UNL     1       3.678   1.977  19.616  0.00  0.00    +0.000 C 
BRANCH  18  20
ATOM     20  O3* UNL     1       2.884   2.419  21.910  0.00  0.00    +0.000 OA
ATOM     21  H3* UNL     1       2.426   3.074  22.465  0.00  0.00    +0.000 HD
ENDBRANCH  18  20
BRANCH  19  22
ATOM     22  O2* UNL     1       5.049   1.644  19.777  0.00  0.00    +0.000 OA
ATOM     23  H2* UNL     1       5.340   1.206  18.950  0.00  0.00    +0.000 HD
ENDBRANCH  19  22
BRANCH  17  24
ATOM     24  C5* UNL     1       1.505   4.900  20.330  0.00  0.00    +0.000 C 
BRANCH  24  25
ATOM     25  O5* UNL     1       2.558   5.478  21.103  0.00  0.00    +0.000 OA
ATOM     26  H5* UNL     1       2.537   5.025  21.967  0.00  0.00    +0.000 HD
ENDBRANCH  24  25
ENDBRANCH  17  24
ENDBRANCH   9  15
BRANCH   1  27
ATOM     27  N   UNL     1       7.685   6.393  16.326  0.00  0.00    +0.000 N 
ATOM     28  H   UNL     1       7.937   5.757  15.581  0.00  0.00    +0.000 HD
ATOM     29  H   UNL     1       8.454   6.888  16.757  0.00  0.00    +0.000 HD
ENDBRANCH   1  27
TORSDOF 7
ENDMDL
MODEL 6
REMARK VINA RESULT:      -6.2      1.418      2.652
REMARK  Name = 
REMARK  7 active torsions:
REMARK  status: ('A' for Active; 'I' for Inactive)
REMARK    1  A    between atoms: N_1  and  C_2
REMARK    2  A    between atoms: C_8  and  C_9
REMARK    3  A    between atoms: N_15  and  C1*_16
REMARK    4  A    between atoms: C4*_18  and  C5*_19
REMARK    5  A    between atoms: C5*_19  and  O5*_20
REMARK    6  A    between atoms: C3*_21  and  O3*_22
REMARK    7  A    between atoms: C2*_23  and  O2*_24
REMARK                            x       y       z     vdW  Elec       q    Type
REMARK                         _______ _______ _______ _____ _____    ______ ____
ROOT
ATOM      1  C   UNL     1       1.976   4.831  19.593  0.00  0.00    +0.000 A 
ATOM      2  N   UNL     1       2.408   3.563  19.408  0.00  0.00    +0.000 NA
ATOM      3  C   UNL     1       3.500   3.367  18.667  0.00  0.00    +0.000 A 
ATOM      4  N   UNL     1       4.258   4.288  18.059  0.00  0.00    +0.000 NA
ATOM      5  C   UNL     1       3.796   5.538  18.244  0.00  0.00    +0.000 A 
ATOM      6  C   UNL     1       2.684   5.896  19.003  0.00  0.00    +0.000 A 
ATOM      7  C   UNL     1       2.608   7.324  18.946  0.00  0.00    +0.000 A 
ATOM      8  C   UNL     1       3.633   7.769  18.131  0.00  0.00    +0.000 A 
ATOM      9  N   UNL     1       4.377   6.673  17.737  0.00  0.00    +0.000 N 
ENDROOT
BRANCH   7  10
ATOM     10  C   UNL     1       1.619   8.175  19.621  0.00  0.00    +0.000 A 
ATOM     11  C   UNL     1       1.285   8.034  21.004  0.00  0.00    +0.000 A 
ATOM     12  C   UNL     1       0.382   8.988  21.423  0.00  0.00    +0.000 A 
ATOM     13  S   UNL     1      -0.087  10.032  20.155  0.00  0.00    +0.000 S 
ATOM     14  C   UNL     1       0.865   9.167  19.030  0.00  0.00    +0.000 A 
ENDBRANCH   7  10
BRANCH   9  15
ATOM     15  C1* UNL     1       5.588   6.777  16.930  0.00  0.00    +0.000 C 
ATOM     16  O4* UNL     1       5.271   6.342  15.587  0.00  0.00    +0.000 OA
ATOM     17  C4* UNL     1       6.181   5.273  15.226  0.00  0.00    +0.000 C 
ATOM     18  C3* UNL     1       6.817   4.759  16.510  0.00  0.00    +0.000 C 
ATOM     19  C2* UNL     1       6.857   6.022  17.361  0.00  0.00    +0.000 C 
BRANCH  18  20
ATOM     20  O3* UNL     1       8.100   4.179  16.288  0.00  0.00    +0.000 OA
ATOM     21  H3* UNL     1       8.779   4.875  16.318  0.00  0.00    +0.000 HD
ENDBRANCH  18  20
BRANCH  19  22
ATOM     22  O2* UNL     1       7.024   5.794  18.752  0.00  0.00    +0.000 OA
ATOM     23  H2* UNL     1       7.951   5.507  18.889  0.00  0.00    +0.000 HD
ENDBRANCH  19  22
BRANCH  17  24
ATOM     24  C5* UNL     1       5.403   4.192  14.478  0.00  0.00    +0.000 C 
BRANCH  24  25
ATOM     25  O5* UNL     1       6.315   3.296  13.842  0.00  0.00    +0.000 OA
ATOM     26  H5* UNL     1       5.769   2.584  13.458  0.00  0.00    +0.000 HD
ENDBRANCH  24  25
ENDBRANCH  17  24
ENDBRANCH   9  15
BRANCH   1  27
ATOM     27  N   UNL     1       0.827   4.955  20.360  0.00  0.00    +0.000 N 
ATOM     28  H   UNL     1       0.076   4.400  19.971  0.00  0.00    +0.000 HD
ATOM     29  H   UNL     1       0.586   5.907  20.600  0.00  0.00    +0.000 HD
ENDBRANCH   1  27
TORSDOF 7
ENDMDL
MODEL 7
REMARK VINA RESULT:      -6.2      9.265     10.617
REMARK  Name = 
REMARK  7 active torsions:
REMARK  status: ('A' for Active; 'I' for Inactive)
REMARK    1  A    between atoms: N_1  and  C_2
REMARK    2  A    between atoms: C_8  and  C_9
REMARK    3  A    between atoms: N_15  and  C1*_16
REMARK    4  A    between atoms: C4*_18  and  C5*_19
REMARK    5  A    between atoms: C5*_19  and  O5*_20
REMARK    6  A    between atoms: C3*_21  and  O3*_22
REMARK    7  A    between atoms: C2*_23  and  O2*_24
REMARK                            x       y       z     vdW  Elec       q    Type
REMARK                         _______ _______ _______ _____ _____    ______ ____
ROOT
ATOM      1  C   UNL     1       7.080  14.700  20.333  0.00  0.00    +0.000 A 
ATOM      2  N   UNL     1       6.874  15.312  19.144  0.00  0.00    +0.000 NA
ATOM      3  C   UNL     1       7.868  15.319  18.254  0.00  0.00    +0.000 A 
ATOM      4  N   UNL     1       9.088  14.782  18.379  0.00  0.00    +0.000 NA
ATOM      5  C   UNL     1       9.272  14.195  19.576  0.00  0.00    +0.000 A 
ATOM      6  C   UNL     1       8.325  14.095  20.593  0.00  0.00    +0.000 A 
ATOM      7  C   UNL     1       8.952  13.358  21.647  0.00  0.00    +0.000 A 
ATOM      8  C   UNL     1      10.249  13.082  21.256  0.00  0.00    +0.000 A 
ATOM      9  N   UNL     1      10.424  13.565  19.974  0.00  0.00    +0.000 N 
ENDROOT
BRANCH   7  10
ATOM     10  C   UNL     1       8.339  12.966  22.924  0.00  0.00    +0.000 A 
ATOM     11  C   UNL     1       7.526  11.799  23.072  0.00  0.00    +0.000 A 
ATOM     12  C   UNL     1       7.122  11.607  24.376  0.00  0.00    +0.000 A 
ATOM     13  S   UNL     1       7.691  12.838  25.416  0.00  0.00    +0.000 S 
ATOM     14  C   UNL     1       8.422  13.665  24.111  0.00  0.00    +0.000 A 
ENDBRANCH   7  10
BRANCH   9  15
ATOM     15  C1* UNL     1      11.654  13.381  19.210  0.00  0.00    +0.000 C 
ATOM     16  O4* UNL     1      12.173  14.689  18.873  0.00  0.00    +0.000 OA
ATOM     17  C4* UNL     1      12.333  14.759  17.434  0.00  0.00    +0.000 C 
ATOM     18  C3* UNL     1      11.526  13.621  16.825  0.00  0.00    +0.000 C 
ATOM     19  C2* UNL     1      11.628  12.557  17.912  0.00  0.00    +0.000 C 
BRANCH  18  20
ATOM     20  O3* UNL     1      12.041  13.200  15.565  0.00  0.00    +0.000 OA
ATOM     21  H3* UNL     1      11.307  13.091  14.936  0.00  0.00    +0.000 HD
ENDBRANCH  18  20
BRANCH  19  22
ATOM     22  O2* UNL     1      10.654  11.528  17.827  0.00  0.00    +0.000 OA
ATOM     23  H2* UNL     1      10.840  10.892  18.549  0.00  0.00    +0.000 HD
ENDBRANCH  19  22
BRANCH  17  24
ATOM     24  C5* UNL     1      11.872  16.134  16.950  0.00  0.00    +0.000 C 
BRANCH  24  25
ATOM     25  O5* UNL     1      10.796  15.982  16.024  0.00  0.00    +0.000 OA
ATOM     26  H5* UNL     1      10.062  15.583  16.527  0.00  0.00    +0.000 HD
ENDBRANCH  24  25
ENDBRANCH  17  24
ENDBRANCH   9  15
BRANCH   1  27
ATOM     27  N   UNL     1       6.008  14.748  21.212  0.00  0.00    +0.000 N 
ATOM     28  H   UNL     1       6.046  15.586  21.778  0.00  0.00    +0.000 HD
ATOM     29  H   UNL     1       5.844  13.887  21.717  0.00  0.00    +0.000 HD
ENDBRANCH   1  27
TORSDOF 7
ENDMDL
MODEL 8
REMARK VINA RESULT:      -5.9      3.768      5.967
REMARK  Name = 
REMARK  7 active torsions:
REMARK  status: ('A' for Active; 'I' for Inactive)
REMARK    1  A    between atoms: N_1  and  C_2
REMARK    2  A    between atoms: C_8  and  C_9
REMARK    3  A    between atoms: N_15  and  C1*_16
REMARK    4  A    between atoms: C4*_18  and  C5*_19
REMARK    5  A    between atoms: C5*_19  and  O5*_20
REMARK    6  A    between atoms: C3*_21  and  O3*_22
REMARK    7  A    between atoms: C2*_23  and  O2*_24
REMARK                            x       y       z     vdW  Elec       q    Type
REMARK                         _______ _______ _______ _____ _____    ______ ____
ROOT
ATOM      1  C   UNL     1       3.789   3.971  19.709  0.00  0.00    +0.000 A 
ATOM      2  N   UNL     1       3.008   3.417  20.665  0.00  0.00    +0.000 NA
ATOM      3  C   UNL     1       1.953   4.107  21.102  0.00  0.00    +0.000 A 
ATOM      4  N   UNL     1       1.544   5.320  20.708  0.00  0.00    +0.000 NA
ATOM      5  C   UNL     1       2.347   5.856  19.772  0.00  0.00    +0.000 A 
ATOM      6  C   UNL     1       3.468   5.250  19.210  0.00  0.00    +0.000 A 
ATOM      7  C   UNL     1       3.972   6.170  18.237  0.00  0.00    +0.000 A 
ATOM      8  C   UNL     1       3.178   7.301  18.276  0.00  0.00    +0.000 A 
ATOM      9  N   UNL     1       2.164   7.085  19.190  0.00  0.00    +0.000 N 
ENDROOT
BRANCH   7  10
ATOM     10  C   UNL     1       5.129   5.964  17.356  0.00  0.00    +0.000 A 
ATOM     11  C   UNL     1       6.409   6.554  17.599  0.00  0.00    +0.000 A 
ATOM     12  C   UNL     1       7.350   6.160  16.671  0.00  0.00    +0.000 A 
ATOM     13  S   UNL     1       6.694   5.109  15.494  0.00  0.00    +0.000 S 
ATOM     14  C   UNL     1       5.136   5.234  16.185  0.00  0.00    +0.000 A 
ENDBRANCH   7  10
BRANCH   9  15
ATOM     15  C1* UNL     1       1.090   8.042  19.434  0.00  0.00    +0.000 C 
ATOM     16  O4* UNL     1       1.061   8.975  18.328  0.00  0.00    +0.000 OA
ATOM     17  C4* UNL     1       1.183  10.317  18.860  0.00  0.00    +0.000 C 
ATOM     18  C3* UNL     1       1.698  10.201  20.288  0.00  0.00    +0.000 C 
ATOM     19  C2* UNL     1       1.089   8.875  20.727  0.00  0.00    +0.000 C 
BRANCH  18  20
ATOM     20  O3* UNL     1       1.308  11.304  21.100  0.00  0.00    +0.000 OA
ATOM     21  H3* UNL     1       0.899  11.988  20.543  0.00  0.00    +0.000 HD
ENDBRANCH  18  20
BRANCH  19  22
ATOM     22  O2* UNL     1       1.704   8.288  21.865  0.00  0.00    +0.000 OA
ATOM     23  H2* UNL     1       2.630   8.084  21.620  0.00  0.00    +0.000 HD
ENDBRANCH  19  22
BRANCH  17  24
ATOM     24  C5* UNL     1       2.117  11.125  17.960  0.00  0.00    +0.000 C 
BRANCH  24  25
ATOM     25  O5* UNL     1       1.858  12.519  18.125  0.00  0.00    +0.000 OA
ATOM     26  H5* UNL     1       1.859  12.681  19.086  0.00  0.00    +0.000 HD
ENDBRANCH  24  25
ENDBRANCH  17  24
ENDBRANCH   9  15
BRANCH   1  27
ATOM     27  N   UNL     1       4.875   3.203  19.318  0.00  0.00    +0.000 N 
ATOM     28  H   UNL     1       5.558   3.769  18.832  0.00  0.00    +0.000 HD
ATOM     29  H   UNL     1       4.628   2.332  18.867  0.00  0.00    +0.000 HD
ENDBRANCH   1  27
TORSDOF 7
ENDMDL
MODEL 9
REMARK VINA RESULT:      -5.8      7.991      9.852
REMARK  Name = 
REMARK  7 active torsions:
REMARK  status: ('A' for Active; 'I' for Inactive)
REMARK    1  A    between atoms: N_1  and  C_2
REMARK    2  A    between atoms: C_8  and  C_9
REMARK    3  A    between atoms: N_15  and  C1*_16
REMARK    4  A    between atoms: C4*_18  and  C5*_19
REMARK    5  A    between atoms: C5*_19  and  O5*_20
REMARK    6  A    between atoms: C3*_21  and  O3*_22
REMARK    7  A    between atoms: C2*_23  and  O2*_24
REMARK                            x       y       z     vdW  Elec       q    Type
REMARK                         _______ _______ _______ _____ _____    ______ ____
ROOT
ATOM      1  C   UNL     1      -4.836  11.581  16.916  0.00  0.00    +0.000 A 
ATOM      2  N   UNL     1      -4.428  11.037  15.747  0.00  0.00    +0.000 NA
ATOM      3  C   UNL     1      -3.155  10.653  15.634  0.00  0.00    +0.000 A 
ATOM      4  N   UNL     1      -2.188  10.735  16.556  0.00  0.00    +0.000 NA
ATOM      5  C   UNL     1      -2.614  11.296  17.702  0.00  0.00    +0.000 A 
ATOM      6  C   UNL     1      -3.911  11.727  17.970  0.00  0.00    +0.000 A 
ATOM      7  C   UNL     1      -3.900  12.208  19.317  0.00  0.00    +0.000 A 
ATOM      8  C   UNL     1      -2.608  12.094  19.795  0.00  0.00    +0.000 A 
ATOM      9  N   UNL     1      -1.836  11.502  18.814  0.00  0.00    +0.000 N 
ENDROOT
BRANCH   7  10
ATOM     10  C   UNL     1      -5.048  12.736  20.067  0.00  0.00    +0.000 A 
ATOM     11  C   UNL     1      -6.109  11.909  20.553  0.00  0.00    +0.000 A 
ATOM     12  C   UNL     1      -7.035  12.623  21.283  0.00  0.00    +0.000 A 
ATOM     13  S   UNL     1      -6.651  14.286  21.361  0.00  0.00    +0.000 S 
ATOM     14  C   UNL     1      -5.282  14.063  20.363  0.00  0.00    +0.000 A 
ENDBRANCH   7  10
BRANCH   9  15
ATOM     15  C1* UNL     1      -0.432  11.155  19.001  0.00  0.00    +0.000 C 
ATOM     16  O4* UNL     1      -0.351  10.163  20.053  0.00  0.00    +0.000 OA
ATOM     17  C4* UNL     1       0.547  10.657  21.078  0.00  0.00    +0.000 C 
ATOM     18  C3* UNL     1       0.720  12.153  20.855  0.00  0.00    +0.000 C 
ATOM     19  C2* UNL     1       0.587  12.256  19.341  0.00  0.00    +0.000 C 
BRANCH  18  20
ATOM     20  O3* UNL     1       1.964  12.637  21.353  0.00  0.00    +0.000 OA
ATOM     21  H3* UNL     1       1.800  13.290  22.055  0.00  0.00    +0.000 HD
ENDBRANCH  18  20
BRANCH  19  22
ATOM     22  O2* UNL     1       0.302  13.561  18.859  0.00  0.00    +0.000 OA
ATOM     23  H2* UNL     1       1.161  14.010  18.715  0.00  0.00    +0.000 HD
ENDBRANCH  19  22
BRANCH  17  24
ATOM     24  C5* UNL     1      -0.039  10.328  22.450  0.00  0.00    +0.000 C 
BRANCH  24  25
ATOM     25  O5* UNL     1      -0.485  11.527  23.083  0.00  0.00    +0.000 OA
ATOM     26  H5* UNL     1      -0.282  11.423  24.032  0.00  0.00    +0.000 HD
ENDBRANCH  24  25
ENDBRANCH  17  24
ENDBRANCH   9  15
BRANCH   1  27
ATOM     27  N   UNL     1      -6.166  11.970  16.952  0.00  0.00    +0.000 N 
ATOM     28  H   UNL     1      -6.647  11.533  17.727  0.00  0.00    +0.000 HD
ATOM     29  H   UNL     1      -6.640  11.919  16.060  0.00  0.00    +0.000 HD
ENDBRANCH   1  27
TORSDOF 7
ENDMDL
