MODEL 1
REMARK VINA RESULT:      -7.5      0.000      0.000
REMARK  Name = 
REMARK  2 active torsions:
REMARK  status: ('A' for Active; 'I' for Inactive)
REMARK    1  A    between atoms: C_5  and  C_6
REMARK    2  A    between atoms: N_8  and  C_9
REMARK                            x       y       z     vdW  Elec       q    Type
REMARK                         _______ _______ _______ _____ _____    ______ ____
ROOT
ATOM      1  C   UNL     1       2.511   6.832  19.424  0.00  0.00    +0.000 A 
ATOM      2  C   UNL     1       3.546   6.807  18.494  0.00  0.00    +0.000 A 
ATOM      3  N   UNL     1       4.012   5.486  18.359  0.00  0.00    +0.000 N 
ATOM      4  C   UNL     1       3.306   4.770  19.227  0.00  0.00    +0.000 A 
ATOM      5  N   UNL     1       2.409   5.513  19.850  0.00  0.00    +0.000 N 
ATOM      6  C   UNL     1       1.516   4.841  20.776  0.00  0.00    +0.000 C 
ATOM      7  C   UNL     1       1.848   3.338  20.774  0.00  0.00    +0.000 C 
ATOM      8  S   UNL     1       3.332   3.098  19.725  0.00  0.00    +0.000 S 
ENDROOT
BRANCH   1  13
ATOM      9 CL   UNL     1      -0.981  11.456  21.037  0.00  0.00    +0.000 Cl
ATOM     10  C   UNL     1       0.051  10.152  20.599  0.00  0.00    +0.000 A 
ATOM     11  C   UNL     1       0.353   9.155  21.524  0.00  0.00    +0.000 A 
ATOM     12  C   UNL     1       1.167   8.077  21.153  0.00  0.00    +0.000 A 
ATOM     13  C   UNL     1       1.681   8.003  19.854  0.00  0.00    +0.000 A 
ATOM     14  C   UNL     1       1.384   9.017  18.937  0.00  0.00    +0.000 A 
ATOM     15  C   UNL     1       0.568  10.089  19.308  0.00  0.00    +0.000 A 
ENDBRANCH   1  13
BRANCH   3  16
ATOM     16  C   UNL     1       5.068   5.012  17.470  0.00  0.00    +0.000 A 
ATOM     17  C   UNL     1       6.390   5.053  17.901  0.00  0.00    +0.000 A 
ATOM     18  C   UNL     1       7.398   4.613  17.039  0.00  0.00    +0.000 A 
ATOM     19  C   UNL     1       7.093   4.165  15.758  0.00  0.00    +0.000 A 
ATOM     20  C   UNL     1       5.764   4.136  15.331  0.00  0.00    +0.000 A 
ATOM     21  C   UNL     1       4.750   4.569  16.186  0.00  0.00    +0.000 A 
ENDBRANCH   3  16
TORSDOF 2
ENDMDL
MODEL 2
REMARK VINA RESULT:      -7.5      0.056      1.056
REMARK  Name = 
REMARK  2 active torsions:
REMARK  status: ('A' for Active; 'I' for Inactive)
REMARK    1  A    between atoms: C_5  and  C_6
REMARK    2  A    between atoms: N_8  and  C_9
REMARK                            x       y       z     vdW  Elec       q    Type
REMARK                         _______ _______ _______ _____ _____    ______ ____
ROOT
ATOM      1  C   UNL     1       2.504   6.863  19.450  0.00  0.00    +0.000 A 
ATOM      2  C   UNL     1       3.538   6.857  18.518  0.00  0.00    +0.000 A 
ATOM      3  N   UNL     1       4.011   5.540  18.363  0.00  0.00    +0.000 N 
ATOM      4  C   UNL     1       3.310   4.808  19.221  0.00  0.00    +0.000 A 
ATOM      5  N   UNL     1       2.409   5.537  19.856  0.00  0.00    +0.000 N 
ATOM      6  C   UNL     1       1.522   4.847  20.774  0.00  0.00    +0.000 C 
ATOM      7  C   UNL     1       1.862   3.346  20.749  0.00  0.00    +0.000 C 
ATOM      8  S   UNL     1       3.345   3.129  19.694  0.00  0.00    +0.000 S 
ENDROOT
BRANCH   1  13
ATOM      9 CL   UNL     1      -1.008  11.446  21.134  0.00  0.00    +0.000 Cl
ATOM     10  C   UNL     1       0.030  10.153  20.676  0.00  0.00    +0.000 A 
ATOM     11  C   UNL     1       0.324   9.136  21.581  0.00  0.00    +0.000 A 
ATOM     12  C   UNL     1       1.143   8.068  21.194  0.00  0.00    +0.000 A 
ATOM     13  C   UNL     1       1.669   8.023  19.898  0.00  0.00    +0.000 A 
ATOM     14  C   UNL     1       1.379   9.057  19.002  0.00  0.00    +0.000 A 
ATOM     15  C   UNL     1       0.559  10.120  19.390  0.00  0.00    +0.000 A 
ENDBRANCH   1  13
BRANCH   3  16
ATOM     16  C   UNL     1       5.067   5.085  17.465  0.00  0.00    +0.000 A 
ATOM     17  C   UNL     1       4.729   4.629  16.194  0.00  0.00    +0.000 A 
ATOM     18  C   UNL     1       5.743   4.179  15.344  0.00  0.00    +0.000 A 
ATOM     19  C   UNL     1       7.069   4.161  15.765  0.00  0.00    +0.000 A 
ATOM     20  C   UNL     1       7.396   4.613  17.045  0.00  0.00    +0.000 A 
ATOM     21  C   UNL     1       6.392   5.067  17.899  0.00  0.00    +0.000 A 
ENDBRANCH   3  16
TORSDOF 2
ENDMDL
MODEL 3
REMARK VINA RESULT:      -7.4      0.150      1.065
REMARK  Name = 
REMARK  2 active torsions:
REMARK  status: ('A' for Active; 'I' for Inactive)
REMARK    1  A    between atoms: C_5  and  C_6
REMARK    2  A    between atoms: N_8  and  C_9
REMARK                            x       y       z     vdW  Elec       q    Type
REMARK                         _______ _______ _______ _____ _____    ______ ____
ROOT
ATOM      1  C   UNL     1       2.548   6.821  19.432  0.00  0.00    +0.000 A 
ATOM      2  C   UNL     1       3.539   6.805  18.455  0.00  0.00    +0.000 A 
ATOM      3  N   UNL     1       4.054   5.500  18.344  0.00  0.00    +0.000 N 
ATOM      4  C   UNL     1       3.421   4.788  19.269  0.00  0.00    +0.000 A 
ATOM      5  N   UNL     1       2.522   5.515  19.908  0.00  0.00    +0.000 N 
ATOM      6  C   UNL     1       1.704   4.842  20.898  0.00  0.00    +0.000 C 
ATOM      7  C   UNL     1       2.099   3.355  20.933  0.00  0.00    +0.000 C 
ATOM      8  S   UNL     1       3.541   3.137  19.822  0.00  0.00    +0.000 S 
ENDROOT
BRANCH   1  13
ATOM      9 CL   UNL     1      -0.738  11.515  21.262  0.00  0.00    +0.000 Cl
ATOM     10  C   UNL     1       0.166  10.158  20.717  0.00  0.00    +0.000 A 
ATOM     11  C   UNL     1       0.632  10.106  19.405  0.00  0.00    +0.000 A 
ATOM     12  C   UNL     1       1.396   9.014  18.974  0.00  0.00    +0.000 A 
ATOM     13  C   UNL     1       1.689   7.972  19.861  0.00  0.00    +0.000 A 
ATOM     14  C   UNL     1       1.205   8.027  21.171  0.00  0.00    +0.000 A 
ATOM     15  C   UNL     1       0.446   9.119  21.600  0.00  0.00    +0.000 A 
ENDBRANCH   1  13
BRANCH   3  16
ATOM     16  C   UNL     1       5.086   5.037  17.421  0.00  0.00    +0.000 A 
ATOM     17  C   UNL     1       6.414   5.025  17.837  0.00  0.00    +0.000 A 
ATOM     18  C   UNL     1       7.400   4.596  16.944  0.00  0.00    +0.000 A 
ATOM     19  C   UNL     1       7.068   4.212  15.649  0.00  0.00    +0.000 A 
ATOM     20  C   UNL     1       5.734   4.237  15.238  0.00  0.00    +0.000 A 
ATOM     21  C   UNL     1       4.742   4.659  16.124  0.00  0.00    +0.000 A 
ENDBRANCH   3  16
TORSDOF 2
ENDMDL
MODEL 4
REMARK VINA RESULT:      -7.4      0.161      1.497
REMARK  Name = 
REMARK  2 active torsions:
REMARK  status: ('A' for Active; 'I' for Inactive)
REMARK    1  A    between atoms: C_5  and  C_6
REMARK    2  A    between atoms: N_8  and  C_9
REMARK                            x       y       z     vdW  Elec       q    Type
REMARK                         _______ _______ _______ _____ _____    ______ ____
ROOT
ATOM      1  C   UNL     1       2.516   6.917  19.383  0.00  0.00    +0.000 A 
ATOM      2  C   UNL     1       3.528   6.917  18.428  0.00  0.00    +0.000 A 
ATOM      3  N   UNL     1       4.039   5.612  18.298  0.00  0.00    +0.000 N 
ATOM      4  C   UNL     1       3.380   4.882  19.192  0.00  0.00    +0.000 A 
ATOM      5  N   UNL     1       2.472   5.601  19.827  0.00  0.00    +0.000 N 
ATOM      6  C   UNL     1       1.627   4.909  20.783  0.00  0.00    +0.000 C 
ATOM      7  C   UNL     1       2.013   3.420  20.791  0.00  0.00    +0.000 C 
ATOM      8  S   UNL     1       3.479   3.219  19.708  0.00  0.00    +0.000 S 
ENDROOT
BRANCH   1  13
ATOM      9 CL   UNL     1      -0.780  11.593  21.242  0.00  0.00    +0.000 Cl
ATOM     10  C   UNL     1       0.127  10.240  20.689  0.00  0.00    +0.000 A 
ATOM     11  C   UNL     1       0.574  10.187  19.371  0.00  0.00    +0.000 A 
ATOM     12  C   UNL     1       1.341   9.099  18.933  0.00  0.00    +0.000 A 
ATOM     13  C   UNL     1       1.655   8.063  19.819  0.00  0.00    +0.000 A 
ATOM     14  C   UNL     1       1.188   8.119  21.137  0.00  0.00    +0.000 A 
ATOM     15  C   UNL     1       0.427   9.207  21.572  0.00  0.00    +0.000 A 
ENDBRANCH   1  13
BRANCH   3  16
ATOM     16  C   UNL     1       5.088   5.165  17.388  0.00  0.00    +0.000 A 
ATOM     17  C   UNL     1       4.757   4.835  16.078  0.00  0.00    +0.000 A 
ATOM     18  C   UNL     1       5.764   4.392  15.215  0.00  0.00    +0.000 A 
ATOM     19  C   UNL     1       7.074   4.256  15.662  0.00  0.00    +0.000 A 
ATOM     20  C   UNL     1       7.395   4.582  16.981  0.00  0.00    +0.000 A 
ATOM     21  C   UNL     1       6.398   5.028  17.848  0.00  0.00    +0.000 A 
ENDBRANCH   3  16
TORSDOF 2
ENDMDL
MODEL 5
REMARK VINA RESULT:      -7.3      1.180      1.289
REMARK  Name = 
REMARK  2 active torsions:
REMARK  status: ('A' for Active; 'I' for Inactive)
REMARK    1  A    between atoms: C_5  and  C_6
REMARK    2  A    between atoms: N_8  and  C_9
REMARK                            x       y       z     vdW  Elec       q    Type
REMARK                         _______ _______ _______ _____ _____    ______ ____
ROOT
ATOM      1  C   UNL     1       2.833   6.625  18.450  0.00  0.00    +0.000 A 
ATOM      2  C   UNL     1       3.878   6.724  17.537  0.00  0.00    +0.000 A 
ATOM      3  N   UNL     1       4.227   5.434  17.094  0.00  0.00    +0.000 N 
ATOM      4  C   UNL     1       3.444   4.602  17.771  0.00  0.00    +0.000 A 
ATOM      5  N   UNL     1       2.605   5.258  18.554  0.00  0.00    +0.000 N 
ATOM      6  C   UNL     1       1.639   4.472  19.299  0.00  0.00    +0.000 C 
ATOM      7  C   UNL     1       1.835   2.987  18.943  0.00  0.00    +0.000 C 
ATOM      8  S   UNL     1       3.311   2.865  17.862  0.00  0.00    +0.000 S 
ENDROOT
BRANCH   1  13
ATOM      9 CL   UNL     1      -0.274  11.012  21.147  0.00  0.00    +0.000 Cl
ATOM     10  C   UNL     1       0.651   9.773  20.395  0.00  0.00    +0.000 A 
ATOM     11  C   UNL     1       1.075   8.669  21.132  0.00  0.00    +0.000 A 
ATOM     12  C   UNL     1       1.801   7.646  20.508  0.00  0.00    +0.000 A 
ATOM     13  C   UNL     1       2.103   7.733  19.145  0.00  0.00    +0.000 A 
ATOM     14  C   UNL     1       1.685   8.853  18.418  0.00  0.00    +0.000 A 
ATOM     15  C   UNL     1       0.958   9.871  19.041  0.00  0.00    +0.000 A 
ENDBRANCH   1  13
BRANCH   3  16
ATOM     16  C   UNL     1       5.252   5.088  16.115  0.00  0.00    +0.000 A 
ATOM     17  C   UNL     1       6.578   5.425  16.370  0.00  0.00    +0.000 A 
ATOM     18  C   UNL     1       7.553   5.105  15.421  0.00  0.00    +0.000 A 
ATOM     19  C   UNL     1       7.206   4.483  14.226  0.00  0.00    +0.000 A 
ATOM     20  C   UNL     1       5.872   4.157  13.976  0.00  0.00    +0.000 A 
ATOM     21  C   UNL     1       4.892   4.468  14.918  0.00  0.00    +0.000 A 
ENDBRANCH   3  16
TORSDOF 2
ENDMDL
MODEL 6
REMARK VINA RESULT:      -7.3      1.152      1.623
REMARK  Name = 
REMARK  2 active torsions:
REMARK  status: ('A' for Active; 'I' for Inactive)
REMARK    1  A    between atoms: C_5  and  C_6
REMARK    2  A    between atoms: N_8  and  C_9
REMARK                            x       y       z     vdW  Elec       q    Type
REMARK                         _______ _______ _______ _____ _____    ______ ____
ROOT
ATOM      1  C   UNL     1       2.809   6.646  18.499  0.00  0.00    +0.000 A 
ATOM      2  C   UNL     1       3.846   6.758  17.577  0.00  0.00    +0.000 A 
ATOM      3  N   UNL     1       4.203   5.473  17.129  0.00  0.00    +0.000 N 
ATOM      4  C   UNL     1       3.435   4.632  17.811  0.00  0.00    +0.000 A 
ATOM      5  N   UNL     1       2.596   5.277  18.602  0.00  0.00    +0.000 N 
ATOM      6  C   UNL     1       1.645   4.480  19.354  0.00  0.00    +0.000 C 
ATOM      7  C   UNL     1       1.853   2.998  18.993  0.00  0.00    +0.000 C 
ATOM      8  S   UNL     1       3.321   2.893  17.899  0.00  0.00    +0.000 S 
ENDROOT
BRANCH   1  13
ATOM      9 CL   UNL     1      -0.318  10.998  21.232  0.00  0.00    +0.000 Cl
ATOM     10  C   UNL     1       0.613   9.769  20.470  0.00  0.00    +0.000 A 
ATOM     11  C   UNL     1       1.042   8.661  21.198  0.00  0.00    +0.000 A 
ATOM     12  C   UNL     1       1.772   7.646  20.566  0.00  0.00    +0.000 A 
ATOM     13  C   UNL     1       2.074   7.746  19.203  0.00  0.00    +0.000 A 
ATOM     14  C   UNL     1       1.651   8.869  18.485  0.00  0.00    +0.000 A 
ATOM     15  C   UNL     1       0.919   9.879  19.117  0.00  0.00    +0.000 A 
ENDBRANCH   1  13
BRANCH   3  16
ATOM     16  C   UNL     1       5.223   5.139  16.140  0.00  0.00    +0.000 A 
ATOM     17  C   UNL     1       4.845   4.507  14.959  0.00  0.00    +0.000 A 
ATOM     18  C   UNL     1       5.828   4.175  14.023  0.00  0.00    +0.000 A 
ATOM     19  C   UNL     1       7.169   4.447  14.273  0.00  0.00    +0.000 A 
ATOM     20  C   UNL     1       7.539   5.074  15.464  0.00  0.00    +0.000 A 
ATOM     21  C   UNL     1       6.565   5.413  16.403  0.00  0.00    +0.000 A 
ENDBRANCH   3  16
TORSDOF 2
ENDMDL
MODEL 7
REMARK VINA RESULT:      -7.2      1.041      1.527
REMARK  Name = 
REMARK  2 active torsions:
REMARK  status: ('A' for Active; 'I' for Inactive)
REMARK    1  A    between atoms: C_5  and  C_6
REMARK    2  A    between atoms: N_8  and  C_9
REMARK                            x       y       z     vdW  Elec       q    Type
REMARK                         _______ _______ _______ _____ _____    ______ ____
ROOT
ATOM      1  C   UNL     1       2.780   6.726  18.559  0.00  0.00    +0.000 A 
ATOM      2  C   UNL     1       3.794   6.804  17.608  0.00  0.00    +0.000 A 
ATOM      3  N   UNL     1       4.192   5.501  17.252  0.00  0.00    +0.000 N 
ATOM      4  C   UNL     1       3.469   4.688  18.014  0.00  0.00    +0.000 A 
ATOM      5  N   UNL     1       2.622   5.362  18.771  0.00  0.00    +0.000 N 
ATOM      6  C   UNL     1       1.717   4.591  19.603  0.00  0.00    +0.000 C 
ATOM      7  C   UNL     1       1.974   3.095  19.353  0.00  0.00    +0.000 C 
ATOM      8  S   UNL     1       3.423   2.959  18.238  0.00  0.00    +0.000 S 
ENDROOT
BRANCH   1  13
ATOM      9 CL   UNL     1      -0.108  11.296  21.195  0.00  0.00    +0.000 Cl
ATOM     10  C   UNL     1       0.680   9.977  20.423  0.00  0.00    +0.000 A 
ATOM     11  C   UNL     1       0.970  10.032  19.061  0.00  0.00    +0.000 A 
ATOM     12  C   UNL     1       1.641   8.970  18.443  0.00  0.00    +0.000 A 
ATOM     13  C   UNL     1       2.017   7.850  19.192  0.00  0.00    +0.000 A 
ATOM     14  C   UNL     1       1.708   7.797  20.555  0.00  0.00    +0.000 A 
ATOM     15  C   UNL     1       1.042   8.860  21.170  0.00  0.00    +0.000 A 
ENDBRANCH   1  13
BRANCH   3  16
ATOM     16  C   UNL     1       5.205   5.129  16.270  0.00  0.00    +0.000 A 
ATOM     17  C   UNL     1       6.541   5.424  16.525  0.00  0.00    +0.000 A 
ATOM     18  C   UNL     1       7.504   5.080  15.573  0.00  0.00    +0.000 A 
ATOM     19  C   UNL     1       7.138   4.476  14.375  0.00  0.00    +0.000 A 
ATOM     20  C   UNL     1       5.794   4.192  14.125  0.00  0.00    +0.000 A 
ATOM     21  C   UNL     1       4.825   4.528  15.070  0.00  0.00    +0.000 A 
ENDBRANCH   3  16
TORSDOF 2
ENDMDL
MODEL 8
REMARK VINA RESULT:      -7.2      0.990      1.072
REMARK  Name = 
REMARK  2 active torsions:
REMARK  status: ('A' for Active; 'I' for Inactive)
REMARK    1  A    between atoms: C_5  and  C_6
REMARK    2  A    between atoms: N_8  and  C_9
REMARK                            x       y       z     vdW  Elec       q    Type
REMARK                         _______ _______ _______ _____ _____    ______ ____
ROOT
ATOM      1  C   UNL     1       2.243   7.657  18.959  0.00  0.00    +0.000 A 
ATOM      2  C   UNL     1       3.230   7.573  17.982  0.00  0.00    +0.000 A 
ATOM      3  N   UNL     1       3.837   6.305  18.048  0.00  0.00    +0.000 N 
ATOM      4  C   UNL     1       3.258   5.687  19.071  0.00  0.00    +0.000 A 
ATOM      5  N   UNL     1       2.311   6.433  19.612  0.00  0.00    +0.000 N 
ATOM      6  C   UNL     1       1.544   5.849  20.697  0.00  0.00    +0.000 C 
ATOM      7  C   UNL     1       2.045   4.413  20.935  0.00  0.00    +0.000 C 
ATOM      8  S   UNL     1       3.497   4.143  19.848  0.00  0.00    +0.000 S 
ENDROOT
BRANCH   1  13
ATOM      9 CL   UNL     1      -1.681  12.095  20.003  0.00  0.00    +0.000 Cl
ATOM     10  C   UNL     1      -0.526  10.854  19.714  0.00  0.00    +0.000 A 
ATOM     11  C   UNL     1       0.096  10.212  20.783  0.00  0.00    +0.000 A 
ATOM     12  C   UNL     1       1.011   9.179  20.544  0.00  0.00    +0.000 A 
ATOM     13  C   UNL     1       1.305   8.794  19.232  0.00  0.00    +0.000 A 
ATOM     14  C   UNL     1       0.687   9.455  18.166  0.00  0.00    +0.000 A 
ATOM     15  C   UNL     1      -0.229  10.483  18.407  0.00  0.00    +0.000 A 
ENDBRANCH   1  13
BRANCH   3  16
ATOM     16  C   UNL     1       4.898   5.791  17.187  0.00  0.00    +0.000 A 
ATOM     17  C   UNL     1       6.180   6.320  17.299  0.00  0.00    +0.000 A 
ATOM     18  C   UNL     1       7.188   5.836  16.461  0.00  0.00    +0.000 A 
ATOM     19  C   UNL     1       6.914   4.859  15.509  0.00  0.00    +0.000 A 
ATOM     20  C   UNL     1       5.622   4.342  15.398  0.00  0.00    +0.000 A 
ATOM     21  C   UNL     1       4.610   4.815  16.233  0.00  0.00    +0.000 A 
ENDBRANCH   3  16
TORSDOF 2
ENDMDL
MODEL 9
REMARK VINA RESULT:      -7.2      1.095      1.881
REMARK  Name = 
REMARK  2 active torsions:
REMARK  status: ('A' for Active; 'I' for Inactive)
REMARK    1  A    between atoms: C_5  and  C_6
REMARK    2  A    between atoms: N_8  and  C_9
REMARK                            x       y       z     vdW  Elec       q    Type
REMARK                         _______ _______ _______ _____ _____    ______ ____
ROOT
ATOM      1  C   UNL     1       2.775   6.714  18.547  0.00  0.00    +0.000 A 
ATOM      2  C   UNL     1       3.806   6.815  17.617  0.00  0.00    +0.000 A 
ATOM      3  N   UNL     1       4.183   5.523  17.206  0.00  0.00    +0.000 N 
ATOM      4  C   UNL     1       3.432   4.691  17.917  0.00  0.00    +0.000 A 
ATOM      5  N   UNL     1       2.586   5.345  18.692  0.00  0.00    +0.000 N 
ATOM      6  C   UNL     1       1.652   4.555  19.472  0.00  0.00    +0.000 C 
ATOM      7  C   UNL     1       1.884   3.067  19.156  0.00  0.00    +0.000 C 
ATOM      8  S   UNL     1       3.348   2.953  18.058  0.00  0.00    +0.000 S 
ENDROOT
BRANCH   1  13
ATOM      9 CL   UNL     1      -0.062  11.220  21.345  0.00  0.00    +0.000 Cl
ATOM     10  C   UNL     1       0.711   9.919  20.527  0.00  0.00    +0.000 A 
ATOM     11  C   UNL     1       0.978  10.009  19.163  0.00  0.00    +0.000 A 
ATOM     12  C   UNL     1       1.637   8.961  18.507  0.00  0.00    +0.000 A 
ATOM     13  C   UNL     1       2.024   7.822  19.221  0.00  0.00    +0.000 A 
ATOM     14  C   UNL     1       1.738   7.736  20.587  0.00  0.00    +0.000 A 
ATOM     15  C   UNL     1       1.084   8.784  21.240  0.00  0.00    +0.000 A 
ENDBRANCH   1  13
BRANCH   3  16
ATOM     16  C   UNL     1       5.205   5.177  16.223  0.00  0.00    +0.000 A 
ATOM     17  C   UNL     1       4.824   4.556  15.037  0.00  0.00    +0.000 A 
ATOM     18  C   UNL     1       5.808   4.212  14.106  0.00  0.00    +0.000 A 
ATOM     19  C   UNL     1       7.152   4.461  14.367  0.00  0.00    +0.000 A 
ATOM     20  C   UNL     1       7.524   5.076  15.563  0.00  0.00    +0.000 A 
ATOM     21  C   UNL     1       6.549   5.427  16.497  0.00  0.00    +0.000 A 
ENDBRANCH   3  16
TORSDOF 2
ENDMDL
