MODEL 1
REMARK VINA RESULT:      -9.6      0.000      0.000
REMARK  Name = 
REMARK  5 active torsions:
REMARK  status: ('A' for Active; 'I' for Inactive)
REMARK    1  A    between atoms: C_1  and  C_2
REMARK    2  A    between atoms: C_3  and  C_4
REMARK    3  A    between atoms: N_6  and  C_7
REMARK    4  A    between atoms: C_14  and  C_15
REMARK    5  A    between atoms: C_18  and  N_19
REMARK                            x       y       z     vdW  Elec       q    Type
REMARK                         _______ _______ _______ _____ _____    ______ ____
ROOT
ATOM      1  C   UNL     1       1.262   3.480  20.821  0.00  0.00    +0.000 C 
ATOM      2  C   UNL     1       2.709   3.478  20.385  0.00  0.00    +0.000 C 
ATOM      3  C   UNL     1       3.383   4.380  19.628  0.00  0.00    +0.000 C 
ATOM      4  C   UNL     1       4.866   4.172  19.359  0.00  0.00    +0.000 C 
ATOM      5  N   UNL     1       5.308   2.837  19.696  0.00  0.00    +0.000 N 
ATOM      6  C   UNL     1       4.658   2.024  20.557  0.00  0.00    +0.000 C 
ATOM      7  O   UNL     1       5.178   1.001  20.994  0.00  0.00    +0.000 OA
ATOM      8  N   UNL     1       3.389   2.379  20.873  0.00  0.00    +0.000 N 
ATOM      9  H   UNL     1       6.262   2.561  19.506  0.00  0.00    +0.000 HD
ATOM     10  H   UNL     1       2.904   1.711  21.462  0.00  0.00    +0.000 HD
ENDROOT
BRANCH   4  11
ATOM     11  C   UNL     1       5.320   4.457  17.933  0.00  0.00    +0.000 A 
ATOM     12  C   UNL     1       4.799   3.704  16.864  0.00  0.00    +0.000 A 
ATOM     13  C   UNL     1       5.321   3.851  15.578  0.00  0.00    +0.000 A 
ATOM     14  C   UNL     1       6.342   4.783  15.348  0.00  0.00    +0.000 A 
ATOM     15  C   UNL     1       6.806   5.600  16.385  0.00  0.00    +0.000 A 
ATOM     16  C   UNL     1       6.289   5.439  17.672  0.00  0.00    +0.000 A 
BRANCH  14  17
ATOM     17  N   UNL     1       6.953   4.875  14.017  0.00  0.00    +0.000 N 
ATOM     18  O   UNL     1       7.923   5.637  13.884  0.00  0.00    +0.000 OA
ATOM     19  O   UNL     1       6.454   4.203  13.105  0.00  0.00    +0.000 OA
ENDBRANCH  14  17
ENDBRANCH   4  11
BRANCH   3  20
ATOM     20  C   UNL     1       2.659   5.590  19.073  0.00  0.00    +0.000 C 
ATOM     21  O   UNL     1       2.157   5.538  17.954  0.00  0.00    +0.000 OA
ATOM     22  N   UNL     1       2.669   6.752  19.828  0.00  0.00    +0.000 N 
ATOM     23  H   UNL     1       3.292   6.826  20.614  0.00  0.00    +0.000 HD
BRANCH  22  24
ATOM     24  C   UNL     1       2.050   7.972  19.450  0.00  0.00    +0.000 A 
ATOM     25  C   UNL     1       2.236   8.560  18.194  0.00  0.00    +0.000 A 
ATOM     26  C   UNL     1       1.630   9.780  17.877  0.00  0.00    +0.000 A 
ATOM     27  C   UNL     1       0.836  10.423  18.820  0.00  0.00    +0.000 A 
ATOM     28 CL   UNL     1       0.123  11.942  18.441  0.00  0.00    +0.000 Cl
ATOM     29  C   UNL     1       0.618   9.840  20.066  0.00  0.00    +0.000 A 
ATOM     30  C   UNL     1       1.211   8.608  20.375  0.00  0.00    +0.000 A 
ENDBRANCH  22  24
ENDBRANCH   3  20
TORSDOF 4
ENDMDL
MODEL 2
REMARK VINA RESULT:      -9.4      0.128      1.110
REMARK  Name = 
REMARK  5 active torsions:
REMARK  status: ('A' for Active; 'I' for Inactive)
REMARK    1  A    between atoms: C_1  and  C_2
REMARK    2  A    between atoms: C_3  and  C_4
REMARK    3  A    between atoms: N_6  and  C_7
REMARK    4  A    between atoms: C_14  and  C_15
REMARK    5  A    between atoms: C_18  and  N_19
REMARK                            x       y       z     vdW  Elec       q    Type
REMARK                         _______ _______ _______ _____ _____    ______ ____
ROOT
ATOM      1  C   UNL     1       1.293   3.372  20.887  0.00  0.00    +0.000 C 
ATOM      2  C   UNL     1       2.737   3.389  20.443  0.00  0.00    +0.000 C 
ATOM      3  C   UNL     1       3.398   4.308  19.693  0.00  0.00    +0.000 C 
ATOM      4  C   UNL     1       4.881   4.118  19.414  0.00  0.00    +0.000 C 
ATOM      5  N   UNL     1       5.338   2.783  19.730  0.00  0.00    +0.000 N 
ATOM      6  C   UNL     1       4.701   1.952  20.585  0.00  0.00    +0.000 C 
ATOM      7  O   UNL     1       5.233   0.929  21.005  0.00  0.00    +0.000 OA
ATOM      8  N   UNL     1       3.430   2.291  20.912  0.00  0.00    +0.000 N 
ATOM      9  H   UNL     1       6.293   2.519  19.532  0.00  0.00    +0.000 HD
ATOM     10  H   UNL     1       2.955   1.610  21.496  0.00  0.00    +0.000 HD
ENDROOT
BRANCH   4  11
ATOM     11  C   UNL     1       5.324   4.426  17.989  0.00  0.00    +0.000 A 
ATOM     12  C   UNL     1       4.789   3.696  16.912  0.00  0.00    +0.000 A 
ATOM     13  C   UNL     1       5.300   3.862  15.623  0.00  0.00    +0.000 A 
ATOM     14  C   UNL     1       6.325   4.792  15.401  0.00  0.00    +0.000 A 
ATOM     15  C   UNL     1       6.803   5.587  16.449  0.00  0.00    +0.000 A 
ATOM     16  C   UNL     1       6.297   5.406  17.737  0.00  0.00    +0.000 A 
BRANCH  14  17
ATOM     17  N   UNL     1       6.924   4.904  14.066  0.00  0.00    +0.000 N 
ATOM     18  O   UNL     1       6.407   4.249  13.149  0.00  0.00    +0.000 OA
ATOM     19  O   UNL     1       7.919   5.631  13.940  0.00  0.00    +0.000 OA
ENDBRANCH  14  17
ENDBRANCH   4  11
BRANCH   3  20
ATOM     20  C   UNL     1       2.659   5.518  19.159  0.00  0.00    +0.000 C 
ATOM     21  O   UNL     1       2.160   5.479  18.037  0.00  0.00    +0.000 OA
ATOM     22  N   UNL     1       2.652   6.666  19.934  0.00  0.00    +0.000 N 
ATOM     23  H   UNL     1       3.272   6.734  20.723  0.00  0.00    +0.000 HD
BRANCH  22  24
ATOM     24  C   UNL     1       2.018   7.884  19.577  0.00  0.00    +0.000 A 
ATOM     25  C   UNL     1       1.181   8.589  20.449  0.00  0.00    +0.000 A 
ATOM     26  C   UNL     1       0.552   9.770  20.042  0.00  0.00    +0.000 A 
ATOM     27  C   UNL     1       0.756  10.253  18.754  0.00  0.00    +0.000 A 
ATOM     28 CL   UNL     1      -0.048  11.686  18.242  0.00  0.00    +0.000 Cl
ATOM     29  C   UNL     1       1.607   9.580  17.881  0.00  0.00    +0.000 A 
ATOM     30  C   UNL     1       2.250   8.406  18.297  0.00  0.00    +0.000 A 
ENDBRANCH  22  24
ENDBRANCH   3  20
TORSDOF 4
ENDMDL
MODEL 3
REMARK VINA RESULT:      -7.8      3.348      6.369
REMARK  Name = 
REMARK  5 active torsions:
REMARK  status: ('A' for Active; 'I' for Inactive)
REMARK    1  A    between atoms: C_1  and  C_2
REMARK    2  A    between atoms: C_3  and  C_4
REMARK    3  A    between atoms: N_6  and  C_7
REMARK    4  A    between atoms: C_14  and  C_15
REMARK    5  A    between atoms: C_18  and  N_19
REMARK                            x       y       z     vdW  Elec       q    Type
REMARK                         _______ _______ _______ _____ _____    ______ ____
ROOT
ATOM      1  C   UNL     1       5.177   1.735  20.744  0.00  0.00    +0.000 C 
ATOM      2  C   UNL     1       3.908   2.529  20.541  0.00  0.00    +0.000 C 
ATOM      3  C   UNL     1       3.638   3.507  19.639  0.00  0.00    +0.000 C 
ATOM      4  C   UNL     1       2.252   4.133  19.606  0.00  0.00    +0.000 C 
ATOM      5  N   UNL     1       1.474   3.815  20.782  0.00  0.00    +0.000 N 
ATOM      6  C   UNL     1       1.714   2.751  21.579  0.00  0.00    +0.000 C 
ATOM      7  O   UNL     1       0.903   2.383  22.424  0.00  0.00    +0.000 OA
ATOM      8  N   UNL     1       2.918   2.147  21.423  0.00  0.00    +0.000 N 
ATOM      9  H   UNL     1       0.556   4.223  20.903  0.00  0.00    +0.000 HD
ATOM     10  H   UNL     1       3.097   1.399  22.085  0.00  0.00    +0.000 HD
ENDROOT
BRANCH   4  11
ATOM     11  C   UNL     1       2.221   5.646  19.434  0.00  0.00    +0.000 A 
ATOM     12  C   UNL     1       1.925   6.475  20.532  0.00  0.00    +0.000 A 
ATOM     13  C   UNL     1       1.742   7.847  20.352  0.00  0.00    +0.000 A 
ATOM     14  C   UNL     1       1.893   8.403  19.075  0.00  0.00    +0.000 A 
ATOM     15  C   UNL     1       2.274   7.603  17.991  0.00  0.00    +0.000 A 
ATOM     16  C   UNL     1       2.443   6.230  18.175  0.00  0.00    +0.000 A 
BRANCH  14  17
ATOM     17  N   UNL     1       1.613   9.828  18.866  0.00  0.00    +0.000 N 
ATOM     18  O   UNL     1       0.784  10.364  19.617  0.00  0.00    +0.000 OA
ATOM     19  O   UNL     1       2.206  10.405  17.944  0.00  0.00    +0.000 OA
ENDBRANCH  14  17
ENDBRANCH   4  11
BRANCH   3  20
ATOM     20  C   UNL     1       4.710   3.951  18.664  0.00  0.00    +0.000 C 
ATOM     21  O   UNL     1       5.698   4.552  19.079  0.00  0.00    +0.000 OA
ATOM     22  N   UNL     1       4.488   3.734  17.314  0.00  0.00    +0.000 N 
ATOM     23  H   UNL     1       3.570   3.466  17.001  0.00  0.00    +0.000 HD
BRANCH  22  24
ATOM     24  C   UNL     1       5.382   4.098  16.274  0.00  0.00    +0.000 A 
ATOM     25  C   UNL     1       6.547   4.840  16.499  0.00  0.00    +0.000 A 
ATOM     26  C   UNL     1       7.383   5.202  15.438  0.00  0.00    +0.000 A 
ATOM     27  C   UNL     1       7.055   4.826  14.140  0.00  0.00    +0.000 A 
ATOM     28 CL   UNL     1       8.064   5.305  12.832  0.00  0.00    +0.000 Cl
ATOM     29  C   UNL     1       5.913   4.065  13.900  0.00  0.00    +0.000 A 
ATOM     30  C   UNL     1       5.087   3.687  14.967  0.00  0.00    +0.000 A 
ENDBRANCH  22  24
ENDBRANCH   3  20
TORSDOF 4
ENDMDL
MODEL 4
REMARK VINA RESULT:      -7.7      0.395      1.167
REMARK  Name = 
REMARK  5 active torsions:
REMARK  status: ('A' for Active; 'I' for Inactive)
REMARK    1  A    between atoms: C_1  and  C_2
REMARK    2  A    between atoms: C_3  and  C_4
REMARK    3  A    between atoms: N_6  and  C_7
REMARK    4  A    between atoms: C_14  and  C_15
REMARK    5  A    between atoms: C_18  and  N_19
REMARK                            x       y       z     vdW  Elec       q    Type
REMARK                         _______ _______ _______ _____ _____    ______ ____
ROOT
ATOM      1  C   UNL     1       1.172   3.489  20.891  0.00  0.00    +0.000 C 
ATOM      2  C   UNL     1       2.644   3.389  20.561  0.00  0.00    +0.000 C 
ATOM      3  C   UNL     1       3.418   4.215  19.812  0.00  0.00    +0.000 C 
ATOM      4  C   UNL     1       4.902   3.916  19.661  0.00  0.00    +0.000 C 
ATOM      5  N   UNL     1       5.244   2.578  20.090  0.00  0.00    +0.000 N 
ATOM      6  C   UNL     1       4.492   1.845  20.939  0.00  0.00    +0.000 C 
ATOM      7  O   UNL     1       4.921   0.819  21.459  0.00  0.00    +0.000 OA
ATOM      8  N   UNL     1       3.225   2.282  21.146  0.00  0.00    +0.000 N 
ATOM      9  H   UNL     1       6.191   2.243  19.982  0.00  0.00    +0.000 HD
ATOM     10  H   UNL     1       2.664   1.670  21.730  0.00  0.00    +0.000 HD
ENDROOT
BRANCH   4  11
ATOM     11  C   UNL     1       5.468   4.105  18.259  0.00  0.00    +0.000 A 
ATOM     12  C   UNL     1       6.551   4.978  18.048  0.00  0.00    +0.000 A 
ATOM     13  C   UNL     1       6.975   5.277  16.752  0.00  0.00    +0.000 A 
ATOM     14  C   UNL     1       6.341   4.669  15.661  0.00  0.00    +0.000 A 
ATOM     15  C   UNL     1       5.322   3.731  15.861  0.00  0.00    +0.000 A 
ATOM     16  C   UNL     1       4.894   3.447  17.159  0.00  0.00    +0.000 A 
BRANCH  14  17
ATOM     17  N   UNL     1       6.725   5.049  14.296  0.00  0.00    +0.000 N 
ATOM     18  O   UNL     1       5.938   4.767  13.380  0.00  0.00    +0.000 OA
ATOM     19  O   UNL     1       7.818   5.610  14.139  0.00  0.00    +0.000 OA
ENDBRANCH  14  17
ENDBRANCH   4  11
BRANCH   3  20
ATOM     20  C   UNL     1       2.803   5.432  19.152  0.00  0.00    +0.000 C 
ATOM     21  O   UNL     1       2.515   5.396  17.958  0.00  0.00    +0.000 OA
ATOM     22  N   UNL     1       2.669   6.583  19.912  0.00  0.00    +0.000 N 
ATOM     23  H   UNL     1       3.137   6.646  20.800  0.00  0.00    +0.000 HD
BRANCH  22  24
ATOM     24  C   UNL     1       2.126   7.807  19.445  0.00  0.00    +0.000 A 
ATOM     25  C   UNL     1       2.363   8.301  18.157  0.00  0.00    +0.000 A 
ATOM     26  C   UNL     1       1.832   9.529  17.751  0.00  0.00    +0.000 A 
ATOM     27  C   UNL     1       1.060  10.275  18.635  0.00  0.00    +0.000 A 
ATOM     28 CL   UNL     1       0.438  11.802  18.145  0.00  0.00    +0.000 Cl
ATOM     29  C   UNL     1       0.790   9.787  19.911  0.00  0.00    +0.000 A 
ATOM     30  C   UNL     1       1.309   8.547  20.310  0.00  0.00    +0.000 A 
ENDBRANCH  22  24
ENDBRANCH   3  20
TORSDOF 4
ENDMDL
MODEL 5
REMARK VINA RESULT:      -7.6      3.318      6.356
REMARK  Name = 
REMARK  5 active torsions:
REMARK  status: ('A' for Active; 'I' for Inactive)
REMARK    1  A    between atoms: C_1  and  C_2
REMARK    2  A    between atoms: C_3  and  C_4
REMARK    3  A    between atoms: N_6  and  C_7
REMARK    4  A    between atoms: C_14  and  C_15
REMARK    5  A    between atoms: C_18  and  N_19
REMARK                            x       y       z     vdW  Elec       q    Type
REMARK                         _______ _______ _______ _____ _____    ______ ____
ROOT
ATOM      1  C   UNL     1       5.122   1.840  20.557  0.00  0.00    +0.000 C 
ATOM      2  C   UNL     1       3.852   2.648  20.416  0.00  0.00    +0.000 C 
ATOM      3  C   UNL     1       3.558   3.646  19.544  0.00  0.00    +0.000 C 
ATOM      4  C   UNL     1       2.176   4.282  19.574  0.00  0.00    +0.000 C 
ATOM      5  N   UNL     1       1.438   3.945  20.771  0.00  0.00    +0.000 N 
ATOM      6  C   UNL     1       1.699   2.863  21.537  0.00  0.00    +0.000 C 
ATOM      7  O   UNL     1       0.916   2.483  22.402  0.00  0.00    +0.000 OA
ATOM      8  N   UNL     1       2.891   2.254  21.325  0.00  0.00    +0.000 N 
ATOM      9  H   UNL     1       0.528   4.357  20.932  0.00  0.00    +0.000 HD
ATOM     10  H   UNL     1       3.088   1.492  21.964  0.00  0.00    +0.000 HD
ENDROOT
BRANCH   4  11
ATOM     11  C   UNL     1       2.151   5.799  19.434  0.00  0.00    +0.000 A 
ATOM     12  C   UNL     1       1.833   6.604  20.544  0.00  0.00    +0.000 A 
ATOM     13  C   UNL     1       1.655   7.980  20.390  0.00  0.00    +0.000 A 
ATOM     14  C   UNL     1       1.833   8.563  19.128  0.00  0.00    +0.000 A 
ATOM     15  C   UNL     1       2.236   7.786  18.036  0.00  0.00    +0.000 A 
ATOM     16  C   UNL     1       2.399   6.409  18.193  0.00  0.00    +0.000 A 
BRANCH  14  17
ATOM     17  N   UNL     1       1.560   9.993  18.945  0.00  0.00    +0.000 N 
ATOM     18  O   UNL     1       2.118  10.566  17.998  0.00  0.00    +0.000 OA
ATOM     19  O   UNL     1       0.803  10.545  19.756  0.00  0.00    +0.000 OA
ENDBRANCH  14  17
ENDBRANCH   4  11
BRANCH   3  20
ATOM     20  C   UNL     1       4.598   4.103  18.541  0.00  0.00    +0.000 C 
ATOM     21  O   UNL     1       5.564   4.759  18.923  0.00  0.00    +0.000 OA
ATOM     22  N   UNL     1       4.368   3.833  17.202  0.00  0.00    +0.000 N 
ATOM     23  H   UNL     1       3.459   3.515  16.910  0.00  0.00    +0.000 HD
BRANCH  22  24
ATOM     24  C   UNL     1       5.233   4.199  16.138  0.00  0.00    +0.000 A 
ATOM     25  C   UNL     1       5.216   3.564  14.892  0.00  0.00    +0.000 A 
ATOM     26  C   UNL     1       6.109   3.939  13.883  0.00  0.00    +0.000 A 
ATOM     27  C   UNL     1       7.030   4.953  14.118  0.00  0.00    +0.000 A 
ATOM     28 CL   UNL     1       8.153   5.387  12.889  0.00  0.00    +0.000 Cl
ATOM     29  C   UNL     1       7.044   5.616  15.343  0.00  0.00    +0.000 A 
ATOM     30  C   UNL     1       6.136   5.251  16.346  0.00  0.00    +0.000 A 
ENDBRANCH  22  24
ENDBRANCH   3  20
TORSDOF 4
ENDMDL
MODEL 6
REMARK VINA RESULT:      -7.5      2.268      4.949
REMARK  Name = 
REMARK  5 active torsions:
REMARK  status: ('A' for Active; 'I' for Inactive)
REMARK    1  A    between atoms: C_1  and  C_2
REMARK    2  A    between atoms: C_3  and  C_4
REMARK    3  A    between atoms: N_6  and  C_7
REMARK    4  A    between atoms: C_14  and  C_15
REMARK    5  A    between atoms: C_18  and  N_19
REMARK                            x       y       z     vdW  Elec       q    Type
REMARK                         _______ _______ _______ _____ _____    ______ ____
ROOT
ATOM      1  C   UNL     1       6.999   8.247  17.570  0.00  0.00    +0.000 C 
ATOM      2  C   UNL     1       6.599   6.796  17.437  0.00  0.00    +0.000 C 
ATOM      3  C   UNL     1       5.362   6.249  17.327  0.00  0.00    +0.000 C 
ATOM      4  C   UNL     1       5.222   4.743  17.160  0.00  0.00    +0.000 C 
ATOM      5  N   UNL     1       6.446   4.037  17.464  0.00  0.00    +0.000 N 
ATOM      6  C   UNL     1       7.671   4.606  17.437  0.00  0.00    +0.000 C 
ATOM      7  O   UNL     1       8.696   3.932  17.471  0.00  0.00    +0.000 OA
ATOM      8  N   UNL     1       7.699   5.962  17.419  0.00  0.00    +0.000 N 
ATOM      9  H   UNL     1       6.460   3.026  17.446  0.00  0.00    +0.000 HD
ATOM     10  H   UNL     1       8.631   6.359  17.473  0.00  0.00    +0.000 HD
ENDROOT
BRANCH   4  11
ATOM     11  C   UNL     1       4.107   4.096  17.972  0.00  0.00    +0.000 A 
ATOM     12  C   UNL     1       2.833   3.917  17.403  0.00  0.00    +0.000 A 
ATOM     13  C   UNL     1       1.767   3.470  18.185  0.00  0.00    +0.000 A 
ATOM     14  C   UNL     1       1.982   3.161  19.535  0.00  0.00    +0.000 A 
ATOM     15  C   UNL     1       3.264   3.250  20.090  0.00  0.00    +0.000 A 
ATOM     16  C   UNL     1       4.322   3.710  19.306  0.00  0.00    +0.000 A 
BRANCH  14  17
ATOM     17  N   UNL     1       0.846   2.776  20.381  0.00  0.00    +0.000 N 
ATOM     18  O   UNL     1      -0.241   2.570  19.820  0.00  0.00    +0.000 OA
ATOM     19  O   UNL     1       1.035   2.699  21.602  0.00  0.00    +0.000 OA
ENDBRANCH  14  17
ENDBRANCH   4  11
BRANCH   3  20
ATOM     20  C   UNL     1       4.138   7.141  17.352  0.00  0.00    +0.000 C 
ATOM     21  O   UNL     1       3.781   7.713  16.325  0.00  0.00    +0.000 OA
ATOM     22  N   UNL     1       3.512   7.348  18.571  0.00  0.00    +0.000 N 
ATOM     23  H   UNL     1       3.974   7.064  19.418  0.00  0.00    +0.000 HD
BRANCH  22  24
ATOM     24  C   UNL     1       2.366   8.160  18.769  0.00  0.00    +0.000 A 
ATOM     25  C   UNL     1       1.787   8.919  17.746  0.00  0.00    +0.000 A 
ATOM     26  C   UNL     1       0.675   9.730  17.995  0.00  0.00    +0.000 A 
ATOM     27  C   UNL     1       0.137   9.790  19.276  0.00  0.00    +0.000 A 
ATOM     28 CL   UNL     1      -1.207  10.817  19.590  0.00  0.00    +0.000 Cl
ATOM     29  C   UNL     1       0.683   9.021  20.301  0.00  0.00    +0.000 A 
ATOM     30  C   UNL     1       1.786   8.195  20.044  0.00  0.00    +0.000 A 
ENDBRANCH  22  24
ENDBRANCH   3  20
TORSDOF 4
ENDMDL
MODEL 7
REMARK VINA RESULT:      -7.2      2.265      5.006
REMARK  Name = 
REMARK  5 active torsions:
REMARK  status: ('A' for Active; 'I' for Inactive)
REMARK    1  A    between atoms: C_1  and  C_2
REMARK    2  A    between atoms: C_3  and  C_4
REMARK    3  A    between atoms: N_6  and  C_7
REMARK    4  A    between atoms: C_14  and  C_15
REMARK    5  A    between atoms: C_18  and  N_19
REMARK                            x       y       z     vdW  Elec       q    Type
REMARK                         _______ _______ _______ _____ _____    ______ ____
ROOT
ATOM      1  C   UNL     1       6.962   8.274  17.584  0.00  0.00    +0.000 C 
ATOM      2  C   UNL     1       6.559   6.825  17.435  0.00  0.00    +0.000 C 
ATOM      3  C   UNL     1       5.319   6.281  17.333  0.00  0.00    +0.000 C 
ATOM      4  C   UNL     1       5.175   4.779  17.146  0.00  0.00    +0.000 C 
ATOM      5  N   UNL     1       6.401   4.066  17.423  0.00  0.00    +0.000 N 
ATOM      6  C   UNL     1       7.627   4.634  17.389  0.00  0.00    +0.000 C 
ATOM      7  O   UNL     1       8.651   3.959  17.400  0.00  0.00    +0.000 OA
ATOM      8  N   UNL     1       7.657   5.990  17.390  0.00  0.00    +0.000 N 
ATOM      9  H   UNL     1       6.414   3.055  17.391  0.00  0.00    +0.000 HD
ATOM     10  H   UNL     1       8.590   6.385  17.438  0.00  0.00    +0.000 HD
ENDROOT
BRANCH   4  11
ATOM     11  C   UNL     1       4.070   4.121  17.964  0.00  0.00    +0.000 A 
ATOM     12  C   UNL     1       2.782   3.971  17.417  0.00  0.00    +0.000 A 
ATOM     13  C   UNL     1       1.728   3.513  18.208  0.00  0.00    +0.000 A 
ATOM     14  C   UNL     1       1.967   3.165  19.544  0.00  0.00    +0.000 A 
ATOM     15  C   UNL     1       3.261   3.226  20.075  0.00  0.00    +0.000 A 
ATOM     16  C   UNL     1       4.308   3.697  19.282  0.00  0.00    +0.000 A 
BRANCH  14  17
ATOM     17  N   UNL     1       0.844   2.770  20.403  0.00  0.00    +0.000 N 
ATOM     18  O   UNL     1       1.062   2.666  21.619  0.00  0.00    +0.000 OA
ATOM     19  O   UNL     1      -0.247   2.547  19.860  0.00  0.00    +0.000 OA
ENDBRANCH  14  17
ENDBRANCH   4  11
BRANCH   3  20
ATOM     20  C   UNL     1       4.096   7.175  17.387  0.00  0.00    +0.000 C 
ATOM     21  O   UNL     1       3.716   7.747  16.369  0.00  0.00    +0.000 OA
ATOM     22  N   UNL     1       3.500   7.382  18.621  0.00  0.00    +0.000 N 
ATOM     23  H   UNL     1       3.982   7.097  19.457  0.00  0.00    +0.000 HD
BRANCH  22  24
ATOM     24  C   UNL     1       2.360   8.195  18.846  0.00  0.00    +0.000 A 
ATOM     25  C   UNL     1       1.726   8.285  20.090  0.00  0.00    +0.000 A 
ATOM     26  C   UNL     1       0.585   9.077  20.258  0.00  0.00    +0.000 A 
ATOM     27  C   UNL     1       0.068   9.782  19.177  0.00  0.00    +0.000 A 
ATOM     28 CL   UNL     1      -1.357  10.725  19.376  0.00  0.00    +0.000 Cl
ATOM     29  C   UNL     1       0.701   9.726  17.937  0.00  0.00    +0.000 A 
ATOM     30  C   UNL     1       1.855   8.947  17.776  0.00  0.00    +0.000 A 
ENDBRANCH  22  24
ENDBRANCH   3  20
TORSDOF 4
ENDMDL
MODEL 8
REMARK VINA RESULT:      -7.1      1.157      1.315
REMARK  Name = 
REMARK  5 active torsions:
REMARK  status: ('A' for Active; 'I' for Inactive)
REMARK    1  A    between atoms: C_1  and  C_2
REMARK    2  A    between atoms: C_3  and  C_4
REMARK    3  A    between atoms: N_6  and  C_7
REMARK    4  A    between atoms: C_14  and  C_15
REMARK    5  A    between atoms: C_18  and  N_19
REMARK                            x       y       z     vdW  Elec       q    Type
REMARK                         _______ _______ _______ _____ _____    ______ ____
ROOT
ATOM      1  C   UNL     1       1.118   4.254  19.678  0.00  0.00    +0.000 C 
ATOM      2  C   UNL     1       2.494   3.814  19.235  0.00  0.00    +0.000 C 
ATOM      3  C   UNL     1       3.520   4.555  18.743  0.00  0.00    +0.000 C 
ATOM      4  C   UNL     1       4.837   3.875  18.403  0.00  0.00    +0.000 C 
ATOM      5  N   UNL     1       4.720   2.435  18.352  0.00  0.00    +0.000 N 
ATOM      6  C   UNL     1       3.741   1.737  18.967  0.00  0.00    +0.000 C 
ATOM      7  O   UNL     1       3.802   0.518  19.096  0.00  0.00    +0.000 OA
ATOM      8  N   UNL     1       2.671   2.454  19.389  0.00  0.00    +0.000 N 
ATOM      9  H   UNL     1       5.517   1.876  18.078  0.00  0.00    +0.000 HD
ATOM     10  H   UNL     1       1.922   1.892  19.780  0.00  0.00    +0.000 HD
ENDROOT
BRANCH   4  11
ATOM     11  C   UNL     1       5.491   4.327  17.103  0.00  0.00    +0.000 A 
ATOM     12  C   UNL     1       4.823   4.145  15.878  0.00  0.00    +0.000 A 
ATOM     13  C   UNL     1       5.473   4.412  14.673  0.00  0.00    +0.000 A 
ATOM     14  C   UNL     1       6.787   4.899  14.690  0.00  0.00    +0.000 A 
ATOM     15  C   UNL     1       7.431   5.167  15.903  0.00  0.00    +0.000 A 
ATOM     16  C   UNL     1       6.779   4.887  17.105  0.00  0.00    +0.000 A 
BRANCH  14  17
ATOM     17  N   UNL     1       7.504   5.094  13.424  0.00  0.00    +0.000 N 
ATOM     18  O   UNL     1       7.116   4.447  12.440  0.00  0.00    +0.000 OA
ATOM     19  O   UNL     1       8.463   5.878  13.419  0.00  0.00    +0.000 OA
ENDBRANCH  14  17
ENDBRANCH   4  11
BRANCH   3  20
ATOM     20  C   UNL     1       3.350   6.049  18.556  0.00  0.00    +0.000 C 
ATOM     21  O   UNL     1       4.245   6.701  18.026  0.00  0.00    +0.000 OA
ATOM     22  N   UNL     1       2.210   6.641  19.077  0.00  0.00    +0.000 N 
ATOM     23  H   UNL     1       1.628   6.120  19.710  0.00  0.00    +0.000 HD
BRANCH  22  24
ATOM     24  C   UNL     1       1.905   8.024  18.998  0.00  0.00    +0.000 A 
ATOM     25  C   UNL     1       2.129   8.786  17.846  0.00  0.00    +0.000 A 
ATOM     26  C   UNL     1       1.840  10.155  17.825  0.00  0.00    +0.000 A 
ATOM     27  C   UNL     1       1.328  10.771  18.961  0.00  0.00    +0.000 A 
ATOM     28 CL   UNL     1       1.010  12.462  18.944  0.00  0.00    +0.000 Cl
ATOM     29  C   UNL     1       1.073  10.024  20.108  0.00  0.00    +0.000 A 
ATOM     30  C   UNL     1       1.346   8.648  20.121  0.00  0.00    +0.000 A 
ENDBRANCH  22  24
ENDBRANCH   3  20
TORSDOF 4
ENDMDL
MODEL 9
REMARK VINA RESULT:      -7.0      0.605      1.504
REMARK  Name = 
REMARK  5 active torsions:
REMARK  status: ('A' for Active; 'I' for Inactive)
REMARK    1  A    between atoms: C_1  and  C_2
REMARK    2  A    between atoms: C_3  and  C_4
REMARK    3  A    between atoms: N_6  and  C_7
REMARK    4  A    between atoms: C_14  and  C_15
REMARK    5  A    between atoms: C_18  and  N_19
REMARK                            x       y       z     vdW  Elec       q    Type
REMARK                         _______ _______ _______ _____ _____    ______ ____
ROOT
ATOM      1  C   UNL     1       1.077   3.366  20.887  0.00  0.00    +0.000 C 
ATOM      2  C   UNL     1       2.559   3.376  20.595  0.00  0.00    +0.000 C 
ATOM      3  C   UNL     1       3.301   4.297  19.928  0.00  0.00    +0.000 C 
ATOM      4  C   UNL     1       4.803   4.098  19.800  0.00  0.00    +0.000 C 
ATOM      5  N   UNL     1       5.215   2.755  20.145  0.00  0.00    +0.000 N 
ATOM      6  C   UNL     1       4.488   1.920  20.919  0.00  0.00    +0.000 C 
ATOM      7  O   UNL     1       4.966   0.887  21.378  0.00  0.00    +0.000 OA
ATOM      8  N   UNL     1       3.192   2.266  21.118  0.00  0.00    +0.000 N 
ATOM      9  H   UNL     1       6.184   2.485  20.042  0.00  0.00    +0.000 HD
ATOM     10  H   UNL     1       2.655   1.583  21.641  0.00  0.00    +0.000 HD
ENDROOT
BRANCH   4  11
ATOM     11  C   UNL     1       5.392   4.419  18.433  0.00  0.00    +0.000 A 
ATOM     12  C   UNL     1       6.279   5.501  18.284  0.00  0.00    +0.000 A 
ATOM     13  C   UNL     1       6.701   5.898  17.014  0.00  0.00    +0.000 A 
ATOM     14  C   UNL     1       6.267   5.188  15.887  0.00  0.00    +0.000 A 
ATOM     15  C   UNL     1       5.456   4.056  16.029  0.00  0.00    +0.000 A 
ATOM     16  C   UNL     1       5.027   3.672  17.301  0.00  0.00    +0.000 A 
BRANCH  14  17
ATOM     17  N   UNL     1       6.636   5.657  14.547  0.00  0.00    +0.000 N 
ATOM     18  O   UNL     1       5.744   6.165  13.852  0.00  0.00    +0.000 OA
ATOM     19  O   UNL     1       7.810   5.502  14.184  0.00  0.00    +0.000 OA
ENDBRANCH  14  17
ENDBRANCH   4  11
BRANCH   3  20
ATOM     20  C   UNL     1       2.630   5.521  19.337  0.00  0.00    +0.000 C 
ATOM     21  O   UNL     1       2.233   5.494  18.174  0.00  0.00    +0.000 OA
ATOM     22  N   UNL     1       2.569   6.665  20.115  0.00  0.00    +0.000 N 
ATOM     23  H   UNL     1       3.116   6.721  20.957  0.00  0.00    +0.000 HD
BRANCH  22  24
ATOM     24  C   UNL     1       1.987   7.894  19.709  0.00  0.00    +0.000 A 
ATOM     25  C   UNL     1       1.198   8.678  20.558  0.00  0.00    +0.000 A 
ATOM     26  C   UNL     1       0.619   9.867  20.104  0.00  0.00    +0.000 A 
ATOM     27  C   UNL     1       0.823  10.279  18.792  0.00  0.00    +0.000 A 
ATOM     28 CL   UNL     1       0.079  11.722  18.225  0.00  0.00    +0.000 Cl
ATOM     29  C   UNL     1       1.627   9.525  17.940  0.00  0.00    +0.000 A 
ATOM     30  C   UNL     1       2.222   8.343  18.402  0.00  0.00    +0.000 A 
ENDBRANCH  22  24
ENDBRANCH   3  20
TORSDOF 4
ENDMDL
