MODEL 1
REMARK VINA RESULT:      -7.6      0.000      0.000
REMARK  Name = 
REMARK  7 active torsions:
REMARK  status: ('A' for Active; 'I' for Inactive)
REMARK    1  A    between atoms: C_2  and  C_3
REMARK    2  A    between atoms: C_3  and  O_4
REMARK    3  A    between atoms: O_4  and  C_5
REMARK    4  A    between atoms: C_10  and  O_11
REMARK    5  A    between atoms: O_11  and  C_12
REMARK    6  A    between atoms: C_13  and  C_14
REMARK    7  A    between atoms: C_15  and  C_16
REMARK                            x       y       z     vdW  Elec       q    Type
REMARK                         _______ _______ _______ _____ _____    ______ ____
ROOT
ATOM      1  C   UNL     1       4.106   4.881  17.213  0.00  0.00    +0.000 A 
ATOM      2  C   UNL     1       4.383   6.243  17.077  0.00  0.00    +0.000 A 
ATOM      3  C   UNL     1       3.487   7.091  17.690  0.00  0.00    +0.000 A 
ATOM      4  C   UNL     1       2.666   6.613  18.701  0.00  0.00    +0.000 A 
ATOM      5  C   UNL     1       2.136   5.353  18.506  0.00  0.00    +0.000 A 
ATOM      6  C   UNL     1       2.808   4.527  17.609  0.00  0.00    +0.000 A 
ATOM      7  C   UNL     1       2.205   7.845  19.402  0.00  0.00    +0.000 C 
ATOM      8  C   UNL     1       1.437   7.757  20.695  0.00  0.00    +0.000 C 
ATOM      9  C   UNL     1       1.776   8.469  18.081  0.00  0.00    +0.000 C 
ATOM     10  O   UNL     1       3.093   8.405  17.352  0.00  0.00    +0.000 OA
ENDROOT
BRANCH   9  11
ATOM     11  C   UNL     1       0.924   9.721  18.168  0.00  0.00    +0.000 A 
ATOM     12  C   UNL     1      -0.470   9.742  18.022  0.00  0.00    +0.000 A 
ATOM     13  C   UNL     1      -1.194  10.928  18.265  0.00  0.00    +0.000 A 
ATOM     14  C   UNL     1      -0.521  12.062  18.641  0.00  0.00    +0.000 A 
ATOM     15  C   UNL     1       0.856  12.055  18.800  0.00  0.00    +0.000 A 
ATOM     16  C   UNL     1       1.590  10.912  18.568  0.00  0.00    +0.000 A 
ATOM     17  O   UNL     1       1.346  13.251  19.213  0.00  0.00    +0.000 OA
ATOM     18  C   UNL     1       0.129  13.996  19.389  0.00  0.00    +0.000 C 
ATOM     19  O   UNL     1      -1.050  13.267  18.969  0.00  0.00    +0.000 OA
ENDBRANCH   9  11
BRANCH   6  20
ATOM     20  O   UNL     1       2.160   3.419  17.117  0.00  0.00    +0.000 OA
ATOM     21  C   UNL     1       2.078   2.360  18.097  0.00  0.00    +0.000 C 
ENDBRANCH   6  20
BRANCH   1  22
ATOM     22  O   UNL     1       5.084   3.938  16.972  0.00  0.00    +0.000 OA
BRANCH  22  23
ATOM     23  C   UNL     1       6.355   4.558  16.636  0.00  0.00    +0.000 C 
BRANCH  23  25
ATOM     24  C   UNL     1       6.037   4.029  14.159  0.00  0.00    +0.000 C 
ATOM     25  C   UNL     1       6.785   4.382  15.194  0.00  0.00    +0.000 C 
ENDBRANCH  23  25
ENDBRANCH  22  23
ENDBRANCH   1  22
TORSDOF 5
ENDMDL
MODEL 2
REMARK VINA RESULT:      -7.6      0.657      1.171
REMARK  Name = 
REMARK  7 active torsions:
REMARK  status: ('A' for Active; 'I' for Inactive)
REMARK    1  A    between atoms: C_2  and  C_3
REMARK    2  A    between atoms: C_3  and  O_4
REMARK    3  A    between atoms: O_4  and  C_5
REMARK    4  A    between atoms: C_10  and  O_11
REMARK    5  A    between atoms: O_11  and  C_12
REMARK    6  A    between atoms: C_13  and  C_14
REMARK    7  A    between atoms: C_15  and  C_16
REMARK                            x       y       z     vdW  Elec       q    Type
REMARK                         _______ _______ _______ _____ _____    ______ ____
ROOT
ATOM      1  C   UNL     1       4.243   4.971  17.101  0.00  0.00    +0.000 A 
ATOM      2  C   UNL     1       4.473   6.343  16.986  0.00  0.00    +0.000 A 
ATOM      3  C   UNL     1       3.549   7.151  17.612  0.00  0.00    +0.000 A 
ATOM      4  C   UNL     1       2.745   6.628  18.615  0.00  0.00    +0.000 A 
ATOM      5  C   UNL     1       2.259   5.354  18.400  0.00  0.00    +0.000 A 
ATOM      6  C   UNL     1       2.958   4.566  17.490  0.00  0.00    +0.000 A 
ATOM      7  C   UNL     1       2.242   7.833  19.335  0.00  0.00    +0.000 C 
ATOM      8  C   UNL     1       1.477   7.698  20.626  0.00  0.00    +0.000 C 
ATOM      9  C   UNL     1       1.792   8.463  18.025  0.00  0.00    +0.000 C 
ATOM     10  O   UNL     1       3.110   8.455  17.295  0.00  0.00    +0.000 OA
ENDROOT
BRANCH   9  11
ATOM     11  C   UNL     1       0.898   9.683  18.130  0.00  0.00    +0.000 A 
ATOM     12  C   UNL     1      -0.489   9.669  17.924  0.00  0.00    +0.000 A 
ATOM     13  C   UNL     1      -1.260  10.820  18.188  0.00  0.00    +0.000 A 
ATOM     14  C   UNL     1      -0.640  11.955  18.645  0.00  0.00    +0.000 A 
ATOM     15  C   UNL     1       0.727  11.982  18.866  0.00  0.00    +0.000 A 
ATOM     16  C   UNL     1       1.507  10.873  18.614  0.00  0.00    +0.000 A 
ATOM     17  O   UNL     1       1.161  13.170  19.354  0.00  0.00    +0.000 OA
ATOM     18  C   UNL     1      -0.086  13.870  19.509  0.00  0.00    +0.000 C 
ATOM     19  O   UNL     1      -1.221  13.127  19.005  0.00  0.00    +0.000 OA
ENDBRANCH   9  11
BRANCH   6  20
ATOM     20  O   UNL     1       2.348   3.444  16.981  0.00  0.00    +0.000 OA
ATOM     21  C   UNL     1       2.320   2.361  17.938  0.00  0.00    +0.000 C 
ENDBRANCH   6  20
BRANCH   1  22
ATOM     22  O   UNL     1       5.253   4.066  16.845  0.00  0.00    +0.000 OA
BRANCH  22  23
ATOM     23  C   UNL     1       6.530   4.730  16.643  0.00  0.00    +0.000 C 
BRANCH  23  25
ATOM     24  C   UNL     1       7.764   5.666  18.673  0.00  0.00    +0.000 C 
ATOM     25  C   UNL     1       7.464   4.684  17.834  0.00  0.00    +0.000 C 
ENDBRANCH  23  25
ENDBRANCH  22  23
ENDBRANCH   1  22
TORSDOF 5
ENDMDL
MODEL 3
REMARK VINA RESULT:      -7.1      2.575      3.689
REMARK  Name = 
REMARK  7 active torsions:
REMARK  status: ('A' for Active; 'I' for Inactive)
REMARK    1  A    between atoms: C_2  and  C_3
REMARK    2  A    between atoms: C_3  and  O_4
REMARK    3  A    between atoms: O_4  and  C_5
REMARK    4  A    between atoms: C_10  and  O_11
REMARK    5  A    between atoms: O_11  and  C_12
REMARK    6  A    between atoms: C_13  and  C_14
REMARK    7  A    between atoms: C_15  and  C_16
REMARK                            x       y       z     vdW  Elec       q    Type
REMARK                         _______ _______ _______ _____ _____    ______ ____
ROOT
ATOM      1  C   UNL     1       4.376   3.977  19.868  0.00  0.00    +0.000 A 
ATOM      2  C   UNL     1       3.075   4.218  20.314  0.00  0.00    +0.000 A 
ATOM      3  C   UNL     1       2.570   5.465  20.014  0.00  0.00    +0.000 A 
ATOM      4  C   UNL     1       3.139   6.212  18.994  0.00  0.00    +0.000 A 
ATOM      5  C   UNL     1       4.518   6.178  18.914  0.00  0.00    +0.000 A 
ATOM      6  C   UNL     1       5.149   5.092  19.513  0.00  0.00    +0.000 A 
ATOM      7  C   UNL     1       2.097   7.225  18.666  0.00  0.00    +0.000 C 
ATOM      8  C   UNL     1       2.242   8.124  17.466  0.00  0.00    +0.000 C 
ATOM      9  C   UNL     1       1.971   7.611  20.134  0.00  0.00    +0.000 C 
ATOM     10  O   UNL     1       1.627   6.259  20.704  0.00  0.00    +0.000 OA
ENDROOT
BRANCH   9  11
ATOM     11  C   UNL     1       1.190   8.874  20.439  0.00  0.00    +0.000 A 
ATOM     12  C   UNL     1       0.651   9.727  19.465  0.00  0.00    +0.000 A 
ATOM     13  C   UNL     1      -0.187  10.798  19.841  0.00  0.00    +0.000 A 
ATOM     14  C   UNL     1      -0.465  11.000  21.168  0.00  0.00    +0.000 A 
ATOM     15  C   UNL     1       0.050  10.160  22.142  0.00  0.00    +0.000 A 
ATOM     16  C   UNL     1       0.873   9.107  21.805  0.00  0.00    +0.000 A 
ATOM     17  O   UNL     1      -0.361  10.485  23.393  0.00  0.00    +0.000 OA
ATOM     18  C   UNL     1      -1.266  11.565  23.107  0.00  0.00    +0.000 C 
ATOM     19  O   UNL     1      -1.288  11.934  21.707  0.00  0.00    +0.000 OA
ENDBRANCH   9  11
BRANCH   6  20
ATOM     20  O   UNL     1       6.498   5.169  19.769  0.00  0.00    +0.000 OA
ATOM     21  C   UNL     1       7.223   5.772  18.673  0.00  0.00    +0.000 C 
ENDBRANCH   6  20
BRANCH   1  22
ATOM     22  O   UNL     1       4.860   2.688  19.777  0.00  0.00    +0.000 OA
BRANCH  22  23
ATOM     23  C   UNL     1       3.871   1.782  19.216  0.00  0.00    +0.000 C 
BRANCH  23  25
ATOM     24  C   UNL     1       2.309   2.462  17.315  0.00  0.00    +0.000 C 
ATOM     25  C   UNL     1       3.488   2.073  17.780  0.00  0.00    +0.000 C 
ENDBRANCH  23  25
ENDBRANCH  22  23
ENDBRANCH   1  22
TORSDOF 5
ENDMDL
MODEL 4
REMARK VINA RESULT:      -7.1      2.020      8.083
REMARK  Name = 
REMARK  7 active torsions:
REMARK  status: ('A' for Active; 'I' for Inactive)
REMARK    1  A    between atoms: C_2  and  C_3
REMARK    2  A    between atoms: C_3  and  O_4
REMARK    3  A    between atoms: O_4  and  C_5
REMARK    4  A    between atoms: C_10  and  O_11
REMARK    5  A    between atoms: O_11  and  C_12
REMARK    6  A    between atoms: C_13  and  C_14
REMARK    7  A    between atoms: C_15  and  C_16
REMARK                            x       y       z     vdW  Elec       q    Type
REMARK                         _______ _______ _______ _____ _____    ______ ____
ROOT
ATOM      1  C   UNL     1       0.342  10.034  19.480  0.00  0.00    +0.000 A 
ATOM      2  C   UNL     1       0.867   9.770  18.214  0.00  0.00    +0.000 A 
ATOM      3  C   UNL     1       1.718   8.688  18.142  0.00  0.00    +0.000 A 
ATOM      4  C   UNL     1       1.685   7.718  19.133  0.00  0.00    +0.000 A 
ATOM      5  C   UNL     1       1.540   8.178  20.427  0.00  0.00    +0.000 A 
ATOM      6  C   UNL     1       0.988   9.447  20.578  0.00  0.00    +0.000 A 
ATOM      7  C   UNL     1       2.360   6.544  18.509  0.00  0.00    +0.000 C 
ATOM      8  C   UNL     1       2.365   5.202  19.192  0.00  0.00    +0.000 C 
ATOM      9  C   UNL     1       3.545   7.408  18.101  0.00  0.00    +0.000 C 
ATOM     10  O   UNL     1       2.814   8.443  17.285  0.00  0.00    +0.000 OA
ENDROOT
BRANCH   9  11
ATOM     11  C   UNL     1       4.783   6.677  17.616  0.00  0.00    +0.000 A 
ATOM     12  C   UNL     1       5.696   6.024  18.455  0.00  0.00    +0.000 A 
ATOM     13  C   UNL     1       6.736   5.245  17.906  0.00  0.00    +0.000 A 
ATOM     14  C   UNL     1       6.848   5.137  16.544  0.00  0.00    +0.000 A 
ATOM     15  C   UNL     1       5.947   5.767  15.701  0.00  0.00    +0.000 A 
ATOM     16  C   UNL     1       4.922   6.536  16.208  0.00  0.00    +0.000 A 
ATOM     17  O   UNL     1       6.186   5.517  14.389  0.00  0.00    +0.000 OA
ATOM     18  C   UNL     1       7.279   4.588  14.486  0.00  0.00    +0.000 C 
ATOM     19  O   UNL     1       7.741   4.392  15.844  0.00  0.00    +0.000 OA
ENDBRANCH   9  11
BRANCH   6  20
ATOM     20  O   UNL     1       1.133  10.092  21.784  0.00  0.00    +0.000 OA
ATOM     21  C   UNL     1       0.338   9.478  22.824  0.00  0.00    +0.000 C 
ENDBRANCH   6  20
BRANCH   1  22
ATOM     22  O   UNL     1      -0.774  10.834  19.625  0.00  0.00    +0.000 OA
BRANCH  22  23
ATOM     23  C   UNL     1      -1.776  10.545  18.613  0.00  0.00    +0.000 C 
BRANCH  23  25
ATOM     24  C   UNL     1      -3.917  11.575  17.679  0.00  0.00    +0.000 C 
ATOM     25  C   UNL     1      -2.908  11.548  18.538  0.00  0.00    +0.000 C 
ENDBRANCH  23  25
ENDBRANCH  22  23
ENDBRANCH   1  22
TORSDOF 5
ENDMDL
MODEL 5
REMARK VINA RESULT:      -7.1      0.879      1.628
REMARK  Name = 
REMARK  7 active torsions:
REMARK  status: ('A' for Active; 'I' for Inactive)
REMARK    1  A    between atoms: C_2  and  C_3
REMARK    2  A    between atoms: C_3  and  O_4
REMARK    3  A    between atoms: O_4  and  C_5
REMARK    4  A    between atoms: C_10  and  O_11
REMARK    5  A    between atoms: O_11  and  C_12
REMARK    6  A    between atoms: C_13  and  C_14
REMARK    7  A    between atoms: C_15  and  C_16
REMARK                            x       y       z     vdW  Elec       q    Type
REMARK                         _______ _______ _______ _____ _____    ______ ____
ROOT
ATOM      1  C   UNL     1       4.208   4.759  17.209  0.00  0.00    +0.000 A 
ATOM      2  C   UNL     1       4.484   6.127  17.173  0.00  0.00    +0.000 A 
ATOM      3  C   UNL     1       3.587   6.928  17.846  0.00  0.00    +0.000 A 
ATOM      4  C   UNL     1       2.765   6.377  18.818  0.00  0.00    +0.000 A 
ATOM      5  C   UNL     1       2.236   5.134  18.531  0.00  0.00    +0.000 A 
ATOM      6  C   UNL     1       2.910   4.376  17.577  0.00  0.00    +0.000 A 
ATOM      7  C   UNL     1       2.303   7.555  19.607  0.00  0.00    +0.000 C 
ATOM      8  C   UNL     1       1.533   7.372  20.889  0.00  0.00    +0.000 C 
ATOM      9  C   UNL     1       1.875   8.273  18.335  0.00  0.00    +0.000 C 
ATOM     10  O   UNL     1       3.192   8.263  17.604  0.00  0.00    +0.000 OA
ENDROOT
BRANCH   9  11
ATOM     11  C   UNL     1       1.022   9.515  18.511  0.00  0.00    +0.000 A 
ATOM     12  C   UNL     1       1.534  10.803  18.725  0.00  0.00    +0.000 A 
ATOM     13  C   UNL     1       0.672  11.920  18.730  0.00  0.00    +0.000 A 
ATOM     14  C   UNL     1      -0.671  11.734  18.528  0.00  0.00    +0.000 A 
ATOM     15  C   UNL     1      -1.191  10.469  18.303  0.00  0.00    +0.000 A 
ATOM     16  C   UNL     1      -0.374   9.359  18.295  0.00  0.00    +0.000 A 
ATOM     17  O   UNL     1      -2.529  10.479  18.084  0.00  0.00    +0.000 OA
ATOM     18  C   UNL     1      -2.796  11.892  18.101  0.00  0.00    +0.000 C 
ATOM     19  O   UNL     1      -1.634  12.686  18.442  0.00  0.00    +0.000 OA
ENDBRANCH   9  11
BRANCH   6  20
ATOM     20  O   UNL     1       2.262   3.306  17.005  0.00  0.00    +0.000 OA
ATOM     21  C   UNL     1       2.223   2.163  17.888  0.00  0.00    +0.000 C 
ENDBRANCH   6  20
BRANCH   1  22
ATOM     22  O   UNL     1       5.187   3.836  16.901  0.00  0.00    +0.000 OA
BRANCH  22  23
ATOM     23  C   UNL     1       6.210   4.408  16.042  0.00  0.00    +0.000 C 
BRANCH  23  25
ATOM     24  C   UNL     1       5.618   4.062  13.583  0.00  0.00    +0.000 C 
ATOM     25  C   UNL     1       6.316   3.771  14.672  0.00  0.00    +0.000 C 
ENDBRANCH  23  25
ENDBRANCH  22  23
ENDBRANCH   1  22
TORSDOF 5
ENDMDL
MODEL 6
REMARK VINA RESULT:      -7.1      1.796      8.023
REMARK  Name = 
REMARK  7 active torsions:
REMARK  status: ('A' for Active; 'I' for Inactive)
REMARK    1  A    between atoms: C_2  and  C_3
REMARK    2  A    between atoms: C_3  and  O_4
REMARK    3  A    between atoms: O_4  and  C_5
REMARK    4  A    between atoms: C_10  and  O_11
REMARK    5  A    between atoms: O_11  and  C_12
REMARK    6  A    between atoms: C_13  and  C_14
REMARK    7  A    between atoms: C_15  and  C_16
REMARK                            x       y       z     vdW  Elec       q    Type
REMARK                         _______ _______ _______ _____ _____    ______ ____
ROOT
ATOM      1  C   UNL     1       0.418  10.018  19.614  0.00  0.00    +0.000 A 
ATOM      2  C   UNL     1       0.940   9.781  18.341  0.00  0.00    +0.000 A 
ATOM      3  C   UNL     1       1.764   8.681  18.237  0.00  0.00    +0.000 A 
ATOM      4  C   UNL     1       1.705   7.682  19.198  0.00  0.00    +0.000 A 
ATOM      5  C   UNL     1       1.568   8.106  20.505  0.00  0.00    +0.000 A 
ATOM      6  C   UNL     1       1.048   9.383  20.694  0.00  0.00    +0.000 A 
ATOM      7  C   UNL     1       2.352   6.512  18.539  0.00  0.00    +0.000 C 
ATOM      8  C   UNL     1       2.322   5.149  19.180  0.00  0.00    +0.000 C 
ATOM      9  C   UNL     1       3.559   7.358  18.160  0.00  0.00    +0.000 C 
ATOM     10  O   UNL     1       2.855   8.435  17.375  0.00  0.00    +0.000 OA
ENDROOT
BRANCH   9  11
ATOM     11  C   UNL     1       4.779   6.612  17.654  0.00  0.00    +0.000 A 
ATOM     12  C   UNL     1       5.665   5.898  18.472  0.00  0.00    +0.000 A 
ATOM     13  C   UNL     1       6.688   5.112  17.899  0.00  0.00    +0.000 A 
ATOM     14  C   UNL     1       6.809   5.057  16.535  0.00  0.00    +0.000 A 
ATOM     15  C   UNL     1       5.933   5.747  15.712  0.00  0.00    +0.000 A 
ATOM     16  C   UNL     1       4.927   6.525  16.243  0.00  0.00    +0.000 A 
ATOM     17  O   UNL     1       6.177   5.546  14.393  0.00  0.00    +0.000 OA
ATOM     18  C   UNL     1       7.242   4.582  14.459  0.00  0.00    +0.000 C 
ATOM     19  O   UNL     1       7.686   4.316  15.812  0.00  0.00    +0.000 OA
ENDBRANCH   9  11
BRANCH   6  20
ATOM     20  O   UNL     1       1.205   9.986  21.920  0.00  0.00    +0.000 OA
ATOM     21  C   UNL     1       0.276   9.471  22.900  0.00  0.00    +0.000 C 
ENDBRANCH   6  20
BRANCH   1  22
ATOM     22  O   UNL     1      -0.677  10.841  19.782  0.00  0.00    +0.000 OA
BRANCH  22  23
ATOM     23  C   UNL     1      -1.101  11.432  18.524  0.00  0.00    +0.000 C 
BRANCH  23  25
ATOM     24  C   UNL     1      -0.156  13.694  19.240  0.00  0.00    +0.000 C 
ATOM     25  C   UNL     1      -0.780  12.905  18.377  0.00  0.00    +0.000 C 
ENDBRANCH  23  25
ENDBRANCH  22  23
ENDBRANCH   1  22
TORSDOF 5
ENDMDL
MODEL 7
REMARK VINA RESULT:      -7.0      2.369      8.465
REMARK  Name = 
REMARK  7 active torsions:
REMARK  status: ('A' for Active; 'I' for Inactive)
REMARK    1  A    between atoms: C_2  and  C_3
REMARK    2  A    between atoms: C_3  and  O_4
REMARK    3  A    between atoms: O_4  and  C_5
REMARK    4  A    between atoms: C_10  and  O_11
REMARK    5  A    between atoms: O_11  and  C_12
REMARK    6  A    between atoms: C_13  and  C_14
REMARK    7  A    between atoms: C_15  and  C_16
REMARK                            x       y       z     vdW  Elec       q    Type
REMARK                         _______ _______ _______ _____ _____    ______ ____
ROOT
ATOM      1  C   UNL     1       0.580  10.356  19.771  0.00  0.00    +0.000 A 
ATOM      2  C   UNL     1       1.054   9.360  20.626  0.00  0.00    +0.000 A 
ATOM      3  C   UNL     1       1.654   8.286  20.006  0.00  0.00    +0.000 A 
ATOM      4  C   UNL     1       2.125   8.415  18.708  0.00  0.00    +0.000 A 
ATOM      5  C   UNL     1       1.325   9.133  17.841  0.00  0.00    +0.000 A 
ATOM      6  C   UNL     1       0.419  10.018  18.419  0.00  0.00    +0.000 A 
ATOM      7  C   UNL     1       3.073   7.274  18.555  0.00  0.00    +0.000 C 
ATOM      8  C   UNL     1       3.955   7.160  17.339  0.00  0.00    +0.000 C 
ATOM      9  C   UNL     1       2.023   6.297  19.064  0.00  0.00    +0.000 C 
ATOM     10  O   UNL     1       1.738   6.932  20.400  0.00  0.00    +0.000 OA
ENDROOT
BRANCH   9  11
ATOM     11  C   UNL     1       2.324   4.822  18.882  0.00  0.00    +0.000 A 
ATOM     12  C   UNL     1       1.823   4.034  17.837  0.00  0.00    +0.000 A 
ATOM     13  C   UNL     1       2.275   2.709  17.663  0.00  0.00    +0.000 A 
ATOM     14  C   UNL     1       3.205   2.197  18.529  0.00  0.00    +0.000 A 
ATOM     15  C   UNL     1       3.720   2.966  19.561  0.00  0.00    +0.000 A 
ATOM     16  C   UNL     1       3.296   4.263  19.756  0.00  0.00    +0.000 A 
ATOM     17  O   UNL     1       4.657   2.312  20.292  0.00  0.00    +0.000 OA
ATOM     18  C   UNL     1       4.754   1.076  19.563  0.00  0.00    +0.000 C 
ATOM     19  O   UNL     1       3.794   0.975  18.484  0.00  0.00    +0.000 OA
ENDBRANCH   9  11
BRANCH   6  20
ATOM     20  O   UNL     1      -0.620  10.495  17.654  0.00  0.00    +0.000 OA
ATOM     21  C   UNL     1      -1.840   9.751  17.875  0.00  0.00    +0.000 C 
ENDBRANCH   6  20
BRANCH   1  22
ATOM     22  O   UNL     1       0.295  11.618  20.251  0.00  0.00    +0.000 OA
BRANCH  22  23
ATOM     23  C   UNL     1      -1.004  11.663  20.902  0.00  0.00    +0.000 C 
BRANCH  23  25
ATOM     24  C   UNL     1      -1.878  11.558  23.298  0.00  0.00    +0.000 C 
ATOM     25  C   UNL     1      -0.955  11.874  22.401  0.00  0.00    +0.000 C 
ENDBRANCH  23  25
ENDBRANCH  22  23
ENDBRANCH   1  22
TORSDOF 5
ENDMDL
MODEL 8
REMARK VINA RESULT:      -6.8      1.792      2.485
REMARK  Name = 
REMARK  7 active torsions:
REMARK  status: ('A' for Active; 'I' for Inactive)
REMARK    1  A    between atoms: C_2  and  C_3
REMARK    2  A    between atoms: C_3  and  O_4
REMARK    3  A    between atoms: O_4  and  C_5
REMARK    4  A    between atoms: C_10  and  O_11
REMARK    5  A    between atoms: O_11  and  C_12
REMARK    6  A    between atoms: C_13  and  C_14
REMARK    7  A    between atoms: C_15  and  C_16
REMARK                            x       y       z     vdW  Elec       q    Type
REMARK                         _______ _______ _______ _____ _____    ______ ____
ROOT
ATOM      1  C   UNL     1       4.344   5.856  17.307  0.00  0.00    +0.000 A 
ATOM      2  C   UNL     1       4.218   7.230  17.095  0.00  0.00    +0.000 A 
ATOM      3  C   UNL     1       3.177   7.837  17.764  0.00  0.00    +0.000 A 
ATOM      4  C   UNL     1       2.612   7.216  18.868  0.00  0.00    +0.000 A 
ATOM      5  C   UNL     1       2.440   5.849  18.772  0.00  0.00    +0.000 A 
ATOM      6  C   UNL     1       3.236   5.185  17.843  0.00  0.00    +0.000 A 
ATOM      7  C   UNL     1       1.888   8.316  19.567  0.00  0.00    +0.000 C 
ATOM      8  C   UNL     1       1.289   8.102  20.932  0.00  0.00    +0.000 C 
ATOM      9  C   UNL     1       1.190   8.715  18.274  0.00  0.00    +0.000 C 
ATOM     10  O   UNL     1       2.405   8.968  17.419  0.00  0.00    +0.000 OA
ENDROOT
BRANCH   9  11
ATOM     11  C   UNL     1       0.034   9.689  18.400  0.00  0.00    +0.000 A 
ATOM     12  C   UNL     1       0.095  10.905  19.094  0.00  0.00    +0.000 A 
ATOM     13  C   UNL     1      -0.982  11.815  19.033  0.00  0.00    +0.000 A 
ATOM     14  C   UNL     1      -2.090  11.496  18.292  0.00  0.00    +0.000 A 
ATOM     15  C   UNL     1      -2.161  10.303  17.590  0.00  0.00    +0.000 A 
ATOM     16  C   UNL     1      -1.126   9.394  17.633  0.00  0.00    +0.000 A 
ATOM     17  O   UNL     1      -3.311  10.174  16.883  0.00  0.00    +0.000 OA
ATOM     18  C   UNL     1      -3.927  11.449  17.132  0.00  0.00    +0.000 C 
ATOM     19  O   UNL     1      -3.187  12.264  18.072  0.00  0.00    +0.000 OA
ENDBRANCH   9  11
BRANCH   6  20
ATOM     20  O   UNL     1       2.882   3.913  17.459  0.00  0.00    +0.000 OA
ATOM     21  C   UNL     1       3.234   2.928  18.457  0.00  0.00    +0.000 C 
ENDBRANCH   6  20
BRANCH   1  22
ATOM     22  O   UNL     1       5.522   5.204  17.004  0.00  0.00    +0.000 OA
BRANCH  22  23
ATOM     23  C   UNL     1       6.324   4.964  18.193  0.00  0.00    +0.000 C 
BRANCH  23  25
ATOM     24  C   UNL     1       7.717   7.076  17.848  0.00  0.00    +0.000 C 
ATOM     25  C   UNL     1       7.545   5.850  18.322  0.00  0.00    +0.000 C 
ENDBRANCH  23  25
ENDBRANCH  22  23
ENDBRANCH   1  22
TORSDOF 5
ENDMDL
MODEL 9
REMARK VINA RESULT:      -6.7      1.456      1.978
REMARK  Name = 
REMARK  7 active torsions:
REMARK  status: ('A' for Active; 'I' for Inactive)
REMARK    1  A    between atoms: C_2  and  C_3
REMARK    2  A    between atoms: C_3  and  O_4
REMARK    3  A    between atoms: O_4  and  C_5
REMARK    4  A    between atoms: C_10  and  O_11
REMARK    5  A    between atoms: O_11  and  C_12
REMARK    6  A    between atoms: C_13  and  C_14
REMARK    7  A    between atoms: C_15  and  C_16
REMARK                            x       y       z     vdW  Elec       q    Type
REMARK                         _______ _______ _______ _____ _____    ______ ____
ROOT
ATOM      1  C   UNL     1       3.569   4.804  17.704  0.00  0.00    +0.000 A 
ATOM      2  C   UNL     1       4.006   6.116  17.515  0.00  0.00    +0.000 A 
ATOM      3  C   UNL     1       3.200   7.092  18.063  0.00  0.00    +0.000 A 
ATOM      4  C   UNL     1       2.306   6.760  19.070  0.00  0.00    +0.000 A 
ATOM      5  C   UNL     1       1.638   5.562  18.917  0.00  0.00    +0.000 A 
ATOM      6  C   UNL     1       2.230   4.621  18.079  0.00  0.00    +0.000 A 
ATOM      7  C   UNL     1       1.975   8.070  19.702  0.00  0.00    +0.000 C 
ATOM      8  C   UNL     1       1.172   8.134  20.974  0.00  0.00    +0.000 C 
ATOM      9  C   UNL     1       1.653   8.675  18.342  0.00  0.00    +0.000 C 
ATOM     10  O   UNL     1       2.970   8.423  17.654  0.00  0.00    +0.000 OA
ENDROOT
BRANCH   9  11
ATOM     11  C   UNL     1       0.952  10.019  18.347  0.00  0.00    +0.000 A 
ATOM     12  C   UNL     1      -0.440  10.186  18.341  0.00  0.00    +0.000 A 
ATOM     13  C   UNL     1      -1.005  11.470  18.497  0.00  0.00    +0.000 A 
ATOM     14  C   UNL     1      -0.179  12.553  18.649  0.00  0.00    +0.000 A 
ATOM     15  C   UNL     1       1.199  12.404  18.669  0.00  0.00    +0.000 A 
ATOM     16  C   UNL     1       1.778  11.163  18.517  0.00  0.00    +0.000 A 
ATOM     17  O   UNL     1       1.854  13.575  18.868  0.00  0.00    +0.000 OA
ATOM     18  C   UNL     1       0.749  14.473  19.065  0.00  0.00    +0.000 C 
ATOM     19  O   UNL     1      -0.539  13.843  18.867  0.00  0.00    +0.000 OA
ENDBRANCH   9  11
BRANCH   6  20
ATOM     20  O   UNL     1       1.468   3.573  17.619  0.00  0.00    +0.000 OA
ATOM     21  C   UNL     1       0.827   2.856  18.698  0.00  0.00    +0.000 C 
ENDBRANCH   6  20
BRANCH   1  22
ATOM     22  O   UNL     1       4.436   3.744  17.534  0.00  0.00    +0.000 OA
BRANCH  22  23
ATOM     23  C   UNL     1       5.109   3.398  18.775  0.00  0.00    +0.000 C 
BRANCH  23  25
ATOM     24  C   UNL     1       3.751   2.508  20.745  0.00  0.00    +0.000 C 
ATOM     25  C   UNL     1       4.406   2.344  19.605  0.00  0.00    +0.000 C 
ENDBRANCH  23  25
ENDBRANCH  22  23
ENDBRANCH   1  22
TORSDOF 5
ENDMDL
