MODEL 1
REMARK VINA RESULT:      -8.0      0.000      0.000
REMARK  Name = 
REMARK  17 active torsions:
REMARK  status: ('A' for Active; 'I' for Inactive)
REMARK    1  A    between atoms: C_1  and  O_2
REMARK    2  A    between atoms: O_2  and  C_3
REMARK    3  A    between atoms: C_5  and  C_6
REMARK    4  A    between atoms: C_7  and  C_8
REMARK    5  A    between atoms: C_8  and  O_10
REMARK    6  A    between atoms: O_10  and  C_11
REMARK    7  A    between atoms: C_11  and  C_12
REMARK    8  A    between atoms: C_14  and  O_15
REMARK    9  A    between atoms: O_15  and  C_16
REMARK   10  A    between atoms: C_19  and  C_20
REMARK   11  A    between atoms: C_20  and  O_21
REMARK   12  A    between atoms: C_23  and  O_24
REMARK   13  A    between atoms: O_24  and  C_25
REMARK   14  A    between atoms: C_26  and  O_27
REMARK   15  A    between atoms: C_28  and  O_29
REMARK   16  A    between atoms: C_30  and  O_31
REMARK   17  A    between atoms: C_34  and  O_35
REMARK                            x       y       z     vdW  Elec       q    Type
REMARK                         _______ _______ _______ _____ _____    ______ ____
ROOT
ATOM      1  C   UNL     1       6.303   5.267  18.487  0.00  0.00    +0.000 C 
ATOM      2  O   UNL     1       5.079   5.947  18.223  0.00  0.00    +0.000 OA
ATOM      3  C   UNL     1       4.020   5.009  18.046  0.00  0.00    +0.000 C 
ATOM      4  C   UNL     1       4.286   4.120  16.802  0.00  0.00    +0.000 C 
ATOM      5  C   UNL     1       5.739   3.587  16.782  0.00  0.00    +0.000 C 
ATOM      6  C   UNL     1       6.779   4.671  17.159  0.00  0.00    +0.000 C 
ENDROOT
BRANCH   4   7
ATOM      7  O   UNL     1       3.372   3.005  16.754  0.00  0.00    +0.000 OA
ATOM      8  H   UNL     1       2.655   3.154  17.398  0.00  0.00    +0.000 HD
ENDBRANCH   4   7
BRANCH   5   9
ATOM      9  O   UNL     1       6.099   2.990  15.529  0.00  0.00    +0.000 OA
ATOM     10  H   UNL     1       5.970   3.643  14.819  0.00  0.00    +0.000 HD
ENDBRANCH   5   9
BRANCH   6  11
ATOM     11  O   UNL     1       8.088   4.115  17.275  0.00  0.00    +0.000 OA
ATOM     12  H   UNL     1       8.449   3.992  16.379  0.00  0.00    +0.000 HD
ENDBRANCH   6  11
BRANCH   1  13
ATOM     13  C   UNL     1       7.246   6.206  19.242  0.00  0.00    +0.000 C 
BRANCH  13  14
ATOM     14  O   UNL     1       8.232   6.825  18.407  0.00  0.00    +0.000 OA
BRANCH  14  15
ATOM     15  C   UNL     1       7.875   7.978  17.797  0.00  0.00    +0.000 C 
ATOM     16  O   UNL     1       7.071   8.113  16.884  0.00  0.00    +0.000 OA
BRANCH  15  18
ATOM     17  C   UNL     1       8.782  10.284  17.926  0.00  0.00    +0.000 C 
ATOM     18  C   UNL     1       8.604   9.073  18.483  0.00  0.00    +0.000 C 
BRANCH  17  21
ATOM     19  C   UNL     1      10.191  13.748  18.579  0.00  0.00    +0.000 A 
ATOM     20  C   UNL     1       9.508  12.663  17.998  0.00  0.00    +0.000 A 
ATOM     21  C   UNL     1       9.509  11.388  18.583  0.00  0.00    +0.000 A 
ATOM     22  C   UNL     1      10.178  11.222  19.800  0.00  0.00    +0.000 A 
ATOM     23  C   UNL     1      10.863  12.288  20.391  0.00  0.00    +0.000 A 
ATOM     24  C   UNL     1      10.877  13.544  19.781  0.00  0.00    +0.000 A 
BRANCH  19  26
ATOM     25  C   UNL     1      11.235  15.358  17.143  0.00  0.00    +0.000 C 
ATOM     26  O   UNL     1      10.087  14.904  17.850  0.00  0.00    +0.000 OA
ENDBRANCH  19  26
BRANCH  24  27
ATOM     27  O   UNL     1      11.572  14.549  20.393  0.00  0.00    +0.000 OA
ATOM     28  H   UNL     1      11.280  15.404  20.040  0.00  0.00    +0.000 HD
ENDBRANCH  24  27
ENDBRANCH  17  21
ENDBRANCH  15  18
ENDBRANCH  14  15
ENDBRANCH  13  14
ENDBRANCH   1  13
BRANCH   3  29
ATOM     29  O   UNL     1       2.771   5.671  17.872  0.00  0.00    +0.000 OA
BRANCH  29  30
ATOM     30  C   UNL     1       2.365   6.590  18.803  0.00  0.00    +0.000 A 
ATOM     31  C   UNL     1       2.243   7.961  18.536  0.00  0.00    +0.000 A 
ATOM     32  C   UNL     1       1.735   8.847  19.490  0.00  0.00    +0.000 A 
ATOM     33  C   UNL     1       1.355   8.383  20.749  0.00  0.00    +0.000 A 
ATOM     34  C   UNL     1       1.531   7.024  21.041  0.00  0.00    +0.000 A 
ATOM     35  C   UNL     1       2.030   6.121  20.084  0.00  0.00    +0.000 A 
BRANCH  35  36
ATOM     36  O   UNL     1       2.113   4.838  20.564  0.00  0.00    +0.000 OA
ATOM     37  C   UNL     1       0.999   3.970  20.405  0.00  0.00    +0.000 C 
ENDBRANCH  35  36
BRANCH  33  38
ATOM     38  C   UNL     1       0.733   9.327  21.735  0.00  0.00    +0.000 C 
BRANCH  38  39
ATOM     39  O   UNL     1       1.133  10.664  21.493  0.00  0.00    +0.000 OA
ATOM     40  H   UNL     1       1.761  10.636  20.752  0.00  0.00    +0.000 HD
ENDBRANCH  38  39
ENDBRANCH  33  38
ENDBRANCH  29  30
ENDBRANCH   3  29
TORSDOF 15
ENDMDL
MODEL 2
REMARK VINA RESULT:      -7.8      1.885      3.030
REMARK  Name = 
REMARK  17 active torsions:
REMARK  status: ('A' for Active; 'I' for Inactive)
REMARK    1  A    between atoms: C_1  and  O_2
REMARK    2  A    between atoms: O_2  and  C_3
REMARK    3  A    between atoms: C_5  and  C_6
REMARK    4  A    between atoms: C_7  and  C_8
REMARK    5  A    between atoms: C_8  and  O_10
REMARK    6  A    between atoms: O_10  and  C_11
REMARK    7  A    between atoms: C_11  and  C_12
REMARK    8  A    between atoms: C_14  and  O_15
REMARK    9  A    between atoms: O_15  and  C_16
REMARK   10  A    between atoms: C_19  and  C_20
REMARK   11  A    between atoms: C_20  and  O_21
REMARK   12  A    between atoms: C_23  and  O_24
REMARK   13  A    between atoms: O_24  and  C_25
REMARK   14  A    between atoms: C_26  and  O_27
REMARK   15  A    between atoms: C_28  and  O_29
REMARK   16  A    between atoms: C_30  and  O_31
REMARK   17  A    between atoms: C_34  and  O_35
REMARK                            x       y       z     vdW  Elec       q    Type
REMARK                         _______ _______ _______ _____ _____    ______ ____
ROOT
ATOM      1  C   UNL     1       5.017   5.980  18.100  0.00  0.00    +0.000 C 
ATOM      2  O   UNL     1       3.762   6.565  17.762  0.00  0.00    +0.000 OA
ATOM      3  C   UNL     1       2.993   6.796  18.941  0.00  0.00    +0.000 C 
ATOM      4  C   UNL     1       2.658   5.453  19.642  0.00  0.00    +0.000 C 
ATOM      5  C   UNL     1       3.905   4.543  19.757  0.00  0.00    +0.000 C 
ATOM      6  C   UNL     1       4.746   4.515  18.457  0.00  0.00    +0.000 C 
ENDROOT
BRANCH   4   7
ATOM      7  O   UNL     1       2.112   5.675  20.959  0.00  0.00    +0.000 OA
ATOM      8  H   UNL     1       2.842   5.861  21.579  0.00  0.00    +0.000 HD
ENDBRANCH   4   7
BRANCH   5   9
ATOM      9  O   UNL     1       3.585   3.203  20.152  0.00  0.00    +0.000 OA
ATOM     10  H   UNL     1       3.250   3.214  21.066  0.00  0.00    +0.000 HD
ENDBRANCH   5   9
BRANCH   6  11
ATOM     11  O   UNL     1       5.961   3.789  18.641  0.00  0.00    +0.000 OA
ATOM     12  H   UNL     1       5.767   2.840  18.544  0.00  0.00    +0.000 HD
ENDBRANCH   6  11
BRANCH   1  13
ATOM     13  C   UNL     1       6.025   6.283  16.988  0.00  0.00    +0.000 C 
BRANCH  13  14
ATOM     14  O   UNL     1       6.574   7.604  17.055  0.00  0.00    +0.000 OA
BRANCH  14  15
ATOM     15  C   UNL     1       7.649   7.777  17.858  0.00  0.00    +0.000 C 
ATOM     16  O   UNL     1       8.141   6.955  18.620  0.00  0.00    +0.000 OA
BRANCH  15  18
ATOM     17  C   UNL     1       8.963   9.791  18.471  0.00  0.00    +0.000 C 
ATOM     18  C   UNL     1       8.164   9.144  17.602  0.00  0.00    +0.000 C 
BRANCH  17  21
ATOM     19  C   UNL     1       9.029  13.546  17.918  0.00  0.00    +0.000 A 
ATOM     20  C   UNL     1       8.587  12.228  18.142  0.00  0.00    +0.000 A 
ATOM     21  C   UNL     1       9.483  11.153  18.244  0.00  0.00    +0.000 A 
ATOM     22  C   UNL     1      10.852  11.427  18.162  0.00  0.00    +0.000 A 
ATOM     23  C   UNL     1      11.309  12.729  17.938  0.00  0.00    +0.000 A 
ATOM     24  C   UNL     1      10.403  13.784  17.810  0.00  0.00    +0.000 A 
BRANCH  19  26
ATOM     25  C   UNL     1       7.354  14.847  19.032  0.00  0.00    +0.000 C 
ATOM     26  O   UNL     1       8.004  14.452  17.830  0.00  0.00    +0.000 OA
ENDBRANCH  19  26
BRANCH  24  27
ATOM     27  O   UNL     1      10.901  15.035  17.580  0.00  0.00    +0.000 OA
ATOM     28  H   UNL     1      10.367  15.474  16.898  0.00  0.00    +0.000 HD
ENDBRANCH  24  27
ENDBRANCH  17  21
ENDBRANCH  15  18
ENDBRANCH  14  15
ENDBRANCH  13  14
ENDBRANCH   1  13
BRANCH   3  29
ATOM     29  O   UNL     1       1.772   7.465  18.634  0.00  0.00    +0.000 OA
BRANCH  29  30
ATOM     30  C   UNL     1       1.717   8.830  18.723  0.00  0.00    +0.000 A 
ATOM     31  C   UNL     1       2.241   9.691  17.747  0.00  0.00    +0.000 A 
ATOM     32  C   UNL     1       2.078  11.076  17.833  0.00  0.00    +0.000 A 
ATOM     33  C   UNL     1       1.402  11.638  18.915  0.00  0.00    +0.000 A 
ATOM     34  C   UNL     1       0.928  10.787  19.922  0.00  0.00    +0.000 A 
ATOM     35  C   UNL     1       1.076   9.390  19.839  0.00  0.00    +0.000 A 
BRANCH  35  36
ATOM     36  O   UNL     1       0.533   8.738  20.919  0.00  0.00    +0.000 OA
ATOM     37  C   UNL     1       1.159   8.869  22.188  0.00  0.00    +0.000 C 
ENDBRANCH  35  36
BRANCH  33  38
ATOM     38  C   UNL     1       1.159  13.118  18.955  0.00  0.00    +0.000 C 
BRANCH  38  39
ATOM     39  O   UNL     1       2.182  13.828  18.279  0.00  0.00    +0.000 OA
ATOM     40  H   UNL     1       1.929  13.852  17.341  0.00  0.00    +0.000 HD
ENDBRANCH  38  39
ENDBRANCH  33  38
ENDBRANCH  29  30
ENDBRANCH   3  29
TORSDOF 15
ENDMDL
MODEL 3
REMARK VINA RESULT:      -7.6      1.992      3.443
REMARK  Name = 
REMARK  17 active torsions:
REMARK  status: ('A' for Active; 'I' for Inactive)
REMARK    1  A    between atoms: C_1  and  O_2
REMARK    2  A    between atoms: O_2  and  C_3
REMARK    3  A    between atoms: C_5  and  C_6
REMARK    4  A    between atoms: C_7  and  C_8
REMARK    5  A    between atoms: C_8  and  O_10
REMARK    6  A    between atoms: O_10  and  C_11
REMARK    7  A    between atoms: C_11  and  C_12
REMARK    8  A    between atoms: C_14  and  O_15
REMARK    9  A    between atoms: O_15  and  C_16
REMARK   10  A    between atoms: C_19  and  C_20
REMARK   11  A    between atoms: C_20  and  O_21
REMARK   12  A    between atoms: C_23  and  O_24
REMARK   13  A    between atoms: O_24  and  C_25
REMARK   14  A    between atoms: C_26  and  O_27
REMARK   15  A    between atoms: C_28  and  O_29
REMARK   16  A    between atoms: C_30  and  O_31
REMARK   17  A    between atoms: C_34  and  O_35
REMARK                            x       y       z     vdW  Elec       q    Type
REMARK                         _______ _______ _______ _____ _____    ______ ____
ROOT
ATOM      1  C   UNL     1       4.588   6.514  17.889  0.00  0.00    +0.000 C 
ATOM      2  O   UNL     1       3.352   7.162  17.601  0.00  0.00    +0.000 OA
ATOM      3  C   UNL     1       2.648   7.441  18.809  0.00  0.00    +0.000 C 
ATOM      4  C   UNL     1       2.275   6.121  19.536  0.00  0.00    +0.000 C 
ATOM      5  C   UNL     1       3.476   5.149  19.605  0.00  0.00    +0.000 C 
ATOM      6  C   UNL     1       4.258   5.068  18.270  0.00  0.00    +0.000 C 
ENDROOT
BRANCH   4   7
ATOM      7  O   UNL     1       1.798   6.380  20.873  0.00  0.00    +0.000 OA
ATOM      8  H   UNL     1       0.977   5.874  21.021  0.00  0.00    +0.000 HD
ENDBRANCH   4   7
BRANCH   5   9
ATOM      9  O   UNL     1       3.105   3.829  20.025  0.00  0.00    +0.000 OA
ATOM     10  H   UNL     1       2.364   3.519  19.475  0.00  0.00    +0.000 HD
ENDBRANCH   5   9
BRANCH   6  11
ATOM     11  O   UNL     1       5.440   4.281  18.409  0.00  0.00    +0.000 OA
ATOM     12  H   UNL     1       5.241   3.376  18.111  0.00  0.00    +0.000 HD
ENDBRANCH   6  11
BRANCH   1  13
ATOM     13  C   UNL     1       5.562   6.757  16.733  0.00  0.00    +0.000 C 
BRANCH  13  14
ATOM     14  O   UNL     1       6.701   7.547  17.097  0.00  0.00    +0.000 OA
BRANCH  14  15
ATOM     15  C   UNL     1       7.633   6.948  17.872  0.00  0.00    +0.000 C 
ATOM     16  O   UNL     1       7.744   5.751  18.103  0.00  0.00    +0.000 OA
BRANCH  15  18
ATOM     17  C   UNL     1       8.292   9.323  18.163  0.00  0.00    +0.000 C 
ATOM     18  C   UNL     1       8.544   8.015  18.354  0.00  0.00    +0.000 C 
BRANCH  17  21
ATOM     19  C   UNL     1       9.911  11.894  20.438  0.00  0.00    +0.000 A 
ATOM     20  C   UNL     1       9.090  10.861  19.949  0.00  0.00    +0.000 A 
ATOM     21  C   UNL     1       9.185  10.403  18.625  0.00  0.00    +0.000 A 
ATOM     22  C   UNL     1      10.158  10.974  17.799  0.00  0.00    +0.000 A 
ATOM     23  C   UNL     1      10.981  12.002  18.268  0.00  0.00    +0.000 A 
ATOM     24  C   UNL     1      10.855  12.466  19.579  0.00  0.00    +0.000 A 
BRANCH  19  26
ATOM     25  C   UNL     1       8.372  11.905  22.274  0.00  0.00    +0.000 C 
ATOM     26  O   UNL     1       9.657  12.211  21.747  0.00  0.00    +0.000 OA
ENDBRANCH  19  26
BRANCH  24  27
ATOM     27  O   UNL     1      11.675  13.481  19.984  0.00  0.00    +0.000 OA
ATOM     28  H   UNL     1      12.000  13.295  20.879  0.00  0.00    +0.000 HD
ENDBRANCH  24  27
ENDBRANCH  17  21
ENDBRANCH  15  18
ENDBRANCH  14  15
ENDBRANCH  13  14
ENDBRANCH   1  13
BRANCH   3  29
ATOM     29  O   UNL     1       1.451   8.170  18.549  0.00  0.00    +0.000 OA
BRANCH  29  30
ATOM     30  C   UNL     1       1.346   9.462  18.992  0.00  0.00    +0.000 A 
ATOM     31  C   UNL     1       1.827  10.567  18.276  0.00  0.00    +0.000 A 
ATOM     32  C   UNL     1       1.613  11.874  18.722  0.00  0.00    +0.000 A 
ATOM     33  C   UNL     1       0.927  12.107  19.914  0.00  0.00    +0.000 A 
ATOM     34  C   UNL     1       0.496  11.004  20.663  0.00  0.00    +0.000 A 
ATOM     35  C   UNL     1       0.695   9.684  20.217  0.00  0.00    +0.000 A 
BRANCH  35  36
ATOM     36  O   UNL     1       0.188   8.752  21.088  0.00  0.00    +0.000 OA
ATOM     37  C   UNL     1      -0.407   9.194  22.300  0.00  0.00    +0.000 C 
ENDBRANCH  35  36
BRANCH  33  38
ATOM     38  C   UNL     1       0.629  13.514  20.340  0.00  0.00    +0.000 C 
BRANCH  38  39
ATOM     39  O   UNL     1      -0.708  13.873  20.038  0.00  0.00    +0.000 OA
ATOM     40  H   UNL     1      -0.933  13.426  19.205  0.00  0.00    +0.000 HD
ENDBRANCH  38  39
ENDBRANCH  33  38
ENDBRANCH  29  30
ENDBRANCH   3  29
TORSDOF 15
ENDMDL
MODEL 4
REMARK VINA RESULT:      -7.5      1.709      2.673
REMARK  Name = 
REMARK  17 active torsions:
REMARK  status: ('A' for Active; 'I' for Inactive)
REMARK    1  A    between atoms: C_1  and  O_2
REMARK    2  A    between atoms: O_2  and  C_3
REMARK    3  A    between atoms: C_5  and  C_6
REMARK    4  A    between atoms: C_7  and  C_8
REMARK    5  A    between atoms: C_8  and  O_10
REMARK    6  A    between atoms: O_10  and  C_11
REMARK    7  A    between atoms: C_11  and  C_12
REMARK    8  A    between atoms: C_14  and  O_15
REMARK    9  A    between atoms: O_15  and  C_16
REMARK   10  A    between atoms: C_19  and  C_20
REMARK   11  A    between atoms: C_20  and  O_21
REMARK   12  A    between atoms: C_23  and  O_24
REMARK   13  A    between atoms: O_24  and  C_25
REMARK   14  A    between atoms: C_26  and  O_27
REMARK   15  A    between atoms: C_28  and  O_29
REMARK   16  A    between atoms: C_30  and  O_31
REMARK   17  A    between atoms: C_34  and  O_35
REMARK                            x       y       z     vdW  Elec       q    Type
REMARK                         _______ _______ _______ _____ _____    ______ ____
ROOT
ATOM      1  C   UNL     1       4.899   5.331  19.265  0.00  0.00    +0.000 C 
ATOM      2  O   UNL     1       3.946   6.079  18.515  0.00  0.00    +0.000 OA
ATOM      3  C   UNL     1       2.749   6.253  19.271  0.00  0.00    +0.000 C 
ATOM      4  C   UNL     1       2.082   4.881  19.552  0.00  0.00    +0.000 C 
ATOM      5  C   UNL     1       3.110   3.838  20.053  0.00  0.00    +0.000 C 
ATOM      6  C   UNL     1       4.435   3.871  19.250  0.00  0.00    +0.000 C 
ENDROOT
BRANCH   4   7
ATOM      7  O   UNL     1       1.024   5.006  20.526  0.00  0.00    +0.000 OA
ATOM      8  H   UNL     1       0.792   5.949  20.623  0.00  0.00    +0.000 HD
ENDBRANCH   4   7
BRANCH   5   9
ATOM      9  O   UNL     1       2.590   2.502  20.069  0.00  0.00    +0.000 OA
ATOM     10  H   UNL     1       3.328   1.877  20.182  0.00  0.00    +0.000 HD
ENDBRANCH   5   9
BRANCH   6  11
ATOM     11  O   UNL     1       5.412   3.006  19.826  0.00  0.00    +0.000 OA
ATOM     12  H   UNL     1       5.232   2.934  20.780  0.00  0.00    +0.000 HD
ENDBRANCH   6  11
BRANCH   1  13
ATOM     13  C   UNL     1       6.305   5.652  18.751  0.00  0.00    +0.000 C 
BRANCH  13  14
ATOM     14  O   UNL     1       6.370   6.848  17.965  0.00  0.00    +0.000 OA
BRANCH  14  15
ATOM     15  C   UNL     1       7.437   6.979  17.145  0.00  0.00    +0.000 C 
ATOM     16  O   UNL     1       7.625   6.406  16.080  0.00  0.00    +0.000 OA
BRANCH  15  18
ATOM     17  C   UNL     1       7.950   9.283  17.910  0.00  0.00    +0.000 C 
ATOM     18  C   UNL     1       8.325   8.001  17.751  0.00  0.00    +0.000 C 
BRANCH  17  21
ATOM     19  C   UNL     1       9.992  12.464  18.258  0.00  0.00    +0.000 A 
ATOM     20  C   UNL     1       9.164  11.449  17.744  0.00  0.00    +0.000 A 
ATOM     21  C   UNL     1       8.815  10.321  18.503  0.00  0.00    +0.000 A 
ATOM     22  C   UNL     1       9.281  10.243  19.820  0.00  0.00    +0.000 A 
ATOM     23  C   UNL     1      10.106  11.241  20.347  0.00  0.00    +0.000 A 
ATOM     24  C   UNL     1      10.467  12.343  19.569  0.00  0.00    +0.000 A 
BRANCH  19  26
ATOM     25  C   UNL     1      11.583  13.816  17.083  0.00  0.00    +0.000 C 
ATOM     26  O   UNL     1      10.232  13.472  17.361  0.00  0.00    +0.000 OA
ENDBRANCH  19  26
BRANCH  24  27
ATOM     27  O   UNL     1      11.286  13.284  20.127  0.00  0.00    +0.000 OA
ATOM     28  H   UNL     1      12.210  13.065  19.928  0.00  0.00    +0.000 HD
ENDBRANCH  24  27
ENDBRANCH  17  21
ENDBRANCH  15  18
ENDBRANCH  14  15
ENDBRANCH  13  14
ENDBRANCH   1  13
BRANCH   3  29
ATOM     29  O   UNL     1       1.818   7.076  18.574  0.00  0.00    +0.000 OA
BRANCH  29  30
ATOM     30  C   UNL     1       1.733   8.406  18.891  0.00  0.00    +0.000 A 
ATOM     31  C   UNL     1       2.197   9.432  18.054  0.00  0.00    +0.000 A 
ATOM     32  C   UNL     1       2.004  10.778  18.375  0.00  0.00    +0.000 A 
ATOM     33  C   UNL     1       1.359  11.132  19.560  0.00  0.00    +0.000 A 
ATOM     34  C   UNL     1       0.946  10.112  20.427  0.00  0.00    +0.000 A 
ATOM     35  C   UNL     1       1.124   8.754  20.107  0.00  0.00    +0.000 A 
BRANCH  35  36
ATOM     36  O   UNL     1       0.641   7.916  21.082  0.00  0.00    +0.000 OA
ATOM     37  C   UNL     1      -0.331   8.409  21.994  0.00  0.00    +0.000 C 
ENDBRANCH  35  36
BRANCH  33  38
ATOM     38  C   UNL     1       1.082  12.577  19.854  0.00  0.00    +0.000 C 
BRANCH  38  39
ATOM     39  O   UNL     1       1.744  13.000  21.033  0.00  0.00    +0.000 OA
ATOM     40  H   UNL     1       1.154  12.785  21.775  0.00  0.00    +0.000 HD
ENDBRANCH  38  39
ENDBRANCH  33  38
ENDBRANCH  29  30
ENDBRANCH   3  29
TORSDOF 15
ENDMDL
MODEL 5
REMARK VINA RESULT:      -7.5      4.043      8.698
REMARK  Name = 
REMARK  17 active torsions:
REMARK  status: ('A' for Active; 'I' for Inactive)
REMARK    1  A    between atoms: C_1  and  O_2
REMARK    2  A    between atoms: O_2  and  C_3
REMARK    3  A    between atoms: C_5  and  C_6
REMARK    4  A    between atoms: C_7  and  C_8
REMARK    5  A    between atoms: C_8  and  O_10
REMARK    6  A    between atoms: O_10  and  C_11
REMARK    7  A    between atoms: C_11  and  C_12
REMARK    8  A    between atoms: C_14  and  O_15
REMARK    9  A    between atoms: O_15  and  C_16
REMARK   10  A    between atoms: C_19  and  C_20
REMARK   11  A    between atoms: C_20  and  O_21
REMARK   12  A    between atoms: C_23  and  O_24
REMARK   13  A    between atoms: O_24  and  C_25
REMARK   14  A    between atoms: C_26  and  O_27
REMARK   15  A    between atoms: C_28  and  O_29
REMARK   16  A    between atoms: C_30  and  O_31
REMARK   17  A    between atoms: C_34  and  O_35
REMARK                            x       y       z     vdW  Elec       q    Type
REMARK                         _______ _______ _______ _____ _____    ______ ____
ROOT
ATOM      1  C   UNL     1       2.268   5.167  19.316  0.00  0.00    +0.000 C 
ATOM      2  O   UNL     1       3.691   5.126  19.245  0.00  0.00    +0.000 OA
ATOM      3  C   UNL     1       4.111   4.087  18.363  0.00  0.00    +0.000 C 
ATOM      4  C   UNL     1       3.675   2.702  18.912  0.00  0.00    +0.000 C 
ATOM      5  C   UNL     1       2.197   2.710  19.372  0.00  0.00    +0.000 C 
ATOM      6  C   UNL     1       1.829   3.980  20.178  0.00  0.00    +0.000 C 
ENDROOT
BRANCH   4   7
ATOM      7  O   UNL     1       3.856   1.668  17.921  0.00  0.00    +0.000 OA
ATOM      8  H   UNL     1       3.903   0.803  18.369  0.00  0.00    +0.000 HD
ENDBRANCH   4   7
BRANCH   5   9
ATOM      9  O   UNL     1       1.839   1.542  20.122  0.00  0.00    +0.000 OA
ATOM     10  H   UNL     1       2.078   1.681  21.056  0.00  0.00    +0.000 HD
ENDBRANCH   5   9
BRANCH   6  11
ATOM     11  O   UNL     1       0.431   4.027  20.460  0.00  0.00    +0.000 OA
ATOM     12  H   UNL     1       0.184   3.205  20.919  0.00  0.00    +0.000 HD
ENDBRANCH   6  11
BRANCH   1  13
ATOM     13  C   UNL     1       1.828   6.572  19.736  0.00  0.00    +0.000 C 
BRANCH  13  14
ATOM     14  O   UNL     1       2.699   7.610  19.269  0.00  0.00    +0.000 OA
BRANCH  14  15
ATOM     15  C   UNL     1       2.482   8.067  18.015  0.00  0.00    +0.000 C 
ATOM     16  O   UNL     1       3.239   7.985  17.057  0.00  0.00    +0.000 OA
BRANCH  15  18
ATOM     17  C   UNL     1       0.849   9.890  18.434  0.00  0.00    +0.000 C 
ATOM     18  C   UNL     1       1.115   8.645  17.996  0.00  0.00    +0.000 C 
BRANCH  17  21
ATOM     19  C   UNL     1      -2.098  12.063  19.430  0.00  0.00    +0.000 A 
ATOM     20  C   UNL     1      -0.824  11.469  19.381  0.00  0.00    +0.000 A 
ATOM     21  C   UNL     1      -0.501  10.485  18.433  0.00  0.00    +0.000 A 
ATOM     22  C   UNL     1      -1.473  10.132  17.493  0.00  0.00    +0.000 A 
ATOM     23  C   UNL     1      -2.745  10.711  17.527  0.00  0.00    +0.000 A 
ATOM     24  C   UNL     1      -3.060  11.668  18.495  0.00  0.00    +0.000 A 
BRANCH  19  26
ATOM     25  C   UNL     1      -1.523  14.217  20.308  0.00  0.00    +0.000 C 
ATOM     26  O   UNL     1      -2.225  12.987  20.435  0.00  0.00    +0.000 OA
ENDBRANCH  19  26
BRANCH  24  27
ATOM     27  O   UNL     1      -4.322  12.194  18.493  0.00  0.00    +0.000 OA
ATOM     28  H   UNL     1      -4.280  13.128  18.234  0.00  0.00    +0.000 HD
ENDBRANCH  24  27
ENDBRANCH  17  21
ENDBRANCH  15  18
ENDBRANCH  14  15
ENDBRANCH  13  14
ENDBRANCH   1  13
BRANCH   3  29
ATOM     29  O   UNL     1       5.527   4.087  18.206  0.00  0.00    +0.000 OA
BRANCH  29  30
ATOM     30  C   UNL     1       6.062   4.277  16.960  0.00  0.00    +0.000 A 
ATOM     31  C   UNL     1       5.652   3.561  15.825  0.00  0.00    +0.000 A 
ATOM     32  C   UNL     1       6.159   3.854  14.556  0.00  0.00    +0.000 A 
ATOM     33  C   UNL     1       7.110   4.861  14.395  0.00  0.00    +0.000 A 
ATOM     34  C   UNL     1       7.566   5.539  15.533  0.00  0.00    +0.000 A 
ATOM     35  C   UNL     1       7.054   5.260  16.813  0.00  0.00    +0.000 A 
BRANCH  35  36
ATOM     36  O   UNL     1       7.622   6.041  17.789  0.00  0.00    +0.000 OA
ATOM     37  C   UNL     1       7.605   7.454  17.637  0.00  0.00    +0.000 C 
ENDBRANCH  35  36
BRANCH  33  38
ATOM     38  C   UNL     1       7.585   5.224  13.019  0.00  0.00    +0.000 C 
BRANCH  38  39
ATOM     39  O   UNL     1       8.783   5.979  13.068  0.00  0.00    +0.000 OA
ATOM     40  H   UNL     1       9.512   5.349  12.946  0.00  0.00    +0.000 HD
ENDBRANCH  38  39
ENDBRANCH  33  38
ENDBRANCH  29  30
ENDBRANCH   3  29
TORSDOF 15
ENDMDL
MODEL 6
REMARK VINA RESULT:      -7.5      1.423      2.422
REMARK  Name = 
REMARK  17 active torsions:
REMARK  status: ('A' for Active; 'I' for Inactive)
REMARK    1  A    between atoms: C_1  and  O_2
REMARK    2  A    between atoms: O_2  and  C_3
REMARK    3  A    between atoms: C_5  and  C_6
REMARK    4  A    between atoms: C_7  and  C_8
REMARK    5  A    between atoms: C_8  and  O_10
REMARK    6  A    between atoms: O_10  and  C_11
REMARK    7  A    between atoms: C_11  and  C_12
REMARK    8  A    between atoms: C_14  and  O_15
REMARK    9  A    between atoms: O_15  and  C_16
REMARK   10  A    between atoms: C_19  and  C_20
REMARK   11  A    between atoms: C_20  and  O_21
REMARK   12  A    between atoms: C_23  and  O_24
REMARK   13  A    between atoms: O_24  and  C_25
REMARK   14  A    between atoms: C_26  and  O_27
REMARK   15  A    between atoms: C_28  and  O_29
REMARK   16  A    between atoms: C_30  and  O_31
REMARK   17  A    between atoms: C_34  and  O_35
REMARK                            x       y       z     vdW  Elec       q    Type
REMARK                         _______ _______ _______ _____ _____    ______ ____
ROOT
ATOM      1  C   UNL     1       5.118   4.548  18.592  0.00  0.00    +0.000 C 
ATOM      2  O   UNL     1       4.396   5.607  19.216  0.00  0.00    +0.000 OA
ATOM      3  C   UNL     1       3.248   5.093  19.887  0.00  0.00    +0.000 C 
ATOM      4  C   UNL     1       2.266   4.455  18.869  0.00  0.00    +0.000 C 
ATOM      5  C   UNL     1       3.000   3.525  17.873  0.00  0.00    +0.000 C 
ATOM      6  C   UNL     1       4.324   4.137  17.349  0.00  0.00    +0.000 C 
ENDROOT
BRANCH   4   7
ATOM      7  O   UNL     1       1.232   3.706  19.541  0.00  0.00    +0.000 OA
ATOM      8  H   UNL     1       1.575   3.391  20.399  0.00  0.00    +0.000 HD
ENDBRANCH   4   7
BRANCH   5   9
ATOM      9  O   UNL     1       2.180   3.132  16.765  0.00  0.00    +0.000 OA
ATOM     10  H   UNL     1       1.248   3.127  17.048  0.00  0.00    +0.000 HD
ENDBRANCH   5   9
BRANCH   6  11
ATOM     11  O   UNL     1       5.047   3.200  16.552  0.00  0.00    +0.000 OA
ATOM     12  H   UNL     1       4.685   2.312  16.720  0.00  0.00    +0.000 HD
ENDBRANCH   6  11
BRANCH   1  13
ATOM     13  C   UNL     1       6.578   4.974  18.414  0.00  0.00    +0.000 C 
BRANCH  13  14
ATOM     14  O   UNL     1       6.798   6.374  18.623  0.00  0.00    +0.000 OA
BRANCH  14  15
ATOM     15  C   UNL     1       7.520   7.023  17.681  0.00  0.00    +0.000 C 
ATOM     16  O   UNL     1       7.570   6.770  16.485  0.00  0.00    +0.000 OA
BRANCH  15  18
ATOM     17  C   UNL     1       8.253   9.388  17.841  0.00  0.00    +0.000 C 
ATOM     18  C   UNL     1       8.204   8.149  18.362  0.00  0.00    +0.000 C 
BRANCH  17  21
ATOM     19  C   UNL     1       9.457  12.924  18.516  0.00  0.00    +0.000 A 
ATOM     20  C   UNL     1       8.822  11.809  17.939  0.00  0.00    +0.000 A 
ATOM     21  C   UNL     1       8.933  10.524  18.493  0.00  0.00    +0.000 A 
ATOM     22  C   UNL     1       9.665  10.377  19.676  0.00  0.00    +0.000 A 
ATOM     23  C   UNL     1      10.304  11.474  20.262  0.00  0.00    +0.000 A 
ATOM     24  C   UNL     1      10.207  12.741  19.683  0.00  0.00    +0.000 A 
BRANCH  19  26
ATOM     25  C   UNL     1       7.973  14.713  17.935  0.00  0.00    +0.000 C 
ATOM     26  O   UNL     1       9.245  14.086  17.821  0.00  0.00    +0.000 OA
ENDBRANCH  19  26
BRANCH  24  27
ATOM     27  O   UNL     1      10.861  13.777  20.289  0.00  0.00    +0.000 OA
ATOM     28  H   UNL     1      10.214  14.357  20.721  0.00  0.00    +0.000 HD
ENDBRANCH  24  27
ENDBRANCH  17  21
ENDBRANCH  15  18
ENDBRANCH  14  15
ENDBRANCH  13  14
ENDBRANCH   1  13
BRANCH   3  29
ATOM     29  O   UNL     1       2.563   6.124  20.594  0.00  0.00    +0.000 OA
BRANCH  29  30
ATOM     30  C   UNL     1       2.189   7.259  19.925  0.00  0.00    +0.000 A 
ATOM     31  C   UNL     1       2.423   7.464  18.557  0.00  0.00    +0.000 A 
ATOM     32  C   UNL     1       1.941   8.596  17.896  0.00  0.00    +0.000 A 
ATOM     33  C   UNL     1       1.227   9.568  18.597  0.00  0.00    +0.000 A 
ATOM     34  C   UNL     1       1.042   9.397  19.975  0.00  0.00    +0.000 A 
ATOM     35  C   UNL     1       1.513   8.255  20.648  0.00  0.00    +0.000 A 
BRANCH  35  36
ATOM     36  O   UNL     1       1.218   8.274  21.989  0.00  0.00    +0.000 OA
ATOM     37  C   UNL     1       0.144   9.085  22.446  0.00  0.00    +0.000 C 
ENDBRANCH  35  36
BRANCH  33  38
ATOM     38  C   UNL     1       0.641  10.738  17.863  0.00  0.00    +0.000 C 
BRANCH  38  39
ATOM     39  O   UNL     1       0.076  11.679  18.758  0.00  0.00    +0.000 OA
ATOM     40  H   UNL     1       0.751  12.361  18.906  0.00  0.00    +0.000 HD
ENDBRANCH  38  39
ENDBRANCH  33  38
ENDBRANCH  29  30
ENDBRANCH   3  29
TORSDOF 15
ENDMDL
MODEL 7
REMARK VINA RESULT:      -7.5      4.858      9.608
REMARK  Name = 
REMARK  17 active torsions:
REMARK  status: ('A' for Active; 'I' for Inactive)
REMARK    1  A    between atoms: C_1  and  O_2
REMARK    2  A    between atoms: O_2  and  C_3
REMARK    3  A    between atoms: C_5  and  C_6
REMARK    4  A    between atoms: C_7  and  C_8
REMARK    5  A    between atoms: C_8  and  O_10
REMARK    6  A    between atoms: O_10  and  C_11
REMARK    7  A    between atoms: C_11  and  C_12
REMARK    8  A    between atoms: C_14  and  O_15
REMARK    9  A    between atoms: O_15  and  C_16
REMARK   10  A    between atoms: C_19  and  C_20
REMARK   11  A    between atoms: C_20  and  O_21
REMARK   12  A    between atoms: C_23  and  O_24
REMARK   13  A    between atoms: O_24  and  C_25
REMARK   14  A    between atoms: C_26  and  O_27
REMARK   15  A    between atoms: C_28  and  O_29
REMARK   16  A    between atoms: C_30  and  O_31
REMARK   17  A    between atoms: C_34  and  O_35
REMARK                            x       y       z     vdW  Elec       q    Type
REMARK                         _______ _______ _______ _____ _____    ______ ____
ROOT
ATOM      1  C   UNL     1       0.931  12.344  18.975  0.00  0.00    +0.000 C 
ATOM      2  O   UNL     1       0.853  12.189  20.389  0.00  0.00    +0.000 OA
ATOM      3  C   UNL     1       0.655  13.455  21.014  0.00  0.00    +0.000 C 
ATOM      4  C   UNL     1       1.873  14.382  20.758  0.00  0.00    +0.000 C 
ATOM      5  C   UNL     1       2.298  14.367  19.269  0.00  0.00    +0.000 C 
ATOM      6  C   UNL     1       2.307  12.941  18.665  0.00  0.00    +0.000 C 
ENDROOT
BRANCH   4   7
ATOM      7  O   UNL     1       1.586  15.740  21.154  0.00  0.00    +0.000 OA
ATOM      8  H   UNL     1       0.894  16.102  20.569  0.00  0.00    +0.000 HD
ENDBRANCH   4   7
BRANCH   5   9
ATOM      9  O   UNL     1       3.567  14.994  19.044  0.00  0.00    +0.000 OA
ATOM     10  H   UNL     1       4.206  14.659  19.697  0.00  0.00    +0.000 HD
ENDBRANCH   5   9
BRANCH   6  11
ATOM     11  O   UNL     1       2.558  12.976  17.261  0.00  0.00    +0.000 OA
ATOM     12  H   UNL     1       3.051  13.790  17.058  0.00  0.00    +0.000 HD
ENDBRANCH   6  11
BRANCH   1  13
ATOM     13  C   UNL     1       0.543  11.024  18.303  0.00  0.00    +0.000 C 
BRANCH  13  14
ATOM     14  O   UNL     1       1.658  10.166  18.037  0.00  0.00    +0.000 OA
BRANCH  14  15
ATOM     15  C   UNL     1       1.754   9.042  18.784  0.00  0.00    +0.000 C 
ATOM     16  O   UNL     1       1.245   8.838  19.878  0.00  0.00    +0.000 OA
BRANCH  15  18
ATOM     17  C   UNL     1       2.909   6.866  18.487  0.00  0.00    +0.000 C 
ATOM     18  C   UNL     1       2.550   8.068  17.999  0.00  0.00    +0.000 C 
BRANCH  17  21
ATOM     19  C   UNL     1       4.217   3.530  17.234  0.00  0.00    +0.000 A 
ATOM     20  C   UNL     1       3.479   4.511  17.923  0.00  0.00    +0.000 A 
ATOM     21  C   UNL     1       3.707   5.882  17.731  0.00  0.00    +0.000 A 
ATOM     22  C   UNL     1       4.671   6.264  16.791  0.00  0.00    +0.000 A 
ATOM     23  C   UNL     1       5.414   5.304  16.099  0.00  0.00    +0.000 A 
ATOM     24  C   UNL     1       5.194   3.943  16.323  0.00  0.00    +0.000 A 
BRANCH  19  26
ATOM     25  C   UNL     1       3.129   2.052  18.774  0.00  0.00    +0.000 C 
ATOM     26  O   UNL     1       3.860   2.250  17.570  0.00  0.00    +0.000 OA
ENDBRANCH  19  26
BRANCH  24  27
ATOM     27  O   UNL     1       5.957   3.046  15.629  0.00  0.00    +0.000 OA
ATOM     28  H   UNL     1       6.679   2.731  16.196  0.00  0.00    +0.000 HD
ENDBRANCH  24  27
ENDBRANCH  17  21
ENDBRANCH  15  18
ENDBRANCH  14  15
ENDBRANCH  13  14
ENDBRANCH   1  13
BRANCH   3  29
ATOM     29  O   UNL     1       0.483  13.311  22.422  0.00  0.00    +0.000 OA
BRANCH  29  30
ATOM     30  C   UNL     1      -0.784  13.258  22.938  0.00  0.00    +0.000 A 
ATOM     31  C   UNL     1      -1.433  14.360  23.514  0.00  0.00    +0.000 A 
ATOM     32  C   UNL     1      -2.760  14.284  23.942  0.00  0.00    +0.000 A 
ATOM     33  C   UNL     1      -3.468  13.087  23.826  0.00  0.00    +0.000 A 
ATOM     34  C   UNL     1      -2.807  11.967  23.307  0.00  0.00    +0.000 A 
ATOM     35  C   UNL     1      -1.474  12.037  22.861  0.00  0.00    +0.000 A 
BRANCH  35  36
ATOM     36  O   UNL     1      -1.017  10.836  22.377  0.00  0.00    +0.000 OA
ATOM     37  C   UNL     1      -0.539   9.861  23.295  0.00  0.00    +0.000 C 
ENDBRANCH  35  36
BRANCH  33  38
ATOM     38  C   UNL     1      -4.917  13.038  24.210  0.00  0.00    +0.000 C 
BRANCH  38  39
ATOM     39  O   UNL     1      -5.258  11.788  24.784  0.00  0.00    +0.000 OA
ATOM     40  H   UNL     1      -4.577  11.595  25.449  0.00  0.00    +0.000 HD
ENDBRANCH  38  39
ENDBRANCH  33  38
ENDBRANCH  29  30
ENDBRANCH   3  29
TORSDOF 15
ENDMDL
MODEL 8
REMARK VINA RESULT:      -7.5      1.503      2.442
REMARK  Name = 
REMARK  17 active torsions:
REMARK  status: ('A' for Active; 'I' for Inactive)
REMARK    1  A    between atoms: C_1  and  O_2
REMARK    2  A    between atoms: O_2  and  C_3
REMARK    3  A    between atoms: C_5  and  C_6
REMARK    4  A    between atoms: C_7  and  C_8
REMARK    5  A    between atoms: C_8  and  O_10
REMARK    6  A    between atoms: O_10  and  C_11
REMARK    7  A    between atoms: C_11  and  C_12
REMARK    8  A    between atoms: C_14  and  O_15
REMARK    9  A    between atoms: O_15  and  C_16
REMARK   10  A    between atoms: C_19  and  C_20
REMARK   11  A    between atoms: C_20  and  O_21
REMARK   12  A    between atoms: C_23  and  O_24
REMARK   13  A    between atoms: O_24  and  C_25
REMARK   14  A    between atoms: C_26  and  O_27
REMARK   15  A    between atoms: C_28  and  O_29
REMARK   16  A    between atoms: C_30  and  O_31
REMARK   17  A    between atoms: C_34  and  O_35
REMARK                            x       y       z     vdW  Elec       q    Type
REMARK                         _______ _______ _______ _____ _____    ______ ____
ROOT
ATOM      1  C   UNL     1       5.255   5.400  19.136  0.00  0.00    +0.000 C 
ATOM      2  O   UNL     1       4.477   6.529  18.751  0.00  0.00    +0.000 OA
ATOM      3  C   UNL     1       3.094   6.280  18.992  0.00  0.00    +0.000 C 
ATOM      4  C   UNL     1       2.594   5.103  18.113  0.00  0.00    +0.000 C 
ATOM      5  C   UNL     1       3.566   3.900  18.163  0.00  0.00    +0.000 C 
ATOM      6  C   UNL     1       5.052   4.328  18.061  0.00  0.00    +0.000 C 
ENDROOT
BRANCH   4   7
ATOM      7  O   UNL     1       1.281   4.667  18.523  0.00  0.00    +0.000 OA
ATOM      8  H   UNL     1       1.319   3.720  18.757  0.00  0.00    +0.000 HD
ENDBRANCH   4   7
BRANCH   5   9
ATOM      9  O   UNL     1       3.281   2.908  17.168  0.00  0.00    +0.000 OA
ATOM     10  H   UNL     1       4.111   2.660  16.723  0.00  0.00    +0.000 HD
ENDBRANCH   5   9
BRANCH   6  11
ATOM     11  O   UNL     1       5.925   3.217  18.258  0.00  0.00    +0.000 OA
ATOM     12  H   UNL     1       6.824   3.558  18.412  0.00  0.00    +0.000 HD
ENDBRANCH   6  11
BRANCH   1  13
ATOM     13  C   UNL     1       6.683   5.857  19.445  0.00  0.00    +0.000 C 
BRANCH  13  14
ATOM     14  O   UNL     1       7.536   5.897  18.294  0.00  0.00    +0.000 OA
BRANCH  14  15
ATOM     15  C   UNL     1       7.484   7.017  17.538  0.00  0.00    +0.000 C 
ATOM     16  O   UNL     1       6.890   7.166  16.478  0.00  0.00    +0.000 OA
BRANCH  15  18
ATOM     17  C   UNL     1       8.243   9.355  17.882  0.00  0.00    +0.000 C 
ATOM     18  C   UNL     1       8.242   8.065  18.265  0.00  0.00    +0.000 C 
BRANCH  17  21
ATOM     19  C   UNL     1      10.167  12.572  18.483  0.00  0.00    +0.000 A 
ATOM     20  C   UNL     1       9.440  11.536  17.866  0.00  0.00    +0.000 A 
ATOM     21  C   UNL     1       8.994  10.415  18.582  0.00  0.00    +0.000 A 
ATOM     22  C   UNL     1       9.253  10.365  19.956  0.00  0.00    +0.000 A 
ATOM     23  C   UNL     1       9.974  11.384  20.585  0.00  0.00    +0.000 A 
ATOM     24  C   UNL     1      10.436  12.479  19.852  0.00  0.00    +0.000 A 
BRANCH  19  26
ATOM     25  C   UNL     1      11.528  13.284  16.645  0.00  0.00    +0.000 C 
ATOM     26  O   UNL     1      10.528  13.569  17.615  0.00  0.00    +0.000 OA
ENDBRANCH  19  26
BRANCH  24  27
ATOM     27  O   UNL     1      11.147  13.441  20.513  0.00  0.00    +0.000 OA
ATOM     28  H   UNL     1      11.327  14.179  19.910  0.00  0.00    +0.000 HD
ENDBRANCH  24  27
ENDBRANCH  17  21
ENDBRANCH  15  18
ENDBRANCH  14  15
ENDBRANCH  13  14
ENDBRANCH   1  13
BRANCH   3  29
ATOM     29  O   UNL     1       2.306   7.431  18.699  0.00  0.00    +0.000 OA
BRANCH  29  30
ATOM     30  C   UNL     1       1.589   8.025  19.703  0.00  0.00    +0.000 A 
ATOM     31  C   UNL     1       1.518   7.515  21.008  0.00  0.00    +0.000 A 
ATOM     32  C   UNL     1       0.851   8.205  22.025  0.00  0.00    +0.000 A 
ATOM     33  C   UNL     1       0.217   9.417  21.753  0.00  0.00    +0.000 A 
ATOM     34  C   UNL     1       0.235   9.900  20.438  0.00  0.00    +0.000 A 
ATOM     35  C   UNL     1       0.914   9.220  19.410  0.00  0.00    +0.000 A 
BRANCH  35  36
ATOM     36  O   UNL     1       0.821   9.865  18.201  0.00  0.00    +0.000 OA
ATOM     37  C   UNL     1      -0.410   9.823  17.491  0.00  0.00    +0.000 C 
ENDBRANCH  35  36
BRANCH  33  38
ATOM     38  C   UNL     1      -0.422  10.190  22.868  0.00  0.00    +0.000 C 
BRANCH  38  39
ATOM     39  O   UNL     1       0.088   9.795  24.129  0.00  0.00    +0.000 OA
ATOM     40  H   UNL     1       0.658   9.025  23.969  0.00  0.00    +0.000 HD
ENDBRANCH  38  39
ENDBRANCH  33  38
ENDBRANCH  29  30
ENDBRANCH   3  29
TORSDOF 15
ENDMDL
MODEL 9
REMARK VINA RESULT:      -7.4      1.767      3.171
REMARK  Name = 
REMARK  17 active torsions:
REMARK  status: ('A' for Active; 'I' for Inactive)
REMARK    1  A    between atoms: C_1  and  O_2
REMARK    2  A    between atoms: O_2  and  C_3
REMARK    3  A    between atoms: C_5  and  C_6
REMARK    4  A    between atoms: C_7  and  C_8
REMARK    5  A    between atoms: C_8  and  O_10
REMARK    6  A    between atoms: O_10  and  C_11
REMARK    7  A    between atoms: C_11  and  C_12
REMARK    8  A    between atoms: C_14  and  O_15
REMARK    9  A    between atoms: O_15  and  C_16
REMARK   10  A    between atoms: C_19  and  C_20
REMARK   11  A    between atoms: C_20  and  O_21
REMARK   12  A    between atoms: C_23  and  O_24
REMARK   13  A    between atoms: O_24  and  C_25
REMARK   14  A    between atoms: C_26  and  O_27
REMARK   15  A    between atoms: C_28  and  O_29
REMARK   16  A    between atoms: C_30  and  O_31
REMARK   17  A    between atoms: C_34  and  O_35
REMARK                            x       y       z     vdW  Elec       q    Type
REMARK                         _______ _______ _______ _____ _____    ______ ____
ROOT
ATOM      1  C   UNL     1       5.022   4.985  19.110  0.00  0.00    +0.000 C 
ATOM      2  O   UNL     1       4.202   6.008  18.553  0.00  0.00    +0.000 OA
ATOM      3  C   UNL     1       3.088   6.267  19.405  0.00  0.00    +0.000 C 
ATOM      4  C   UNL     1       2.184   5.010  19.512  0.00  0.00    +0.000 C 
ATOM      5  C   UNL     1       3.014   3.730  19.772  0.00  0.00    +0.000 C 
ATOM      6  C   UNL     1       4.290   3.657  18.897  0.00  0.00    +0.000 C 
ENDROOT
BRANCH   4   7
ATOM      7  O   UNL     1       1.205   5.160  20.562  0.00  0.00    +0.000 OA
ATOM      8  H   UNL     1       1.459   4.595  21.316  0.00  0.00    +0.000 HD
ENDBRANCH   4   7
BRANCH   5   9
ATOM      9  O   UNL     1       2.251   2.527  19.612  0.00  0.00    +0.000 OA
ATOM     10  H   UNL     1       2.784   1.877  19.121  0.00  0.00    +0.000 HD
ENDBRANCH   5   9
BRANCH   6  11
ATOM     11  O   UNL     1       5.106   2.545  19.263  0.00  0.00    +0.000 OA
ATOM     12  H   UNL     1       5.858   2.502  18.647  0.00  0.00    +0.000 HD
ENDBRANCH   6  11
BRANCH   1  13
ATOM     13  C   UNL     1       6.444   5.128  18.560  0.00  0.00    +0.000 C 
BRANCH  13  14
ATOM     14  O   UNL     1       7.058   6.383  18.875  0.00  0.00    +0.000 OA
BRANCH  14  15
ATOM     15  C   UNL     1       7.505   7.120  17.832  0.00  0.00    +0.000 C 
ATOM     16  O   UNL     1       7.198   6.996  16.654  0.00  0.00    +0.000 OA
BRANCH  15  18
ATOM     17  C   UNL     1       8.351   9.446  18.010  0.00  0.00    +0.000 C 
ATOM     18  C   UNL     1       8.406   8.157  18.391  0.00  0.00    +0.000 C 
BRANCH  17  21
ATOM     19  C   UNL     1      10.042  11.783  20.477  0.00  0.00    +0.000 A 
ATOM     20  C   UNL     1       9.221  10.786  19.917  0.00  0.00    +0.000 A 
ATOM     21  C   UNL     1       9.240  10.496  18.544  0.00  0.00    +0.000 A 
ATOM     22  C   UNL     1      10.138  11.199  17.734  0.00  0.00    +0.000 A 
ATOM     23  C   UNL     1      10.960  12.193  18.273  0.00  0.00    +0.000 A 
ATOM     24  C   UNL     1      10.909  12.490  19.636  0.00  0.00    +0.000 A 
BRANCH  19  26
ATOM     25  C   UNL     1       9.032  12.986  22.286  0.00  0.00    +0.000 C 
ATOM     26  O   UNL     1       9.867  11.930  21.829  0.00  0.00    +0.000 OA
ENDBRANCH  19  26
BRANCH  24  27
ATOM     27  O   UNL     1      11.724  13.479  20.110  0.00  0.00    +0.000 OA
ATOM     28  H   UNL     1      11.213  14.068  20.688  0.00  0.00    +0.000 HD
ENDBRANCH  24  27
ENDBRANCH  17  21
ENDBRANCH  15  18
ENDBRANCH  14  15
ENDBRANCH  13  14
ENDBRANCH   1  13
BRANCH   3  29
ATOM     29  O   UNL     1       2.305   7.349  18.911  0.00  0.00    +0.000 OA
BRANCH  29  30
ATOM     30  C   UNL     1       1.623   8.140  19.797  0.00  0.00    +0.000 A 
ATOM     31  C   UNL     1       1.731   8.014  21.190  0.00  0.00    +0.000 A 
ATOM     32  C   UNL     1       1.090   8.904  22.055  0.00  0.00    +0.000 A 
ATOM     33  C   UNL     1       0.301   9.935  21.545  0.00  0.00    +0.000 A 
ATOM     34  C   UNL     1       0.141  10.029  20.156  0.00  0.00    +0.000 A 
ATOM     35  C   UNL     1       0.793   9.146  19.276  0.00  0.00    +0.000 A 
BRANCH  35  36
ATOM     36  O   UNL     1       0.516   9.416  17.958  0.00  0.00    +0.000 OA
ATOM     37  C   UNL     1      -0.761   9.939  17.616  0.00  0.00    +0.000 C 
ENDBRANCH  35  36
BRANCH  33  38
ATOM     38  C   UNL     1      -0.314  10.935  22.478  0.00  0.00    +0.000 C 
BRANCH  38  39
ATOM     39  O   UNL     1      -1.378  11.635  21.857  0.00  0.00    +0.000 OA
ATOM     40  H   UNL     1      -1.062  11.893  20.976  0.00  0.00    +0.000 HD
ENDBRANCH  38  39
ENDBRANCH  33  38
ENDBRANCH  29  30
ENDBRANCH   3  29
TORSDOF 15
ENDMDL
