MODEL 1
REMARK VINA RESULT:      -7.1      0.000      0.000
REMARK  Name = 
REMARK  10 active torsions:
REMARK  status: ('A' for Active; 'I' for Inactive)
REMARK    1  A    between atoms: C_1  and  C_2
REMARK    2  A    between atoms: C_4  and  C_5
REMARK    3  A    between atoms: N_6  and  N_7
REMARK    4  A    between atoms: N_7  and  C_8
REMARK    5  A    between atoms: C_8  and  N_10
REMARK    6  A    between atoms: C_11  and  C_13
REMARK    7  A    between atoms: C_13  and  C_14
REMARK    8  A    between atoms: C_14  and  C_15
REMARK    9  A    between atoms: C_14  and  C_16
REMARK   10  A    between atoms: C_19  and  C_20
REMARK                            x       y       z     vdW  Elec       q    Type
REMARK                         _______ _______ _______ _____ _____    ______ ____
ROOT
ATOM      1  N   UNL     1       5.466   3.978  16.782  0.00  0.00    +0.000 N 
ATOM      2  H   UNL     1       5.824   3.040  16.586  0.00  0.00    +0.000 HD
ENDROOT
BRANCH   1   8
ATOM      3  C   UNL     1       1.972   3.992  21.262  0.00  0.00    +0.000 C 
ATOM      4  C   UNL     1       2.844   3.904  20.037  0.00  0.00    +0.000 A 
ATOM      5  C   UNL     1       4.134   4.560  20.101  0.00  0.00    +0.000 A 
ATOM      6  C   UNL     1       4.936   4.630  19.024  0.00  0.00    +0.000 A 
ATOM      7  C   UNL     1       6.291   5.279  19.108  0.00  0.00    +0.000 C 
ATOM      8  N   UNL     1       4.539   4.016  17.840  0.00  0.00    +0.000 N 
ATOM      9  C   UNL     1       3.447   3.131  17.786  0.00  0.00    +0.000 A 
ATOM     10  O   UNL     1       3.269   2.296  16.900  0.00  0.00    +0.000 OA
ATOM     11  C   UNL     1       2.486   3.236  18.923  0.00  0.00    +0.000 A 
BRANCH  11  12
ATOM     12  C   UNL     1       1.222   2.610  18.775  0.00  0.00    +0.000 C 
ATOM     13  N   UNL     1       0.153   2.160  18.663  0.00  0.00    +0.000 NA
ENDBRANCH  11  12
ENDBRANCH   1   8
BRANCH   1  14
ATOM     14  C   UNL     1       5.449   4.848  15.708  0.00  0.00    +0.000 C 
ATOM     15  S   UNL     1       5.212   6.505  15.744  0.00  0.00    +0.000 S 
BRANCH  14  16
ATOM     16  N   UNL     1       5.718   4.252  14.486  0.00  0.00    +0.000 N 
ATOM     17  C   UNL     1       6.790   4.523  13.652  0.00  0.00    +0.000 C 
ATOM     18  O   UNL     1       7.727   5.256  13.967  0.00  0.00    +0.000 OA
ATOM     19  H   UNL     1       5.029   3.574  14.191  0.00  0.00    +0.000 HD
BRANCH  17  20
ATOM     20  C   UNL     1       6.720   3.874  12.289  0.00  0.00    +0.000 C 
BRANCH  20  21
ATOM     21  C   UNL     1       5.573   2.860  12.172  0.00  0.00    +0.000 C 
ATOM     22  C   UNL     1       4.358   3.449  11.450  0.00  0.00    +0.000 C 
ATOM     23  C   UNL     1       6.053   1.610  11.435  0.00  0.00    +0.000 C 
ENDBRANCH  20  21
ENDBRANCH  17  20
ENDBRANCH  14  16
ENDBRANCH   1  14
TORSDOF 6
ENDMDL
MODEL 2
REMARK VINA RESULT:      -7.0      2.286      2.910
REMARK  Name = 
REMARK  10 active torsions:
REMARK  status: ('A' for Active; 'I' for Inactive)
REMARK    1  A    between atoms: C_1  and  C_2
REMARK    2  A    between atoms: C_4  and  C_5
REMARK    3  A    between atoms: N_6  and  N_7
REMARK    4  A    between atoms: N_7  and  C_8
REMARK    5  A    between atoms: C_8  and  N_10
REMARK    6  A    between atoms: C_11  and  C_13
REMARK    7  A    between atoms: C_13  and  C_14
REMARK    8  A    between atoms: C_14  and  C_15
REMARK    9  A    between atoms: C_14  and  C_16
REMARK   10  A    between atoms: C_19  and  C_20
REMARK                            x       y       z     vdW  Elec       q    Type
REMARK                         _______ _______ _______ _____ _____    ______ ____
ROOT
ATOM      1  N   UNL     1       4.913   6.848  17.979  0.00  0.00    +0.000 N 
ATOM      2  H   UNL     1       5.063   7.574  18.683  0.00  0.00    +0.000 HD
ENDROOT
BRANCH   1   8
ATOM      3  C   UNL     1       1.575   2.744  20.048  0.00  0.00    +0.000 C 
ATOM      4  C   UNL     1       2.540   3.788  19.554  0.00  0.00    +0.000 A 
ATOM      5  C   UNL     1       1.973   5.019  19.042  0.00  0.00    +0.000 A 
ATOM      6  C   UNL     1       2.746   5.964  18.480  0.00  0.00    +0.000 A 
ATOM      7  C   UNL     1       2.154   7.256  17.986  0.00  0.00    +0.000 C 
ATOM      8  N   UNL     1       4.124   5.776  18.434  0.00  0.00    +0.000 N 
ATOM      9  C   UNL     1       4.763   4.751  19.155  0.00  0.00    +0.000 A 
ATOM     10  O   UNL     1       5.958   4.749  19.453  0.00  0.00    +0.000 OA
ATOM     11  C   UNL     1       3.878   3.632  19.589  0.00  0.00    +0.000 A 
BRANCH  11  12
ATOM     12  C   UNL     1       4.500   2.437  20.034  0.00  0.00    +0.000 C 
ATOM     13  N   UNL     1       5.015   1.484  20.465  0.00  0.00    +0.000 NA
ENDBRANCH  11  12
ENDBRANCH   1   8
BRANCH   1  14
ATOM     14  C   UNL     1       5.909   6.724  17.027  0.00  0.00    +0.000 C 
ATOM     15  S   UNL     1       7.517   7.163  17.173  0.00  0.00    +0.000 S 
BRANCH  14  16
ATOM     16  N   UNL     1       5.503   6.108  15.853  0.00  0.00    +0.000 N 
ATOM     17  C   UNL     1       5.820   4.825  15.440  0.00  0.00    +0.000 C 
ATOM     18  O   UNL     1       6.413   4.010  16.147  0.00  0.00    +0.000 OA
ATOM     19  H   UNL     1       4.941   6.692  15.249  0.00  0.00    +0.000 HD
BRANCH  17  20
ATOM     20  C   UNL     1       5.413   4.490  14.024  0.00  0.00    +0.000 C 
BRANCH  20  21
ATOM     21  C   UNL     1       6.557   3.868  13.210  0.00  0.00    +0.000 C 
ATOM     22  C   UNL     1       6.038   3.037  12.032  0.00  0.00    +0.000 C 
ATOM     23  C   UNL     1       7.489   4.964  12.694  0.00  0.00    +0.000 C 
ENDBRANCH  20  21
ENDBRANCH  17  20
ENDBRANCH  14  16
ENDBRANCH   1  14
TORSDOF 6
ENDMDL
MODEL 3
REMARK VINA RESULT:      -7.0      3.831      5.697
REMARK  Name = 
REMARK  10 active torsions:
REMARK  status: ('A' for Active; 'I' for Inactive)
REMARK    1  A    between atoms: C_1  and  C_2
REMARK    2  A    between atoms: C_4  and  C_5
REMARK    3  A    between atoms: N_6  and  N_7
REMARK    4  A    between atoms: N_7  and  C_8
REMARK    5  A    between atoms: C_8  and  N_10
REMARK    6  A    between atoms: C_11  and  C_13
REMARK    7  A    between atoms: C_13  and  C_14
REMARK    8  A    between atoms: C_14  and  C_15
REMARK    9  A    between atoms: C_14  and  C_16
REMARK   10  A    between atoms: C_19  and  C_20
REMARK                            x       y       z     vdW  Elec       q    Type
REMARK                         _______ _______ _______ _____ _____    ______ ____
ROOT
ATOM      1  N   UNL     1       5.537   6.475  18.202  0.00  0.00    +0.000 N 
ATOM      2  H   UNL     1       5.909   6.625  19.143  0.00  0.00    +0.000 HD
ENDROOT
BRANCH   1   8
ATOM      3  C   UNL     1       1.001   3.057  18.304  0.00  0.00    +0.000 C 
ATOM      4  C   UNL     1       2.257   3.886  18.326  0.00  0.00    +0.000 A 
ATOM      5  C   UNL     1       2.105   5.316  18.153  0.00  0.00    +0.000 A 
ATOM      6  C   UNL     1       3.174   6.125  18.050  0.00  0.00    +0.000 A 
ATOM      7  C   UNL     1       3.008   7.614  17.908  0.00  0.00    +0.000 C 
ATOM      8  N   UNL     1       4.451   5.582  18.162  0.00  0.00    +0.000 N 
ATOM      9  C   UNL     1       4.667   4.266  18.608  0.00  0.00    +0.000 A 
ATOM     10  O   UNL     1       5.730   3.852  19.072  0.00  0.00    +0.000 OA
ATOM     11  C   UNL     1       3.484   3.361  18.518  0.00  0.00    +0.000 A 
BRANCH  11  12
ATOM     12  C   UNL     1       3.711   1.967  18.650  0.00  0.00    +0.000 C 
ATOM     13  N   UNL     1       3.960   0.837  18.788  0.00  0.00    +0.000 NA
ENDBRANCH  11  12
ENDBRANCH   1   8
BRANCH   1  14
ATOM     14  C   UNL     1       6.442   6.636  17.169  0.00  0.00    +0.000 C 
ATOM     15  S   UNL     1       6.821   5.535  15.967  0.00  0.00    +0.000 S 
BRANCH  14  16
ATOM     16  N   UNL     1       7.041   7.886  17.124  0.00  0.00    +0.000 N 
ATOM     17  C   UNL     1       8.022   8.364  17.974  0.00  0.00    +0.000 C 
ATOM     18  O   UNL     1       8.588   7.670  18.819  0.00  0.00    +0.000 OA
ATOM     19  H   UNL     1       6.682   8.494  16.400  0.00  0.00    +0.000 HD
BRANCH  17  20
ATOM     20  C   UNL     1       8.341   9.834  17.822  0.00  0.00    +0.000 C 
BRANCH  20  21
ATOM     21  C   UNL     1       9.608  10.248  18.584  0.00  0.00    +0.000 C 
ATOM     22  C   UNL     1      10.414  11.306  17.825  0.00  0.00    +0.000 C 
ATOM     23  C   UNL     1       9.235  10.780  19.967  0.00  0.00    +0.000 C 
ENDBRANCH  20  21
ENDBRANCH  17  20
ENDBRANCH  14  16
ENDBRANCH   1  14
TORSDOF 6
ENDMDL
MODEL 4
REMARK VINA RESULT:      -6.8      2.521      3.231
REMARK  Name = 
REMARK  10 active torsions:
REMARK  status: ('A' for Active; 'I' for Inactive)
REMARK    1  A    between atoms: C_1  and  C_2
REMARK    2  A    between atoms: C_4  and  C_5
REMARK    3  A    between atoms: N_6  and  N_7
REMARK    4  A    between atoms: N_7  and  C_8
REMARK    5  A    between atoms: C_8  and  N_10
REMARK    6  A    between atoms: C_11  and  C_13
REMARK    7  A    between atoms: C_13  and  C_14
REMARK    8  A    between atoms: C_14  and  C_15
REMARK    9  A    between atoms: C_14  and  C_16
REMARK   10  A    between atoms: C_19  and  C_20
REMARK                            x       y       z     vdW  Elec       q    Type
REMARK                         _______ _______ _______ _____ _____    ______ ____
ROOT
ATOM      1  N   UNL     1       5.369   7.295  18.120  0.00  0.00    +0.000 N 
ATOM      2  H   UNL     1       5.353   7.932  18.920  0.00  0.00    +0.000 HD
ENDROOT
BRANCH   1   8
ATOM      3  C   UNL     1       1.685   3.039  18.887  0.00  0.00    +0.000 C 
ATOM      4  C   UNL     1       2.724   4.120  18.756  0.00  0.00    +0.000 A 
ATOM      5  C   UNL     1       2.293   5.381  18.187  0.00  0.00    +0.000 A 
ATOM      6  C   UNL     1       3.170   6.367  17.929  0.00  0.00    +0.000 A 
ATOM      7  C   UNL     1       2.710   7.688  17.374  0.00  0.00    +0.000 C 
ATOM      8  N   UNL     1       4.510   6.190  18.262  0.00  0.00    +0.000 N 
ATOM      9  C   UNL     1       4.945   5.121  19.066  0.00  0.00    +0.000 A 
ATOM     10  O   UNL     1       6.007   5.103  19.688  0.00  0.00    +0.000 OA
ATOM     11  C   UNL     1       4.002   3.969  19.158  0.00  0.00    +0.000 A 
BRANCH  11  12
ATOM     12  C   UNL     1       4.502   2.749  19.681  0.00  0.00    +0.000 C 
ATOM     13  N   UNL     1       4.931   1.782  20.171  0.00  0.00    +0.000 NA
ENDBRANCH  11  12
ENDBRANCH   1   8
BRANCH   1  14
ATOM     14  C   UNL     1       6.550   7.267  17.402  0.00  0.00    +0.000 C 
ATOM     15  S   UNL     1       7.997   8.012  17.793  0.00  0.00    +0.000 S 
BRANCH  14  16
ATOM     16  N   UNL     1       6.508   6.474  16.265  0.00  0.00    +0.000 N 
ATOM     17  C   UNL     1       7.168   5.273  16.070  0.00  0.00    +0.000 C 
ATOM     18  O   UNL     1       7.788   4.686  16.957  0.00  0.00    +0.000 OA
ATOM     19  H   UNL     1       5.951   6.854  15.512  0.00  0.00    +0.000 HD
BRANCH  17  20
ATOM     20  C   UNL     1       7.108   4.731  14.660  0.00  0.00    +0.000 C 
BRANCH  20  21
ATOM     21  C   UNL     1       6.000   3.685  14.474  0.00  0.00    +0.000 C 
ATOM     22  C   UNL     1       4.869   3.860  15.492  0.00  0.00    +0.000 C 
ATOM     23  C   UNL     1       5.434   3.771  13.057  0.00  0.00    +0.000 C 
ENDBRANCH  20  21
ENDBRANCH  17  20
ENDBRANCH  14  16
ENDBRANCH   1  14
TORSDOF 6
ENDMDL
MODEL 5
REMARK VINA RESULT:      -6.8      1.410      1.410
REMARK  Name = 
REMARK  10 active torsions:
REMARK  status: ('A' for Active; 'I' for Inactive)
REMARK    1  A    between atoms: C_1  and  C_2
REMARK    2  A    between atoms: C_4  and  C_5
REMARK    3  A    between atoms: N_6  and  N_7
REMARK    4  A    between atoms: N_7  and  C_8
REMARK    5  A    between atoms: C_8  and  N_10
REMARK    6  A    between atoms: C_11  and  C_13
REMARK    7  A    between atoms: C_13  and  C_14
REMARK    8  A    between atoms: C_14  and  C_15
REMARK    9  A    between atoms: C_14  and  C_16
REMARK   10  A    between atoms: C_19  and  C_20
REMARK                            x       y       z     vdW  Elec       q    Type
REMARK                         _______ _______ _______ _____ _____    ______ ____
ROOT
ATOM      1  N   UNL     1       4.862   5.313  15.844  0.00  0.00    +0.000 N 
ATOM      2  H   UNL     1       4.818   6.198  15.333  0.00  0.00    +0.000 HD
ENDROOT
BRANCH   1   8
ATOM      3  C   UNL     1       1.732   5.171  20.583  0.00  0.00    +0.000 C 
ATOM      4  C   UNL     1       2.549   5.103  19.320  0.00  0.00    +0.000 A 
ATOM      5  C   UNL     1       3.428   6.222  19.044  0.00  0.00    +0.000 A 
ATOM      6  C   UNL     1       4.114   6.303  17.891  0.00  0.00    +0.000 A 
ATOM      7  C   UNL     1       5.053   7.449  17.627  0.00  0.00    +0.000 C 
ATOM      8  N   UNL     1       4.016   5.268  16.966  0.00  0.00    +0.000 N 
ATOM      9  C   UNL     1       3.415   4.036  17.285  0.00  0.00    +0.000 A 
ATOM     10  O   UNL     1       3.613   2.985  16.675  0.00  0.00    +0.000 OA
ATOM     11  C   UNL     1       2.511   4.057  18.471  0.00  0.00    +0.000 A 
BRANCH  11  12
ATOM     12  C   UNL     1       1.642   2.951  18.656  0.00  0.00    +0.000 C 
ATOM     13  N   UNL     1       0.898   2.078  18.861  0.00  0.00    +0.000 NA
ENDBRANCH  11  12
ENDBRANCH   1   8
BRANCH   1  14
ATOM     14  C   UNL     1       6.060   4.629  15.752  0.00  0.00    +0.000 C 
ATOM     15  S   UNL     1       7.205   4.417  16.955  0.00  0.00    +0.000 S 
BRANCH  14  16
ATOM     16  N   UNL     1       6.276   4.015  14.528  0.00  0.00    +0.000 N 
ATOM     17  C   UNL     1       6.989   4.529  13.459  0.00  0.00    +0.000 C 
ATOM     18  O   UNL     1       7.643   5.570  13.516  0.00  0.00    +0.000 OA
ATOM     19  H   UNL     1       5.831   3.112  14.431  0.00  0.00    +0.000 HD
BRANCH  17  20
ATOM     20  C   UNL     1       6.886   3.733  12.179  0.00  0.00    +0.000 C 
BRANCH  20  21
ATOM     21  C   UNL     1       5.670   2.795  12.160  0.00  0.00    +0.000 C 
ATOM     22  C   UNL     1       4.450   3.451  11.508  0.00  0.00    +0.000 C 
ATOM     23  C   UNL     1       6.017   1.504  11.419  0.00  0.00    +0.000 C 
ENDBRANCH  20  21
ENDBRANCH  17  20
ENDBRANCH  14  16
ENDBRANCH   1  14
TORSDOF 6
ENDMDL
MODEL 6
REMARK VINA RESULT:      -6.7      2.165      2.823
REMARK  Name = 
REMARK  10 active torsions:
REMARK  status: ('A' for Active; 'I' for Inactive)
REMARK    1  A    between atoms: C_1  and  C_2
REMARK    2  A    between atoms: C_4  and  C_5
REMARK    3  A    between atoms: N_6  and  N_7
REMARK    4  A    between atoms: N_7  and  C_8
REMARK    5  A    between atoms: C_8  and  N_10
REMARK    6  A    between atoms: C_11  and  C_13
REMARK    7  A    between atoms: C_13  and  C_14
REMARK    8  A    between atoms: C_14  and  C_15
REMARK    9  A    between atoms: C_14  and  C_16
REMARK   10  A    between atoms: C_19  and  C_20
REMARK                            x       y       z     vdW  Elec       q    Type
REMARK                         _______ _______ _______ _____ _____    ______ ____
ROOT
ATOM      1  N   UNL     1       5.642   6.447  18.538  0.00  0.00    +0.000 N 
ATOM      2  H   UNL     1       5.953   6.549  19.506  0.00  0.00    +0.000 HD
ENDROOT
BRANCH   1   8
ATOM      3  C   UNL     1       1.068   3.097  18.179  0.00  0.00    +0.000 C 
ATOM      4  C   UNL     1       2.330   3.906  18.326  0.00  0.00    +0.000 A 
ATOM      5  C   UNL     1       2.211   5.342  18.176  0.00  0.00    +0.000 A 
ATOM      6  C   UNL     1       3.296   6.137  18.182  0.00  0.00    +0.000 A 
ATOM      7  C   UNL     1       3.161   7.631  18.064  0.00  0.00    +0.000 C 
ATOM      8  N   UNL     1       4.551   5.572  18.385  0.00  0.00    +0.000 N 
ATOM      9  C   UNL     1       4.712   4.242  18.816  0.00  0.00    +0.000 A 
ATOM     10  O   UNL     1       5.727   3.802  19.355  0.00  0.00    +0.000 OA
ATOM     11  C   UNL     1       3.529   3.359  18.606  0.00  0.00    +0.000 A 
BRANCH  11  12
ATOM     12  C   UNL     1       3.725   1.958  18.721  0.00  0.00    +0.000 C 
ATOM     13  N   UNL     1       3.831   0.799  18.772  0.00  0.00    +0.000 NA
ENDBRANCH  11  12
ENDBRANCH   1   8
BRANCH   1  14
ATOM     14  C   UNL     1       6.614   6.643  17.574  0.00  0.00    +0.000 C 
ATOM     15  S   UNL     1       7.722   7.896  17.486  0.00  0.00    +0.000 S 
BRANCH  14  16
ATOM     16  N   UNL     1       6.687   5.637  16.623  0.00  0.00    +0.000 N 
ATOM     17  C   UNL     1       5.986   5.574  15.431  0.00  0.00    +0.000 C 
ATOM     18  O   UNL     1       5.289   6.494  15.002  0.00  0.00    +0.000 OA
ATOM     19  H   UNL     1       7.304   4.875  16.868  0.00  0.00    +0.000 HD
BRANCH  17  20
ATOM     20  C   UNL     1       6.105   4.264  14.687  0.00  0.00    +0.000 C 
BRANCH  20  21
ATOM     21  C   UNL     1       6.306   4.456  13.177  0.00  0.00    +0.000 C 
ATOM     22  C   UNL     1       7.703   4.990  12.848  0.00  0.00    +0.000 C 
ATOM     23  C   UNL     1       6.077   3.133  12.447  0.00  0.00    +0.000 C 
ENDBRANCH  20  21
ENDBRANCH  17  20
ENDBRANCH  14  16
ENDBRANCH   1  14
TORSDOF 6
ENDMDL
MODEL 7
REMARK VINA RESULT:      -6.7      1.883      2.441
REMARK  Name = 
REMARK  10 active torsions:
REMARK  status: ('A' for Active; 'I' for Inactive)
REMARK    1  A    between atoms: C_1  and  C_2
REMARK    2  A    between atoms: C_4  and  C_5
REMARK    3  A    between atoms: N_6  and  N_7
REMARK    4  A    between atoms: N_7  and  C_8
REMARK    5  A    between atoms: C_8  and  N_10
REMARK    6  A    between atoms: C_11  and  C_13
REMARK    7  A    between atoms: C_13  and  C_14
REMARK    8  A    between atoms: C_14  and  C_15
REMARK    9  A    between atoms: C_14  and  C_16
REMARK   10  A    between atoms: C_19  and  C_20
REMARK                            x       y       z     vdW  Elec       q    Type
REMARK                         _______ _______ _______ _____ _____    ______ ____
ROOT
ATOM      1  N   UNL     1       4.371   4.144  16.321  0.00  0.00    +0.000 N 
ATOM      2  H   UNL     1       3.784   4.591  15.613  0.00  0.00    +0.000 HD
ENDROOT
BRANCH   1   8
ATOM      3  C   UNL     1       1.929   4.127  21.450  0.00  0.00    +0.000 C 
ATOM      4  C   UNL     1       2.533   4.228  20.075  0.00  0.00    +0.000 A 
ATOM      5  C   UNL     1       2.958   2.991  19.451  0.00  0.00    +0.000 A 
ATOM      6  C   UNL     1       3.606   2.989  18.273  0.00  0.00    +0.000 A 
ATOM      7  C   UNL     1       4.010   1.698  17.614  0.00  0.00    +0.000 C 
ATOM      8  N   UNL     1       3.828   4.196  17.618  0.00  0.00    +0.000 N 
ATOM      9  C   UNL     1       3.202   5.391  18.018  0.00  0.00    +0.000 A 
ATOM     10  O   UNL     1       3.058   6.378  17.298  0.00  0.00    +0.000 OA
ATOM     11  C   UNL     1       2.668   5.393  19.411  0.00  0.00    +0.000 A 
BRANCH  11  12
ATOM     12  C   UNL     1       2.316   6.645  19.978  0.00  0.00    +0.000 C 
ATOM     13  N   UNL     1       1.969   7.674  20.401  0.00  0.00    +0.000 NA
ENDBRANCH  11  12
ENDBRANCH   1   8
BRANCH   1  14
ATOM     14  C   UNL     1       5.727   4.131  16.051  0.00  0.00    +0.000 C 
ATOM     15  S   UNL     1       6.976   4.507  17.100  0.00  0.00    +0.000 S 
BRANCH  14  16
ATOM     16  N   UNL     1       6.052   3.697  14.776  0.00  0.00    +0.000 N 
ATOM     17  C   UNL     1       6.702   4.425  13.795  0.00  0.00    +0.000 C 
ATOM     18  O   UNL     1       7.196   5.536  13.988  0.00  0.00    +0.000 OA
ATOM     19  H   UNL     1       5.746   2.756  14.565  0.00  0.00    +0.000 HD
BRANCH  17  20
ATOM     20  C   UNL     1       6.739   3.773  12.431  0.00  0.00    +0.000 C 
BRANCH  20  21
ATOM     21  C   UNL     1       5.597   2.768  12.224  0.00  0.00    +0.000 C 
ATOM     22  C   UNL     1       4.382   3.411  11.549  0.00  0.00    +0.000 C 
ATOM     23  C   UNL     1       6.085   1.588  11.384  0.00  0.00    +0.000 C 
ENDBRANCH  20  21
ENDBRANCH  17  20
ENDBRANCH  14  16
ENDBRANCH   1  14
TORSDOF 6
ENDMDL
MODEL 8
REMARK VINA RESULT:      -6.7      1.800      2.057
REMARK  Name = 
REMARK  10 active torsions:
REMARK  status: ('A' for Active; 'I' for Inactive)
REMARK    1  A    between atoms: C_1  and  C_2
REMARK    2  A    between atoms: C_4  and  C_5
REMARK    3  A    between atoms: N_6  and  N_7
REMARK    4  A    between atoms: N_7  and  C_8
REMARK    5  A    between atoms: C_8  and  N_10
REMARK    6  A    between atoms: C_11  and  C_13
REMARK    7  A    between atoms: C_13  and  C_14
REMARK    8  A    between atoms: C_14  and  C_15
REMARK    9  A    between atoms: C_14  and  C_16
REMARK   10  A    between atoms: C_19  and  C_20
REMARK                            x       y       z     vdW  Elec       q    Type
REMARK                         _______ _______ _______ _____ _____    ______ ____
ROOT
ATOM      1  N   UNL     1       4.620   3.856  16.478  0.00  0.00    +0.000 N 
ATOM      2  H   UNL     1       4.030   3.625  15.676  0.00  0.00    +0.000 HD
ENDROOT
BRANCH   1   8
ATOM      3  C   UNL     1       2.176   6.906  20.602  0.00  0.00    +0.000 C 
ATOM      4  C   UNL     1       2.839   6.020  19.581  0.00  0.00    +0.000 A 
ATOM      5  C   UNL     1       3.356   6.663  18.389  0.00  0.00    +0.000 A 
ATOM      6  C   UNL     1       3.867   5.944  17.374  0.00  0.00    +0.000 A 
ATOM      7  C   UNL     1       4.437   6.621  16.157  0.00  0.00    +0.000 C 
ATOM      8  N   UNL     1       3.944   4.560  17.491  0.00  0.00    +0.000 N 
ATOM      9  C   UNL     1       3.727   3.901  18.715  0.00  0.00    +0.000 A 
ATOM     10  O   UNL     1       4.126   2.766  18.976  0.00  0.00    +0.000 OA
ATOM     11  C   UNL     1       2.984   4.690  19.740  0.00  0.00    +0.000 A 
BRANCH  11  12
ATOM     12  C   UNL     1       2.463   3.989  20.858  0.00  0.00    +0.000 C 
ATOM     13  N   UNL     1       2.102   3.395  21.793  0.00  0.00    +0.000 NA
ENDBRANCH  11  12
ENDBRANCH   1   8
BRANCH   1  14
ATOM     14  C   UNL     1       5.968   4.001  16.206  0.00  0.00    +0.000 C 
ATOM     15  S   UNL     1       7.167   4.523  17.251  0.00  0.00    +0.000 S 
BRANCH  14  16
ATOM     16  N   UNL     1       6.339   3.603  14.931  0.00  0.00    +0.000 N 
ATOM     17  C   UNL     1       6.739   4.425  13.892  0.00  0.00    +0.000 C 
ATOM     18  O   UNL     1       6.940   5.633  14.019  0.00  0.00    +0.000 OA
ATOM     19  H   UNL     1       6.275   2.607  14.770  0.00  0.00    +0.000 HD
BRANCH  17  20
ATOM     20  C   UNL     1       6.884   3.740  12.553  0.00  0.00    +0.000 C 
BRANCH  20  21
ATOM     21  C   UNL     1       5.737   2.763  12.259  0.00  0.00    +0.000 C 
ATOM     22  C   UNL     1       4.518   3.472  11.662  0.00  0.00    +0.000 C 
ATOM     23  C   UNL     1       6.213   1.669  11.304  0.00  0.00    +0.000 C 
ENDBRANCH  20  21
ENDBRANCH  17  20
ENDBRANCH  14  16
ENDBRANCH   1  14
TORSDOF 6
ENDMDL
MODEL 9
REMARK VINA RESULT:      -6.7      3.263      6.577
REMARK  Name = 
REMARK  10 active torsions:
REMARK  status: ('A' for Active; 'I' for Inactive)
REMARK    1  A    between atoms: C_1  and  C_2
REMARK    2  A    between atoms: C_4  and  C_5
REMARK    3  A    between atoms: N_6  and  N_7
REMARK    4  A    between atoms: N_7  and  C_8
REMARK    5  A    between atoms: C_8  and  N_10
REMARK    6  A    between atoms: C_11  and  C_13
REMARK    7  A    between atoms: C_13  and  C_14
REMARK    8  A    between atoms: C_14  and  C_15
REMARK    9  A    between atoms: C_14  and  C_16
REMARK   10  A    between atoms: C_19  and  C_20
REMARK                            x       y       z     vdW  Elec       q    Type
REMARK                         _______ _______ _______ _____ _____    ______ ____
ROOT
ATOM      1  N   UNL     1       4.276   3.507  19.982  0.00  0.00    +0.000 N 
ATOM      2  H   UNL     1       5.050   3.337  20.628  0.00  0.00    +0.000 HD
ENDROOT
BRANCH   1   8
ATOM      3  C   UNL     1       6.048   4.976  14.788  0.00  0.00    +0.000 C 
ATOM      4  C   UNL     1       5.666   4.634  16.204  0.00  0.00    +0.000 A 
ATOM      5  C   UNL     1       4.707   3.563  16.386  0.00  0.00    +0.000 A 
ATOM      6  C   UNL     1       4.223   3.258  17.602  0.00  0.00    +0.000 A 
ATOM      7  C   UNL     1       3.257   2.119  17.787  0.00  0.00    +0.000 C 
ATOM      8  N   UNL     1       4.689   3.953  18.713  0.00  0.00    +0.000 N 
ATOM      9  C   UNL     1       5.811   4.799  18.649  0.00  0.00    +0.000 A 
ATOM     10  O   UNL     1       6.483   5.140  19.623  0.00  0.00    +0.000 OA
ATOM     11  C   UNL     1       6.185   5.257  17.280  0.00  0.00    +0.000 A 
BRANCH  11  12
ATOM     12  C   UNL     1       7.092   6.342  17.175  0.00  0.00    +0.000 C 
ATOM     13  N   UNL     1       7.818   7.254  17.154  0.00  0.00    +0.000 NA
ENDBRANCH  11  12
ENDBRANCH   1   8
BRANCH   1  14
ATOM     14  C   UNL     1       3.073   3.854  20.568  0.00  0.00    +0.000 C 
ATOM     15  S   UNL     1       1.976   2.837  21.320  0.00  0.00    +0.000 S 
BRANCH  14  16
ATOM     16  N   UNL     1       2.808   5.215  20.566  0.00  0.00    +0.000 N 
ATOM     17  C   UNL     1       2.142   5.925  19.582  0.00  0.00    +0.000 C 
ATOM     18  O   UNL     1       1.579   5.396  18.624  0.00  0.00    +0.000 OA
ATOM     19  H   UNL     1       3.174   5.712  21.366  0.00  0.00    +0.000 HD
BRANCH  17  20
ATOM     20  C   UNL     1       2.179   7.428  19.742  0.00  0.00    +0.000 C 
BRANCH  20  21
ATOM     21  C   UNL     1       2.660   8.148  18.474  0.00  0.00    +0.000 C 
ATOM     22  C   UNL     1       3.381   7.198  17.513  0.00  0.00    +0.000 C 
ATOM     23  C   UNL     1       1.475   8.798  17.760  0.00  0.00    +0.000 C 
ENDBRANCH  20  21
ENDBRANCH  17  20
ENDBRANCH  14  16
ENDBRANCH   1  14
TORSDOF 6
ENDMDL
