MODEL 1
REMARK VINA RESULT:      -8.0      0.000      0.000
REMARK  Name = 
REMARK  5 active torsions:
REMARK  status: ('A' for Active; 'I' for Inactive)
REMARK    1  A    between atoms: C_1  and  C_2
REMARK    2  A    between atoms: C_8  and  C_9
REMARK    3  A    between atoms: N_17  and  C_18
REMARK    4  A    between atoms: C_18  and  C_19
REMARK    5  A    between atoms: C_23  and  C_24
REMARK                            x       y       z     vdW  Elec       q    Type
REMARK                         _______ _______ _______ _____ _____    ______ ____
ROOT
ATOM      1  C   UNL     1       3.972   6.883  16.637  0.00  0.00    +0.000 C 
ATOM      2  C   UNL     1       4.445   5.452  16.932  0.00  0.00    +0.000 C 
ATOM      3  C   UNL     1       4.682   4.659  15.634  0.00  0.00    +0.000 C 
ATOM      4  N   UNL     1       5.983   4.958  15.075  0.00  0.00    +0.000 N 
ATOM      5  C   UNL     1       6.980   5.543  15.809  0.00  0.00    +0.000 A 
ATOM      6  N   UNL     1       8.036   5.697  15.041  0.00  0.00    +0.000 NA
ATOM      7  N   UNL     1       7.758   5.100  13.835  0.00  0.00    +0.000 NA
ATOM      8  C   UNL     1       6.539   4.584  13.880  0.00  0.00    +0.000 A 
ATOM      9  C   UNL     1       6.898   5.802  17.227  0.00  0.00    +0.000 C 
ATOM     10  O   UNL     1       7.835   6.186  17.920  0.00  0.00    +0.000 OA
ATOM     11  N   UNL     1       5.652   5.469  17.777  0.00  0.00    +0.000 N 
ENDROOT
BRANCH   8  12
ATOM     12  C   UNL     1       5.942   3.720  12.863  0.00  0.00    +0.000 A 
ATOM     13  C   UNL     1       4.661   3.977  12.382  0.00  0.00    +0.000 A 
ATOM     14  C   UNL     1       4.130   3.143  11.403  0.00  0.00    +0.000 A 
ATOM     15  C   UNL     1       4.890   2.081  10.931  0.00  0.00    +0.000 A 
ATOM     16  C   UNL     1       6.159   1.902  11.455  0.00  0.00    +0.000 A 
ATOM     17  N   UNL     1       6.706   2.697  12.405  0.00  0.00    +0.000 NA
ENDBRANCH   8  12
BRANCH  11  18
ATOM     18  C   UNL     1       5.546   5.244  19.212  0.00  0.00    +0.000 C 
BRANCH  18  19
ATOM     19  C   UNL     1       4.102   5.125  19.678  0.00  0.00    +0.000 A 
ATOM     20  C   UNL     1       3.356   6.308  19.845  0.00  0.00    +0.000 A 
ATOM     21  C   UNL     1       2.003   6.274  20.175  0.00  0.00    +0.000 A 
ATOM     22  C   UNL     1       1.364   5.047  20.330  0.00  0.00    +0.000 A 
ATOM     23  C   UNL     1       2.076   3.842  20.184  0.00  0.00    +0.000 A 
ATOM     24  C   UNL     1       3.456   3.892  19.905  0.00  0.00    +0.000 A 
ATOM     25 CL   UNL     1       4.360   2.414  19.839  0.00  0.00    +0.000 Cl
BRANCH  23  26
ATOM     26  C   UNL     1       1.338   2.531  20.271  0.00  0.00    +0.000 C 
ATOM     27  F   UNL     1       1.791   1.597  19.384  0.00  0.00    +0.000 F 
ATOM     28  F   UNL     1       1.451   1.944  21.494  0.00  0.00    +0.000 F 
ATOM     29  F   UNL     1       0.003   2.645  20.020  0.00  0.00    +0.000 F 
ENDBRANCH  23  26
ENDBRANCH  18  19
ENDBRANCH  11  18
TORSDOF 4
ENDMDL
MODEL 2
REMARK VINA RESULT:      -7.9      0.664      1.029
REMARK  Name = 
REMARK  5 active torsions:
REMARK  status: ('A' for Active; 'I' for Inactive)
REMARK    1  A    between atoms: C_1  and  C_2
REMARK    2  A    between atoms: C_8  and  C_9
REMARK    3  A    between atoms: N_17  and  C_18
REMARK    4  A    between atoms: C_18  and  C_19
REMARK    5  A    between atoms: C_23  and  C_24
REMARK                            x       y       z     vdW  Elec       q    Type
REMARK                         _______ _______ _______ _____ _____    ______ ____
ROOT
ATOM      1  C   UNL     1       3.930   7.077  16.673  0.00  0.00    +0.000 C 
ATOM      2  C   UNL     1       4.366   5.642  17.007  0.00  0.00    +0.000 C 
ATOM      3  C   UNL     1       4.683   4.840  15.732  0.00  0.00    +0.000 C 
ATOM      4  N   UNL     1       6.023   5.123  15.262  0.00  0.00    +0.000 N 
ATOM      5  C   UNL     1       6.973   5.702  16.060  0.00  0.00    +0.000 A 
ATOM      6  N   UNL     1       8.080   5.841  15.366  0.00  0.00    +0.000 NA
ATOM      7  N   UNL     1       7.880   5.240  14.146  0.00  0.00    +0.000 NA
ATOM      8  C   UNL     1       6.655   4.737  14.110  0.00  0.00    +0.000 A 
ATOM      9  C   UNL     1       6.797   5.970  17.468  0.00  0.00    +0.000 C 
ATOM     10  O   UNL     1       7.687   6.347  18.222  0.00  0.00    +0.000 OA
ATOM     11  N   UNL     1       5.512   5.653  17.933  0.00  0.00    +0.000 N 
ENDROOT
BRANCH   8  12
ATOM     12  C   UNL     1       6.121   3.873  13.059  0.00  0.00    +0.000 A 
ATOM     13  C   UNL     1       4.802   4.011  12.635  0.00  0.00    +0.000 A 
ATOM     14  C   UNL     1       4.331   3.183  11.621  0.00  0.00    +0.000 A 
ATOM     15  C   UNL     1       5.186   2.244  11.059  0.00  0.00    +0.000 A 
ATOM     16  C   UNL     1       6.486   2.179  11.532  0.00  0.00    +0.000 A 
ATOM     17  N   UNL     1       6.976   2.972  12.513  0.00  0.00    +0.000 NA
ENDBRANCH   8  12
BRANCH  11  18
ATOM     18  C   UNL     1       5.305   5.436  19.358  0.00  0.00    +0.000 C 
BRANCH  18  19
ATOM     19  C   UNL     1       3.880   5.012  19.683  0.00  0.00    +0.000 A 
ATOM     20  C   UNL     1       3.037   5.944  20.321  0.00  0.00    +0.000 A 
ATOM     21  C   UNL     1       1.694   5.662  20.562  0.00  0.00    +0.000 A 
ATOM     22  C   UNL     1       1.163   4.443  20.152  0.00  0.00    +0.000 A 
ATOM     23  C   UNL     1       1.974   3.480  19.522  0.00  0.00    +0.000 A 
ATOM     24  C   UNL     1       3.343   3.756  19.334  0.00  0.00    +0.000 A 
ATOM     25 CL   UNL     1       4.369   2.530  18.665  0.00  0.00    +0.000 Cl
BRANCH  23  26
ATOM     26  C   UNL     1       1.351   2.207  19.012  0.00  0.00    +0.000 C 
ATOM     27  F   UNL     1      -0.014   2.241  18.999  0.00  0.00    +0.000 F 
ATOM     28  F   UNL     1       1.710   1.922  17.730  0.00  0.00    +0.000 F 
ATOM     29  F   UNL     1       1.675   1.111  19.755  0.00  0.00    +0.000 F 
ENDBRANCH  23  26
ENDBRANCH  18  19
ENDBRANCH  11  18
TORSDOF 4
ENDMDL
MODEL 3
REMARK VINA RESULT:      -7.8      7.631     11.243
REMARK  Name = 
REMARK  5 active torsions:
REMARK  status: ('A' for Active; 'I' for Inactive)
REMARK    1  A    between atoms: C_1  and  C_2
REMARK    2  A    between atoms: C_8  and  C_9
REMARK    3  A    between atoms: N_17  and  C_18
REMARK    4  A    between atoms: C_18  and  C_19
REMARK    5  A    between atoms: C_23  and  C_24
REMARK                            x       y       z     vdW  Elec       q    Type
REMARK                         _______ _______ _______ _____ _____    ______ ____
ROOT
ATOM      1  C   UNL     1       0.496  13.727  18.535  0.00  0.00    +0.000 C 
ATOM      2  C   UNL     1       0.359  12.490  19.436  0.00  0.00    +0.000 C 
ATOM      3  C   UNL     1      -0.667  12.723  20.559  0.00  0.00    +0.000 C 
ATOM      4  N   UNL     1      -2.017  12.507  20.081  0.00  0.00    +0.000 N 
ATOM      5  C   UNL     1      -2.285  11.819  18.928  0.00  0.00    +0.000 A 
ATOM      6  N   UNL     1      -3.586  11.788  18.746  0.00  0.00    +0.000 NA
ATOM      7  N   UNL     1      -4.169  12.360  19.852  0.00  0.00    +0.000 NA
ATOM      8  C   UNL     1      -3.219  12.729  20.698  0.00  0.00    +0.000 A 
ATOM      9  C   UNL     1      -1.287  11.130  18.143  0.00  0.00    +0.000 C 
ATOM     10  O   UNL     1      -1.534  10.389  17.197  0.00  0.00    +0.000 OA
ATOM     11  N   UNL     1       0.015  11.302  18.633  0.00  0.00    +0.000 N 
ENDROOT
BRANCH   8  12
ATOM     12  C   UNL     1      -3.433  13.214  22.060  0.00  0.00    +0.000 A 
ATOM     13  C   UNL     1      -3.338  14.573  22.348  0.00  0.00    +0.000 A 
ATOM     14  C   UNL     1      -3.564  15.002  23.653  0.00  0.00    +0.000 A 
ATOM     15  C   UNL     1      -3.879  14.067  24.629  0.00  0.00    +0.000 A 
ATOM     16  C   UNL     1      -3.965  12.736  24.256  0.00  0.00    +0.000 A 
ATOM     17  N   UNL     1      -3.755  12.287  22.997  0.00  0.00    +0.000 NA
ENDBRANCH   8  12
BRANCH  11  18
ATOM     18  C   UNL     1       1.050  10.350  18.255  0.00  0.00    +0.000 C 
BRANCH  18  19
ATOM     19  C   UNL     1       1.240   9.252  19.290  0.00  0.00    +0.000 A 
ATOM     20  C   UNL     1       0.554   9.366  20.516  0.00  0.00    +0.000 A 
ATOM     21  C   UNL     1       0.602   8.354  21.473  0.00  0.00    +0.000 A 
ATOM     22  C   UNL     1       1.329   7.196  21.213  0.00  0.00    +0.000 A 
ATOM     23  C   UNL     1       2.038   7.047  20.006  0.00  0.00    +0.000 A 
ATOM     24  C   UNL     1       2.026   8.101  19.071  0.00  0.00    +0.000 A 
ATOM     25 CL   UNL     1       2.990   7.972  17.637  0.00  0.00    +0.000 Cl
BRANCH  23  26
ATOM     26  C   UNL     1       2.743   5.748  19.717  0.00  0.00    +0.000 C 
ATOM     27  F   UNL     1       2.567   4.809  20.694  0.00  0.00    +0.000 F 
ATOM     28  F   UNL     1       2.305   5.155  18.572  0.00  0.00    +0.000 F 
ATOM     29  F   UNL     1       4.094   5.882  19.589  0.00  0.00    +0.000 F 
ENDBRANCH  23  26
ENDBRANCH  18  19
ENDBRANCH  11  18
TORSDOF 4
ENDMDL
MODEL 4
REMARK VINA RESULT:      -7.7      7.441      9.851
REMARK  Name = 
REMARK  5 active torsions:
REMARK  status: ('A' for Active; 'I' for Inactive)
REMARK    1  A    between atoms: C_1  and  C_2
REMARK    2  A    between atoms: C_8  and  C_9
REMARK    3  A    between atoms: N_17  and  C_18
REMARK    4  A    between atoms: C_18  and  C_19
REMARK    5  A    between atoms: C_23  and  C_24
REMARK                            x       y       z     vdW  Elec       q    Type
REMARK                         _______ _______ _______ _____ _____    ______ ____
ROOT
ATOM      1  C   UNL     1       1.836  12.287  18.715  0.00  0.00    +0.000 C 
ATOM      2  C   UNL     1       0.568  11.423  18.664  0.00  0.00    +0.000 C 
ATOM      3  C   UNL     1       0.896   9.930  18.842  0.00  0.00    +0.000 C 
ATOM      4  N   UNL     1       1.049   9.596  20.242  0.00  0.00    +0.000 N 
ATOM      5  C   UNL     1       0.578  10.402  21.244  0.00  0.00    +0.000 A 
ATOM      6  N   UNL     1       0.865   9.851  22.401  0.00  0.00    +0.000 NA
ATOM      7  N   UNL     1       1.423   8.621  22.144  0.00  0.00    +0.000 NA
ATOM      8  C   UNL     1       1.466   8.434  20.833  0.00  0.00    +0.000 A 
ATOM      9  C   UNL     1      -0.225  11.583  21.025  0.00  0.00    +0.000 C 
ATOM     10  O   UNL     1      -0.776  12.225  21.913  0.00  0.00    +0.000 OA
ATOM     11  N   UNL     1      -0.411  11.880  19.667  0.00  0.00    +0.000 N 
ENDROOT
BRANCH   8  12
ATOM     12  C   UNL     1       1.827   7.185  20.164  0.00  0.00    +0.000 A 
ATOM     13  C   UNL     1       1.468   5.959  20.717  0.00  0.00    +0.000 A 
ATOM     14  C   UNL     1       1.814   4.790  20.045  0.00  0.00    +0.000 A 
ATOM     15  C   UNL     1       2.504   4.878  18.843  0.00  0.00    +0.000 A 
ATOM     16  C   UNL     1       2.813   6.138  18.357  0.00  0.00    +0.000 A 
ATOM     17  N   UNL     1       2.488   7.293  18.984  0.00  0.00    +0.000 NA
ENDBRANCH   8  12
BRANCH  11  18
ATOM     18  C   UNL     1      -1.523  12.732  19.271  0.00  0.00    +0.000 C 
BRANCH  18  19
ATOM     19  C   UNL     1      -2.642  11.954  18.594  0.00  0.00    +0.000 A 
ATOM     20  C   UNL     1      -2.306  11.091  17.533  0.00  0.00    +0.000 A 
ATOM     21  C   UNL     1      -3.261  10.275  16.930  0.00  0.00    +0.000 A 
ATOM     22  C   UNL     1      -4.574  10.296  17.391  0.00  0.00    +0.000 A 
ATOM     23  C   UNL     1      -4.954  11.153  18.441  0.00  0.00    +0.000 A 
ATOM     24  C   UNL     1      -3.990  12.014  19.004  0.00  0.00    +0.000 A 
ATOM     25 CL   UNL     1      -4.478  13.152  20.217  0.00  0.00    +0.000 Cl
BRANCH  23  26
ATOM     26  C   UNL     1      -6.361  11.091  18.976  0.00  0.00    +0.000 C 
ATOM     27  F   UNL     1      -7.086  10.052  18.464  0.00  0.00    +0.000 F 
ATOM     28  F   UNL     1      -6.403  10.922  20.326  0.00  0.00    +0.000 F 
ATOM     29  F   UNL     1      -7.093  12.208  18.703  0.00  0.00    +0.000 F 
ENDBRANCH  23  26
ENDBRANCH  18  19
ENDBRANCH  11  18
TORSDOF 4
ENDMDL
MODEL 5
REMARK VINA RESULT:      -7.7      7.484      9.858
REMARK  Name = 
REMARK  5 active torsions:
REMARK  status: ('A' for Active; 'I' for Inactive)
REMARK    1  A    between atoms: C_1  and  C_2
REMARK    2  A    between atoms: C_8  and  C_9
REMARK    3  A    between atoms: N_17  and  C_18
REMARK    4  A    between atoms: C_18  and  C_19
REMARK    5  A    between atoms: C_23  and  C_24
REMARK                            x       y       z     vdW  Elec       q    Type
REMARK                         _______ _______ _______ _____ _____    ______ ____
ROOT
ATOM      1  C   UNL     1       1.871  12.341  18.750  0.00  0.00    +0.000 C 
ATOM      2  C   UNL     1       0.606  11.474  18.660  0.00  0.00    +0.000 C 
ATOM      3  C   UNL     1       0.937   9.978  18.796  0.00  0.00    +0.000 C 
ATOM      4  N   UNL     1       1.078   9.603  20.188  0.00  0.00    +0.000 N 
ATOM      5  C   UNL     1       0.594  10.377  21.208  0.00  0.00    +0.000 A 
ATOM      6  N   UNL     1       0.872   9.793  22.351  0.00  0.00    +0.000 NA
ATOM      7  N   UNL     1       1.437   8.573  22.064  0.00  0.00    +0.000 NA
ATOM      8  C   UNL     1       1.493   8.424  20.748  0.00  0.00    +0.000 A 
ATOM      9  C   UNL     1      -0.210  11.562  21.017  0.00  0.00    +0.000 C 
ATOM     10  O   UNL     1      -0.772  12.175  21.918  0.00  0.00    +0.000 OA
ATOM     11  N   UNL     1      -0.384  11.898  19.667  0.00  0.00    +0.000 N 
ENDROOT
BRANCH   8  12
ATOM     12  C   UNL     1       1.865   7.198  20.045  0.00  0.00    +0.000 A 
ATOM     13  C   UNL     1       2.509   7.259  18.813  0.00  0.00    +0.000 A 
ATOM     14  C   UNL     1       2.863   6.071  18.179  0.00  0.00    +0.000 A 
ATOM     15  C   UNL     1       2.566   4.861  18.791  0.00  0.00    +0.000 A 
ATOM     16  C   UNL     1       1.933   4.889  20.023  0.00  0.00    +0.000 A 
ATOM     17  N   UNL     1       1.580   6.026  20.667  0.00  0.00    +0.000 NA
ENDBRANCH   8  12
BRANCH  11  18
ATOM     18  C   UNL     1      -1.495  12.758  19.285  0.00  0.00    +0.000 C 
BRANCH  18  19
ATOM     19  C   UNL     1      -2.625  11.990  18.615  0.00  0.00    +0.000 A 
ATOM     20  C   UNL     1      -2.301  11.114  17.560  0.00  0.00    +0.000 A 
ATOM     21  C   UNL     1      -3.267  10.306  16.964  0.00  0.00    +0.000 A 
ATOM     22  C   UNL     1      -4.579  10.348  17.426  0.00  0.00    +0.000 A 
ATOM     23  C   UNL     1      -4.947  11.218  18.470  0.00  0.00    +0.000 A 
ATOM     24  C   UNL     1      -3.972  12.070  19.026  0.00  0.00    +0.000 A 
ATOM     25 CL   UNL     1      -4.444  13.224  20.230  0.00  0.00    +0.000 Cl
BRANCH  23  26
ATOM     26  C   UNL     1      -6.354  11.178  19.006  0.00  0.00    +0.000 C 
ATOM     27  F   UNL     1      -7.066  12.312  18.738  0.00  0.00    +0.000 F 
ATOM     28  F   UNL     1      -7.090  10.163  18.476  0.00  0.00    +0.000 F 
ATOM     29  F   UNL     1      -6.413  11.029  20.360  0.00  0.00    +0.000 F 
ENDBRANCH  23  26
ENDBRANCH  18  19
ENDBRANCH  11  18
TORSDOF 4
ENDMDL
MODEL 6
REMARK VINA RESULT:      -7.6      7.624     11.246
REMARK  Name = 
REMARK  5 active torsions:
REMARK  status: ('A' for Active; 'I' for Inactive)
REMARK    1  A    between atoms: C_1  and  C_2
REMARK    2  A    between atoms: C_8  and  C_9
REMARK    3  A    between atoms: N_17  and  C_18
REMARK    4  A    between atoms: C_18  and  C_19
REMARK    5  A    between atoms: C_23  and  C_24
REMARK                            x       y       z     vdW  Elec       q    Type
REMARK                         _______ _______ _______ _____ _____    ______ ____
ROOT
ATOM      1  C   UNL     1       0.653  13.787  18.479  0.00  0.00    +0.000 C 
ATOM      2  C   UNL     1       0.526  12.572  19.410  0.00  0.00    +0.000 C 
ATOM      3  C   UNL     1      -0.452  12.849  20.566  0.00  0.00    +0.000 C 
ATOM      4  N   UNL     1      -1.823  12.651  20.144  0.00  0.00    +0.000 N 
ATOM      5  C   UNL     1      -2.148  11.945  19.017  0.00  0.00    +0.000 A 
ATOM      6  N   UNL     1      -3.455  11.938  18.885  0.00  0.00    +0.000 NA
ATOM      7  N   UNL     1      -3.985  12.544  19.999  0.00  0.00    +0.000 NA
ATOM      8  C   UNL     1      -2.996  12.911  20.801  0.00  0.00    +0.000 A 
ATOM      9  C   UNL     1      -1.195  11.220  18.210  0.00  0.00    +0.000 C 
ATOM     10  O   UNL     1      -1.492  10.465  17.290  0.00  0.00    +0.000 OA
ATOM     11  N   UNL     1       0.128  11.375  18.647  0.00  0.00    +0.000 N 
ENDROOT
BRANCH   8  12
ATOM     12  C   UNL     1      -3.149  13.429  22.159  0.00  0.00    +0.000 A 
ATOM     13  C   UNL     1      -3.658  12.618  23.169  0.00  0.00    +0.000 A 
ATOM     14  C   UNL     1      -3.776  13.138  24.455  0.00  0.00    +0.000 A 
ATOM     15  C   UNL     1      -3.382  14.448  24.695  0.00  0.00    +0.000 A 
ATOM     16  C   UNL     1      -2.876  15.183  23.636  0.00  0.00    +0.000 A 
ATOM     17  N   UNL     1      -2.745  14.705  22.376  0.00  0.00    +0.000 NA
ENDBRANCH   8  12
BRANCH  11  18
ATOM     18  C   UNL     1       1.129  10.394  18.251  0.00  0.00    +0.000 C 
BRANCH  18  19
ATOM     19  C   UNL     1       1.307   9.291  19.284  0.00  0.00    +0.000 A 
ATOM     20  C   UNL     1       0.647   9.426  20.522  0.00  0.00    +0.000 A 
ATOM     21  C   UNL     1       0.685   8.413  21.479  0.00  0.00    +0.000 A 
ATOM     22  C   UNL     1       1.373   7.235  21.206  0.00  0.00    +0.000 A 
ATOM     23  C   UNL     1       2.055   7.065  19.987  0.00  0.00    +0.000 A 
ATOM     24  C   UNL     1       2.056   8.119  19.051  0.00  0.00    +0.000 A 
ATOM     25 CL   UNL     1       2.989   7.961  17.599  0.00  0.00    +0.000 Cl
BRANCH  23  26
ATOM     26  C   UNL     1       2.717   5.746  19.686  0.00  0.00    +0.000 C 
ATOM     27  F   UNL     1       2.272   5.171  18.530  0.00  0.00    +0.000 F 
ATOM     28  F   UNL     1       4.065   5.857  19.530  0.00  0.00    +0.000 F 
ATOM     29  F   UNL     1       2.517   4.807  20.654  0.00  0.00    +0.000 F 
ENDBRANCH  23  26
ENDBRANCH  18  19
ENDBRANCH  11  18
TORSDOF 4
ENDMDL
MODEL 7
REMARK VINA RESULT:      -7.5      7.761     10.122
REMARK  Name = 
REMARK  5 active torsions:
REMARK  status: ('A' for Active; 'I' for Inactive)
REMARK    1  A    between atoms: C_1  and  C_2
REMARK    2  A    between atoms: C_8  and  C_9
REMARK    3  A    between atoms: N_17  and  C_18
REMARK    4  A    between atoms: C_18  and  C_19
REMARK    5  A    between atoms: C_23  and  C_24
REMARK                            x       y       z     vdW  Elec       q    Type
REMARK                         _______ _______ _______ _____ _____    ______ ____
ROOT
ATOM      1  C   UNL     1       1.418  13.074  20.252  0.00  0.00    +0.000 C 
ATOM      2  C   UNL     1       0.346  12.203  19.581  0.00  0.00    +0.000 C 
ATOM      3  C   UNL     1       0.878  10.791  19.278  0.00  0.00    +0.000 C 
ATOM      4  N   UNL     1       0.807   9.947  20.453  0.00  0.00    +0.000 N 
ATOM      5  C   UNL     1       0.022  10.256  21.531  0.00  0.00    +0.000 A 
ATOM      6  N   UNL     1       0.165   9.319  22.441  0.00  0.00    +0.000 NA
ATOM      7  N   UNL     1       0.960   8.337  21.899  0.00  0.00    +0.000 NA
ATOM      8  C   UNL     1       1.288   8.683  20.663  0.00  0.00    +0.000 A 
ATOM      9  C   UNL     1      -0.908  11.361  21.568  0.00  0.00    +0.000 C 
ATOM     10  O   UNL     1      -1.721  11.557  22.465  0.00  0.00    +0.000 OA
ATOM     11  N   UNL     1      -0.872  12.151  20.410  0.00  0.00    +0.000 N 
ENDROOT
BRANCH   8  12
ATOM     12  C   UNL     1       1.976   7.830  19.695  0.00  0.00    +0.000 A 
ATOM     13  C   UNL     1       2.393   8.346  18.472  0.00  0.00    +0.000 A 
ATOM     14  C   UNL     1       3.060   7.510  17.580  0.00  0.00    +0.000 A 
ATOM     15  C   UNL     1       3.291   6.187  17.935  0.00  0.00    +0.000 A 
ATOM     16  C   UNL     1       2.853   5.757  19.176  0.00  0.00    +0.000 A 
ATOM     17  N   UNL     1       2.206   6.545  20.066  0.00  0.00    +0.000 NA
ENDBRANCH   8  12
BRANCH  11  18
ATOM     18  C   UNL     1      -2.012  13.000  20.092  0.00  0.00    +0.000 C 
BRANCH  18  19
ATOM     19  C   UNL     1      -3.031  12.300  19.206  0.00  0.00    +0.000 A 
ATOM     20  C   UNL     1      -2.578  11.698  18.015  0.00  0.00    +0.000 A 
ATOM     21  C   UNL     1      -3.435  10.957  17.204  0.00  0.00    +0.000 A 
ATOM     22  C   UNL     1      -4.765  10.791  17.579  0.00  0.00    +0.000 A 
ATOM     23  C   UNL     1      -5.260  11.385  18.755  0.00  0.00    +0.000 A 
ATOM     24  C   UNL     1      -4.397  12.178  19.537  0.00  0.00    +0.000 A 
ATOM     25 CL   UNL     1      -5.030  13.006  20.922  0.00  0.00    +0.000 Cl
BRANCH  23  26
ATOM     26  C   UNL     1      -6.680  11.114  19.180  0.00  0.00    +0.000 C 
ATOM     27  F   UNL     1      -7.278  10.118  18.461  0.00  0.00    +0.000 F 
ATOM     28  F   UNL     1      -6.774  10.720  20.479  0.00  0.00    +0.000 F 
ATOM     29  F   UNL     1      -7.500  12.195  19.044  0.00  0.00    +0.000 F 
ENDBRANCH  23  26
ENDBRANCH  18  19
ENDBRANCH  11  18
TORSDOF 4
ENDMDL
MODEL 8
REMARK VINA RESULT:      -7.4      1.201      1.721
REMARK  Name = 
REMARK  5 active torsions:
REMARK  status: ('A' for Active; 'I' for Inactive)
REMARK    1  A    between atoms: C_1  and  C_2
REMARK    2  A    between atoms: C_8  and  C_9
REMARK    3  A    between atoms: N_17  and  C_18
REMARK    4  A    between atoms: C_18  and  C_19
REMARK    5  A    between atoms: C_23  and  C_24
REMARK                            x       y       z     vdW  Elec       q    Type
REMARK                         _______ _______ _______ _____ _____    ______ ____
ROOT
ATOM      1  C   UNL     1       4.134   7.028  16.392  0.00  0.00    +0.000 C 
ATOM      2  C   UNL     1       4.570   5.599  16.749  0.00  0.00    +0.000 C 
ATOM      3  C   UNL     1       4.802   4.750  15.487  0.00  0.00    +0.000 C 
ATOM      4  N   UNL     1       6.115   4.996  14.929  0.00  0.00    +0.000 N 
ATOM      5  C   UNL     1       7.118   5.588  15.650  0.00  0.00    +0.000 A 
ATOM      6  N   UNL     1       8.184   5.687  14.888  0.00  0.00    +0.000 NA
ATOM      7  N   UNL     1       7.905   5.048  13.704  0.00  0.00    +0.000 NA
ATOM      8  C   UNL     1       6.673   4.562  13.757  0.00  0.00    +0.000 A 
ATOM      9  C   UNL     1       7.028   5.906  17.056  0.00  0.00    +0.000 C 
ATOM     10  O   UNL     1       7.967   6.296  17.743  0.00  0.00    +0.000 OA
ATOM     11  N   UNL     1       5.770   5.624  17.605  0.00  0.00    +0.000 N 
ENDROOT
BRANCH   8  12
ATOM     12  C   UNL     1       6.067   3.671  12.769  0.00  0.00    +0.000 A 
ATOM     13  C   UNL     1       4.756   3.873  12.348  0.00  0.00    +0.000 A 
ATOM     14  C   UNL     1       4.215   3.015  11.395  0.00  0.00    +0.000 A 
ATOM     15  C   UNL     1       4.996   1.985  10.889  0.00  0.00    +0.000 A 
ATOM     16  C   UNL     1       6.294   1.860  11.354  0.00  0.00    +0.000 A 
ATOM     17  N   UNL     1       6.851   2.680  12.276  0.00  0.00    +0.000 NA
ENDBRANCH   8  12
BRANCH  11  18
ATOM     18  C   UNL     1       5.644   5.459  19.047  0.00  0.00    +0.000 C 
BRANCH  18  19
ATOM     19  C   UNL     1       4.701   4.327  19.425  0.00  0.00    +0.000 A 
ATOM     20  C   UNL     1       5.224   3.020  19.498  0.00  0.00    +0.000 A 
ATOM     21  C   UNL     1       4.446   1.949  19.930  0.00  0.00    +0.000 A 
ATOM     22  C   UNL     1       3.127   2.168  20.315  0.00  0.00    +0.000 A 
ATOM     23  C   UNL     1       2.562   3.456  20.246  0.00  0.00    +0.000 A 
ATOM     24  C   UNL     1       3.343   4.520  19.754  0.00  0.00    +0.000 A 
ATOM     25 CL   UNL     1       2.618   6.082  19.558  0.00  0.00    +0.000 Cl
BRANCH  23  26
ATOM     26  C   UNL     1       1.160   3.677  20.752  0.00  0.00    +0.000 C 
ATOM     27  F   UNL     1       0.198   3.294  19.862  0.00  0.00    +0.000 F 
ATOM     28  F   UNL     1       0.893   2.975  21.887  0.00  0.00    +0.000 F 
ATOM     29  F   UNL     1       0.887   4.983  21.034  0.00  0.00    +0.000 F 
ENDBRANCH  23  26
ENDBRANCH  18  19
ENDBRANCH  11  18
TORSDOF 4
ENDMDL
MODEL 9
REMARK VINA RESULT:      -7.3     10.325     12.131
REMARK  Name = 
REMARK  5 active torsions:
REMARK  status: ('A' for Active; 'I' for Inactive)
REMARK    1  A    between atoms: C_1  and  C_2
REMARK    2  A    between atoms: C_8  and  C_9
REMARK    3  A    between atoms: N_17  and  C_18
REMARK    4  A    between atoms: C_18  and  C_19
REMARK    5  A    between atoms: C_23  and  C_24
REMARK                            x       y       z     vdW  Elec       q    Type
REMARK                         _______ _______ _______ _____ _____    ______ ____
ROOT
ATOM      1  C   UNL     1       5.980  16.146  23.101  0.00  0.00    +0.000 C 
ATOM      2  C   UNL     1       6.405  15.164  21.999  0.00  0.00    +0.000 C 
ATOM      3  C   UNL     1       5.223  14.803  21.081  0.00  0.00    +0.000 C 
ATOM      4  N   UNL     1       5.019  15.822  20.074  0.00  0.00    +0.000 N 
ATOM      5  C   UNL     1       5.980  16.745  19.759  0.00  0.00    +0.000 A 
ATOM      6  N   UNL     1       5.513  17.540  18.823  0.00  0.00    +0.000 NA
ATOM      7  N   UNL     1       4.282  17.055  18.447  0.00  0.00    +0.000 NA
ATOM      8  C   UNL     1       4.015  15.967  19.154  0.00  0.00    +0.000 A 
ATOM      9  C   UNL     1       7.325  16.728  20.285  0.00  0.00    +0.000 C 
ATOM     10  O   UNL     1       8.234  17.455  19.898  0.00  0.00    +0.000 OA
ATOM     11  N   UNL     1       7.535  15.711  21.227  0.00  0.00    +0.000 N 
ENDROOT
BRANCH   8  12
ATOM     12  C   UNL     1       2.888  15.063  18.930  0.00  0.00    +0.000 A 
ATOM     13  C   UNL     1       3.093  13.806  18.368  0.00  0.00    +0.000 A 
ATOM     14  C   UNL     1       2.000  12.964  18.183  0.00  0.00    +0.000 A 
ATOM     15  C   UNL     1       0.738  13.398  18.566  0.00  0.00    +0.000 A 
ATOM     16  C   UNL     1       0.623  14.659  19.128  0.00  0.00    +0.000 A 
ATOM     17  N   UNL     1       1.666  15.499  19.324  0.00  0.00    +0.000 NA
ENDBRANCH   8  12
BRANCH  11  18
ATOM     18  C   UNL     1       8.895  15.274  21.510  0.00  0.00    +0.000 C 
BRANCH  18  19
ATOM     19  C   UNL     1       9.133  13.821  21.125  0.00  0.00    +0.000 A 
ATOM     20  C   UNL     1       9.101  12.848  22.144  0.00  0.00    +0.000 A 
ATOM     21  C   UNL     1       9.214  11.490  21.855  0.00  0.00    +0.000 A 
ATOM     22  C   UNL     1       9.346  11.077  20.532  0.00  0.00    +0.000 A 
ATOM     23  C   UNL     1       9.395  12.017  19.486  0.00  0.00    +0.000 A 
ATOM     24  C   UNL     1       9.336  13.390  19.797  0.00  0.00    +0.000 A 
ATOM     25 CL   UNL     1       9.511  14.555  18.526  0.00  0.00    +0.000 Cl
BRANCH  23  26
ATOM     26  C   UNL     1       9.450  11.536  18.059  0.00  0.00    +0.000 C 
ATOM     27  F   UNL     1       9.276  10.187  17.938  0.00  0.00    +0.000 F 
ATOM     28  F   UNL     1       8.482  12.090  17.280  0.00  0.00    +0.000 F 
ATOM     29  F   UNL     1      10.638  11.800  17.445  0.00  0.00    +0.000 F 
ENDBRANCH  23  26
ENDBRANCH  18  19
ENDBRANCH  11  18
TORSDOF 4
ENDMDL
