MODEL 1
REMARK VINA RESULT:      -7.0      0.000      0.000
REMARK  Name = 
REMARK  3 active torsions:
REMARK  status: ('A' for Active; 'I' for Inactive)
REMARK    1  A    between atoms: C_1  and  C_2
REMARK    2  A    between atoms: C_8  and  C_9
REMARK    3  A    between atoms: N_11  and  C_12
REMARK                            x       y       z     vdW  Elec       q    Type
REMARK                         _______ _______ _______ _____ _____    ______ ____
ROOT
ATOM      1  C   UNL     1       4.713   4.831  16.453  0.00  0.00    +0.000 C 
ATOM      2  O   UNL     1       4.626   6.033  16.233  0.00  0.00    +0.000 OA
ATOM      3  N   UNL     1       5.395   3.913  15.672  0.00  0.00    +0.000 N 
ATOM      4  H   UNL     1       5.261   2.933  15.879  0.00  0.00    +0.000 HD
ENDROOT
BRANCH   1  12
ATOM      5  C   UNL     1       5.623   5.036  19.425  0.00  0.00    +0.000 C 
ATOM      6  C   UNL     1       4.330   4.417  18.973  0.00  0.00    +0.000 A 
ATOM      7  C   UNL     1       3.441   3.957  19.967  0.00  0.00    +0.000 A 
ATOM      8  C   UNL     1       2.199   3.411  19.629  0.00  0.00    +0.000 A 
ATOM      9 CL   UNL     1       1.116   2.912  20.869  0.00  0.00    +0.000 Cl
ATOM     10  C   UNL     1       1.825   3.290  18.298  0.00  0.00    +0.000 A 
ATOM     11  C   UNL     1       2.695   3.734  17.303  0.00  0.00    +0.000 A 
ATOM     12  C   UNL     1       3.945   4.299  17.623  0.00  0.00    +0.000 A 
ENDBRANCH   1  12
BRANCH   3  13
ATOM     13  C   UNL     1       6.133   4.210  14.498  0.00  0.00    +0.000 A 
ATOM     14  C   UNL     1       5.902   3.626  13.253  0.00  0.00    +0.000 A 
ATOM     15  C   UNL     1       6.717   3.947  12.166  0.00  0.00    +0.000 A 
ATOM     16  C   UNL     1       7.740   4.859  12.353  0.00  0.00    +0.000 A 
ATOM     17  N   UNL     1       7.985   5.472  13.531  0.00  0.00    +0.000 NA
ATOM     18  C   UNL     1       7.175   5.135  14.567  0.00  0.00    +0.000 A 
ENDBRANCH   3  13
TORSDOF 2
ENDMDL
MODEL 2
REMARK VINA RESULT:      -7.0      3.409      6.666
REMARK  Name = 
REMARK  3 active torsions:
REMARK  status: ('A' for Active; 'I' for Inactive)
REMARK    1  A    between atoms: C_1  and  C_2
REMARK    2  A    between atoms: C_8  and  C_9
REMARK    3  A    between atoms: N_11  and  C_12
REMARK                            x       y       z     vdW  Elec       q    Type
REMARK                         _______ _______ _______ _____ _____    ______ ____
ROOT
ATOM      1  C   UNL     1       4.493   4.773  18.157  0.00  0.00    +0.000 C 
ATOM      2  O   UNL     1       4.454   5.745  18.900  0.00  0.00    +0.000 OA
ATOM      3  N   UNL     1       3.858   3.562  18.374  0.00  0.00    +0.000 N 
ATOM      4  H   UNL     1       4.096   2.793  17.762  0.00  0.00    +0.000 HD
ENDROOT
BRANCH   1  12
ATOM      5  C   UNL     1       7.589   5.107  18.231  0.00  0.00    +0.000 C 
ATOM      6  C   UNL     1       6.777   4.993  16.972  0.00  0.00    +0.000 A 
ATOM      7  C   UNL     1       7.472   4.971  15.744  0.00  0.00    +0.000 A 
ATOM      8  C   UNL     1       6.792   4.823  14.531  0.00  0.00    +0.000 A 
ATOM      9 CL   UNL     1       7.675   4.743  13.057  0.00  0.00    +0.000 Cl
ATOM     10  C   UNL     1       5.409   4.714  14.512  0.00  0.00    +0.000 A 
ATOM     11  C   UNL     1       4.706   4.740  15.717  0.00  0.00    +0.000 A 
ATOM     12  C   UNL     1       5.374   4.877  16.950  0.00  0.00    +0.000 A 
ENDBRANCH   1  12
BRANCH   3  13
ATOM     13  C   UNL     1       3.030   3.248  19.482  0.00  0.00    +0.000 A 
ATOM     14  C   UNL     1       1.655   3.475  19.527  0.00  0.00    +0.000 A 
ATOM     15  C   UNL     1       0.933   3.178  20.685  0.00  0.00    +0.000 A 
ATOM     16  C   UNL     1       1.610   2.645  21.767  0.00  0.00    +0.000 A 
ATOM     17  N   UNL     1       2.933   2.380  21.761  0.00  0.00    +0.000 NA
ATOM     18  C   UNL     1       3.605   2.684  20.621  0.00  0.00    +0.000 A 
ENDBRANCH   3  13
TORSDOF 2
ENDMDL
MODEL 3
REMARK VINA RESULT:      -6.8      3.467      6.748
REMARK  Name = 
REMARK  3 active torsions:
REMARK  status: ('A' for Active; 'I' for Inactive)
REMARK    1  A    between atoms: C_1  and  C_2
REMARK    2  A    between atoms: C_8  and  C_9
REMARK    3  A    between atoms: N_11  and  C_12
REMARK                            x       y       z     vdW  Elec       q    Type
REMARK                         _______ _______ _______ _____ _____    ______ ____
ROOT
ATOM      1  C   UNL     1       5.187   4.273  17.969  0.00  0.00    +0.000 C 
ATOM      2  O   UNL     1       5.925   3.930  18.885  0.00  0.00    +0.000 OA
ATOM      3  N   UNL     1       3.803   4.292  18.011  0.00  0.00    +0.000 N 
ATOM      4  H   UNL     1       3.311   4.448  17.141  0.00  0.00    +0.000 HD
ENDROOT
BRANCH   1  12
ATOM      5  C   UNL     1       7.366   6.467  17.594  0.00  0.00    +0.000 C 
ATOM      6  C   UNL     1       6.849   5.586  16.492  0.00  0.00    +0.000 A 
ATOM      7  C   UNL     1       7.438   5.718  15.217  0.00  0.00    +0.000 A 
ATOM      8  C   UNL     1       7.044   4.905  14.151  0.00  0.00    +0.000 A 
ATOM      9 CL   UNL     1       7.822   5.054  12.624  0.00  0.00    +0.000 Cl
ATOM     10  C   UNL     1       6.044   3.958  14.324  0.00  0.00    +0.000 A 
ATOM     11  C   UNL     1       5.447   3.818  15.577  0.00  0.00    +0.000 A 
ATOM     12  C   UNL     1       5.838   4.621  16.667  0.00  0.00    +0.000 A 
ENDBRANCH   1  12
BRANCH   3  13
ATOM     13  C   UNL     1       3.003   3.945  19.129  0.00  0.00    +0.000 A 
ATOM     14  C   UNL     1       2.789   4.771  20.232  0.00  0.00    +0.000 A 
ATOM     15  C   UNL     1       2.025   4.319  21.310  0.00  0.00    +0.000 A 
ATOM     16  C   UNL     1       1.480   3.048  21.246  0.00  0.00    +0.000 A 
ATOM     17  N   UNL     1       1.635   2.224  20.188  0.00  0.00    +0.000 NA
ATOM     18  C   UNL     1       2.386   2.695  19.161  0.00  0.00    +0.000 A 
ENDBRANCH   3  13
TORSDOF 2
ENDMDL
MODEL 4
REMARK VINA RESULT:      -6.7      3.511      6.680
REMARK  Name = 
REMARK  3 active torsions:
REMARK  status: ('A' for Active; 'I' for Inactive)
REMARK    1  A    between atoms: C_1  and  C_2
REMARK    2  A    between atoms: C_8  and  C_9
REMARK    3  A    between atoms: N_11  and  C_12
REMARK                            x       y       z     vdW  Elec       q    Type
REMARK                         _______ _______ _______ _____ _____    ______ ____
ROOT
ATOM      1  C   UNL     1       5.243   4.295  17.972  0.00  0.00    +0.000 C 
ATOM      2  O   UNL     1       5.995   3.985  18.888  0.00  0.00    +0.000 OA
ATOM      3  N   UNL     1       3.860   4.275  18.020  0.00  0.00    +0.000 N 
ATOM      4  H   UNL     1       3.360   4.405  17.151  0.00  0.00    +0.000 HD
ENDROOT
BRANCH   1  12
ATOM      5  C   UNL     1       7.305   6.591  17.547  0.00  0.00    +0.000 C 
ATOM      6  C   UNL     1       6.837   5.657  16.465  0.00  0.00    +0.000 A 
ATOM      7  C   UNL     1       7.421   5.790  15.188  0.00  0.00    +0.000 A 
ATOM      8  C   UNL     1       7.073   4.932  14.141  0.00  0.00    +0.000 A 
ATOM      9 CL   UNL     1       7.845   5.086  12.612  0.00  0.00    +0.000 Cl
ATOM     10  C   UNL     1       6.123   3.938  14.336  0.00  0.00    +0.000 A 
ATOM     11  C   UNL     1       5.532   3.797  15.591  0.00  0.00    +0.000 A 
ATOM     12  C   UNL     1       5.878   4.645  16.662  0.00  0.00    +0.000 A 
ENDBRANCH   1  12
BRANCH   3  13
ATOM     13  C   UNL     1       3.075   3.918  19.146  0.00  0.00    +0.000 A 
ATOM     14  C   UNL     1       2.639   2.624  19.426  0.00  0.00    +0.000 A 
ATOM     15  C   UNL     1       1.826   2.381  20.534  0.00  0.00    +0.000 A 
ATOM     16  C   UNL     1       1.479   3.447  21.345  0.00  0.00    +0.000 A 
ATOM     17  N   UNL     1       1.899   4.712  21.132  0.00  0.00    +0.000 NA
ATOM     18  C   UNL     1       2.686   4.912  20.044  0.00  0.00    +0.000 A 
ENDBRANCH   3  13
TORSDOF 2
ENDMDL
MODEL 5
REMARK VINA RESULT:      -6.7      1.165      1.281
REMARK  Name = 
REMARK  3 active torsions:
REMARK  status: ('A' for Active; 'I' for Inactive)
REMARK    1  A    between atoms: C_1  and  C_2
REMARK    2  A    between atoms: C_8  and  C_9
REMARK    3  A    between atoms: N_11  and  C_12
REMARK                            x       y       z     vdW  Elec       q    Type
REMARK                         _______ _______ _______ _____ _____    ______ ____
ROOT
ATOM      1  C   UNL     1       5.356   4.172  16.805  0.00  0.00    +0.000 C 
ATOM      2  O   UNL     1       6.488   4.321  17.249  0.00  0.00    +0.000 OA
ATOM      3  N   UNL     1       5.005   4.190  15.466  0.00  0.00    +0.000 N 
ATOM      4  H   UNL     1       4.019   4.209  15.241  0.00  0.00    +0.000 HD
ENDROOT
BRANCH   1  12
ATOM      5  C   UNL     1       3.661   6.541  17.906  0.00  0.00    +0.000 C 
ATOM      6  C   UNL     1       3.452   5.101  18.280  0.00  0.00    +0.000 A 
ATOM      7  C   UNL     1       2.373   4.797  19.137  0.00  0.00    +0.000 A 
ATOM      8  C   UNL     1       2.085   3.477  19.496  0.00  0.00    +0.000 A 
ATOM      9 CL   UNL     1       0.729   3.137  20.497  0.00  0.00    +0.000 Cl
ATOM     10  C   UNL     1       2.874   2.435  19.028  0.00  0.00    +0.000 A 
ATOM     11  C   UNL     1       3.948   2.719  18.185  0.00  0.00    +0.000 A 
ATOM     12  C   UNL     1       4.247   4.042  17.802  0.00  0.00    +0.000 A 
ENDBRANCH   1  12
BRANCH   3  13
ATOM     13  C   UNL     1       5.897   4.358  14.376  0.00  0.00    +0.000 A 
ATOM     14  C   UNL     1       5.819   3.650  13.177  0.00  0.00    +0.000 A 
ATOM     15  C   UNL     1       6.777   3.849  12.181  0.00  0.00    +0.000 A 
ATOM     16  C   UNL     1       7.787   4.767  12.411  0.00  0.00    +0.000 A 
ATOM     17  N   UNL     1       7.888   5.496  13.542  0.00  0.00    +0.000 NA
ATOM     18  C   UNL     1       6.942   5.275  14.490  0.00  0.00    +0.000 A 
ENDBRANCH   3  13
TORSDOF 2
ENDMDL
MODEL 6
REMARK VINA RESULT:      -6.6      3.503      6.722
REMARK  Name = 
REMARK  3 active torsions:
REMARK  status: ('A' for Active; 'I' for Inactive)
REMARK    1  A    between atoms: C_1  and  C_2
REMARK    2  A    between atoms: C_8  and  C_9
REMARK    3  A    between atoms: N_11  and  C_12
REMARK                            x       y       z     vdW  Elec       q    Type
REMARK                         _______ _______ _______ _____ _____    ______ ____
ROOT
ATOM      1  C   UNL     1       4.475   3.418  17.356  0.00  0.00    +0.000 C 
ATOM      2  O   UNL     1       4.218   2.226  17.233  0.00  0.00    +0.000 OA
ATOM      3  N   UNL     1       3.933   4.268  18.305  0.00  0.00    +0.000 N 
ATOM      4  H   UNL     1       4.111   5.258  18.202  0.00  0.00    +0.000 HD
ENDROOT
BRANCH   1  12
ATOM      5  C   UNL     1       7.236   4.714  17.990  0.00  0.00    +0.000 C 
ATOM      6  C   UNL     1       6.657   4.579  16.609  0.00  0.00    +0.000 A 
ATOM      7  C   UNL     1       7.447   5.011  15.523  0.00  0.00    +0.000 A 
ATOM      8  C   UNL     1       6.999   4.878  14.205  0.00  0.00    +0.000 A 
ATOM      9 CL   UNL     1       8.011   5.362  12.902  0.00  0.00    +0.000 Cl
ATOM     10  C   UNL     1       5.749   4.334  13.941  0.00  0.00    +0.000 A 
ATOM     11  C   UNL     1       4.953   3.908  15.005  0.00  0.00    +0.000 A 
ATOM     12  C   UNL     1       5.392   4.023  16.338  0.00  0.00    +0.000 A 
ENDBRANCH   1  12
BRANCH   3  13
ATOM     13  C   UNL     1       3.008   3.900  19.315  0.00  0.00    +0.000 A 
ATOM     14  C   UNL     1       1.677   4.316  19.355  0.00  0.00    +0.000 A 
ATOM     15  C   UNL     1       0.857   3.941  20.421  0.00  0.00    +0.000 A 
ATOM     16  C   UNL     1       1.392   3.144  21.417  0.00  0.00    +0.000 A 
ATOM     17  N   UNL     1       2.664   2.693  21.408  0.00  0.00    +0.000 NA
ATOM     18  C   UNL     1       3.434   3.079  20.359  0.00  0.00    +0.000 A 
ENDBRANCH   3  13
TORSDOF 2
ENDMDL
MODEL 7
REMARK VINA RESULT:      -6.6      0.754      1.184
REMARK  Name = 
REMARK  3 active torsions:
REMARK  status: ('A' for Active; 'I' for Inactive)
REMARK    1  A    between atoms: C_1  and  C_2
REMARK    2  A    between atoms: C_8  and  C_9
REMARK    3  A    between atoms: N_11  and  C_12
REMARK                            x       y       z     vdW  Elec       q    Type
REMARK                         _______ _______ _______ _____ _____    ______ ____
ROOT
ATOM      1  C   UNL     1       4.801   4.867  16.392  0.00  0.00    +0.000 C 
ATOM      2  O   UNL     1       4.788   6.070  16.161  0.00  0.00    +0.000 OA
ATOM      3  N   UNL     1       5.416   3.901  15.614  0.00  0.00    +0.000 N 
ATOM      4  H   UNL     1       5.222   2.932  15.831  0.00  0.00    +0.000 HD
ENDROOT
BRANCH   1  12
ATOM      5  C   UNL     1       5.677   5.189  19.363  0.00  0.00    +0.000 C 
ATOM      6  C   UNL     1       4.383   4.566  18.922  0.00  0.00    +0.000 A 
ATOM      7  C   UNL     1       3.476   4.160  19.924  0.00  0.00    +0.000 A 
ATOM      8  C   UNL     1       2.232   3.614  19.595  0.00  0.00    +0.000 A 
ATOM      9 CL   UNL     1       1.128   3.182  20.841  0.00  0.00    +0.000 Cl
ATOM     10  C   UNL     1       1.872   3.441  18.265  0.00  0.00    +0.000 A 
ATOM     11  C   UNL     1       2.759   3.832  17.262  0.00  0.00    +0.000 A 
ATOM     12  C   UNL     1       4.013   4.395  17.574  0.00  0.00    +0.000 A 
ENDBRANCH   1  12
BRANCH   3  13
ATOM     13  C   UNL     1       6.159   4.140  14.430  0.00  0.00    +0.000 A 
ATOM     14  C   UNL     1       7.234   5.024  14.339  0.00  0.00    +0.000 A 
ATOM     15  C   UNL     1       7.871   5.230  13.114  0.00  0.00    +0.000 A 
ATOM     16  C   UNL     1       7.421   4.529  12.009  0.00  0.00    +0.000 A 
ATOM     17  N   UNL     1       6.405   3.642  12.053  0.00  0.00    +0.000 NA
ATOM     18  C   UNL     1       5.806   3.469  13.259  0.00  0.00    +0.000 A 
ENDBRANCH   3  13
TORSDOF 2
ENDMDL
MODEL 8
REMARK VINA RESULT:      -6.5      1.113      1.476
REMARK  Name = 
REMARK  3 active torsions:
REMARK  status: ('A' for Active; 'I' for Inactive)
REMARK    1  A    between atoms: C_1  and  C_2
REMARK    2  A    between atoms: C_8  and  C_9
REMARK    3  A    between atoms: N_11  and  C_12
REMARK                            x       y       z     vdW  Elec       q    Type
REMARK                         _______ _______ _______ _____ _____    ______ ____
ROOT
ATOM      1  C   UNL     1       4.821   5.032  17.153  0.00  0.00    +0.000 C 
ATOM      2  O   UNL     1       5.099   6.223  17.081  0.00  0.00    +0.000 OA
ATOM      3  N   UNL     1       5.149   4.067  16.216  0.00  0.00    +0.000 N 
ATOM      4  H   UNL     1       4.730   3.153  16.318  0.00  0.00    +0.000 HD
ENDROOT
BRANCH   1  12
ATOM      5  C   UNL     1       2.339   6.574  18.232  0.00  0.00    +0.000 C 
ATOM      6  C   UNL     1       2.838   5.270  18.789  0.00  0.00    +0.000 A 
ATOM      7  C   UNL     1       2.093   4.674  19.829  0.00  0.00    +0.000 A 
ATOM      8  C   UNL     1       2.466   3.440  20.369  0.00  0.00    +0.000 A 
ATOM      9 CL   UNL     1       1.503   2.715  21.596  0.00  0.00    +0.000 Cl
ATOM     10  C   UNL     1       3.597   2.784  19.904  0.00  0.00    +0.000 A 
ATOM     11  C   UNL     1       4.348   3.363  18.881  0.00  0.00    +0.000 A 
ATOM     12  C   UNL     1       3.983   4.600  18.316  0.00  0.00    +0.000 A 
ENDBRANCH   1  12
BRANCH   3  13
ATOM     13  C   UNL     1       5.887   4.287  15.024  0.00  0.00    +0.000 A 
ATOM     14  C   UNL     1       5.567   3.731  13.785  0.00  0.00    +0.000 A 
ATOM     15  C   UNL     1       6.386   3.966  12.679  0.00  0.00    +0.000 A 
ATOM     16  C   UNL     1       7.503   4.766  12.842  0.00  0.00    +0.000 A 
ATOM     17  N   UNL     1       7.837   5.349  14.012  0.00  0.00    +0.000 NA
ATOM     18  C   UNL     1       7.021   5.097  15.067  0.00  0.00    +0.000 A 
ENDBRANCH   3  13
TORSDOF 2
ENDMDL
MODEL 9
REMARK VINA RESULT:      -6.5      3.706      4.169
REMARK  Name = 
REMARK  3 active torsions:
REMARK  status: ('A' for Active; 'I' for Inactive)
REMARK    1  A    between atoms: C_1  and  C_2
REMARK    2  A    between atoms: C_8  and  C_9
REMARK    3  A    between atoms: N_11  and  C_12
REMARK                            x       y       z     vdW  Elec       q    Type
REMARK                         _______ _______ _______ _____ _____    ______ ____
ROOT
ATOM      1  C   UNL     1       3.180   6.279  17.907  0.00  0.00    +0.000 C 
ATOM      2  O   UNL     1       2.720   5.167  17.678  0.00  0.00    +0.000 OA
ATOM      3  N   UNL     1       4.423   6.738  17.509  0.00  0.00    +0.000 N 
ATOM      4  H   UNL     1       4.743   7.617  17.893  0.00  0.00    +0.000 HD
ENDROOT
BRANCH   1  12
ATOM      5  C   UNL     1       2.237   5.631  20.805  0.00  0.00    +0.000 C 
ATOM      6  C   UNL     1       1.955   6.921  20.088  0.00  0.00    +0.000 A 
ATOM      7  C   UNL     1       1.273   7.931  20.800  0.00  0.00    +0.000 A 
ATOM      8  C   UNL     1       1.013   9.175  20.220  0.00  0.00    +0.000 A 
ATOM      9 CL   UNL     1       0.230  10.402  21.136  0.00  0.00    +0.000 Cl
ATOM     10  C   UNL     1       1.405   9.435  18.914  0.00  0.00    +0.000 A 
ATOM     11  C   UNL     1       2.074   8.446  18.193  0.00  0.00    +0.000 A 
ATOM     12  C   UNL     1       2.356   7.190  18.765  0.00  0.00    +0.000 A 
ENDBRANCH   1  12
BRANCH   3  13
ATOM     13  C   UNL     1       5.369   6.009  16.742  0.00  0.00    +0.000 A 
ATOM     14  C   UNL     1       5.281   5.810  15.365  0.00  0.00    +0.000 A 
ATOM     15  C   UNL     1       6.236   5.033  14.706  0.00  0.00    +0.000 A 
ATOM     16  C   UNL     1       7.268   4.485  15.448  0.00  0.00    +0.000 A 
ATOM     17  N   UNL     1       7.411   4.674  16.777  0.00  0.00    +0.000 NA
ATOM     18  C   UNL     1       6.463   5.431  17.385  0.00  0.00    +0.000 A 
ENDBRANCH   3  13
TORSDOF 2
ENDMDL
