MODEL 1
REMARK VINA RESULT:      -8.8      0.000      0.000
REMARK  Name = 
REMARK  5 active torsions:
REMARK  status: ('A' for Active; 'I' for Inactive)
REMARK    1  A    between atoms: C_1  and  N_2
REMARK    2  A    between atoms: C_8  and  N_9
REMARK    3  A    between atoms: C_12  and  O_13
REMARK    4  A    between atoms: O_13  and  C_14
REMARK    5  A    between atoms: C_14  and  C_15
REMARK                            x       y       z     vdW  Elec       q    Type
REMARK                         _______ _______ _______ _____ _____    ______ ____
ROOT
ATOM      1  C   UNL     1       1.366  10.607  18.012  0.00  0.00    +0.000 C 
ATOM      2  N   UNL     1       1.126   9.667  19.084  0.00  0.00    +0.000 N 
ATOM      3  C   UNL     1       0.284   9.826  20.161  0.00  0.00    +0.000 A 
ATOM      4  C   UNL     1       0.356   8.679  20.929  0.00  0.00    +0.000 A 
ATOM      5  C   UNL     1       1.265   7.792  20.301  0.00  0.00    +0.000 A 
ATOM      6  C   UNL     1       1.727   6.504  20.624  0.00  0.00    +0.000 A 
ATOM      7  C   UNL     1       2.666   5.893  19.798  0.00  0.00    +0.000 A 
ATOM      8  C   UNL     1       3.188   6.560  18.686  0.00  0.00    +0.000 A 
ATOM      9  C   UNL     1       2.766   7.859  18.364  0.00  0.00    +0.000 A 
ATOM     10  C   UNL     1       1.773   8.443  19.175  0.00  0.00    +0.000 A 
ATOM     11  C   UNL     1      -0.339   8.505  22.238  0.00  0.00    +0.000 C 
ATOM     12  C   UNL     1       0.108   9.575  23.248  0.00  0.00    +0.000 C 
ATOM     13  N   UNL     1      -0.515  10.899  23.072  0.00  0.00    +0.000 NA
ATOM     14  C   UNL     1      -0.055  11.622  21.871  0.00  0.00    +0.000 C 
ATOM     15  C   UNL     1      -0.512  11.043  20.515  0.00  0.00    +0.000 C 
ATOM     16  H   UNL     1      -0.261  11.464  23.883  0.00  0.00    +0.000 HD
ENDROOT
BRANCH   8  17
ATOM     17  N   UNL     1       4.101   5.861  17.849  0.00  0.00    +0.000 N 
ATOM     18  C   UNL     1       5.310   6.461  17.535  0.00  0.00    +0.000 A 
ATOM     19  C   UNL     1       6.179   5.902  16.692  0.00  0.00    +0.000 A 
ATOM     20  C   UNL     1       5.872   4.633  16.079  0.00  0.00    +0.000 A 
ATOM     21  C   UNL     1       4.704   4.030  16.337  0.00  0.00    +0.000 A 
ATOM     22  C   UNL     1       3.728   4.627  17.293  0.00  0.00    +0.000 A 
ATOM     23  O   UNL     1       2.672   4.029  17.496  0.00  0.00    +0.000 OA
BRANCH  20  24
ATOM     24  O   UNL     1       6.772   4.051  15.210  0.00  0.00    +0.000 OA
BRANCH  24  25
ATOM     25  C   UNL     1       6.901   4.667  13.927  0.00  0.00    +0.000 C 
BRANCH  25  26
ATOM     26  C   UNL     1       6.241   3.796  12.897  0.00  0.00    +0.000 A 
ATOM     27  C   UNL     1       6.966   2.817  12.211  0.00  0.00    +0.000 A 
ATOM     28  C   UNL     1       6.340   2.017  11.254  0.00  0.00    +0.000 A 
ATOM     29  C   UNL     1       4.983   2.197  10.979  0.00  0.00    +0.000 A 
ATOM     30  C   UNL     1       4.255   3.174  11.654  0.00  0.00    +0.000 A 
ATOM     31  C   UNL     1       4.882   3.975  12.608  0.00  0.00    +0.000 A 
ENDBRANCH  25  26
ENDBRANCH  24  25
ENDBRANCH  20  24
ENDBRANCH   8  17
TORSDOF 4
ENDMDL
MODEL 2
REMARK VINA RESULT:      -8.7      3.823     10.954
REMARK  Name = 
REMARK  5 active torsions:
REMARK  status: ('A' for Active; 'I' for Inactive)
REMARK    1  A    between atoms: C_1  and  N_2
REMARK    2  A    between atoms: C_8  and  N_9
REMARK    3  A    between atoms: C_12  and  O_13
REMARK    4  A    between atoms: O_13  and  C_14
REMARK    5  A    between atoms: C_14  and  C_15
REMARK                            x       y       z     vdW  Elec       q    Type
REMARK                         _______ _______ _______ _____ _____    ______ ____
ROOT
ATOM      1  C   UNL     1       1.863   5.126  20.918  0.00  0.00    +0.000 C 
ATOM      2  N   UNL     1       2.482   5.705  19.746  0.00  0.00    +0.000 N 
ATOM      3  C   UNL     1       3.389   5.108  18.900  0.00  0.00    +0.000 A 
ATOM      4  C   UNL     1       3.708   6.018  17.909  0.00  0.00    +0.000 A 
ATOM      5  C   UNL     1       2.969   7.202  18.153  0.00  0.00    +0.000 A 
ATOM      6  C   UNL     1       2.894   8.440  17.490  0.00  0.00    +0.000 A 
ATOM      7  C   UNL     1       2.075   9.438  18.008  0.00  0.00    +0.000 A 
ATOM      8  C   UNL     1       1.371   9.245  19.200  0.00  0.00    +0.000 A 
ATOM      9  C   UNL     1       1.459   8.030  19.898  0.00  0.00    +0.000 A 
ATOM     10  C   UNL     1       2.246   7.007  19.331  0.00  0.00    +0.000 A 
ATOM     11  C   UNL     1       4.737   5.780  16.855  0.00  0.00    +0.000 C 
ATOM     12  C   UNL     1       6.117   5.516  17.479  0.00  0.00    +0.000 C 
ATOM     13  N   UNL     1       6.315   4.154  18.008  0.00  0.00    +0.000 NA
ATOM     14  C   UNL     1       5.538   3.867  19.229  0.00  0.00    +0.000 C 
ATOM     15  C   UNL     1       4.010   3.754  19.048  0.00  0.00    +0.000 C 
ATOM     16  H   UNL     1       7.303   4.062  18.246  0.00  0.00    +0.000 HD
ENDROOT
BRANCH   8  17
ATOM     17  N   UNL     1       0.507  10.282  19.649  0.00  0.00    +0.000 N 
ATOM     18  C   UNL     1       0.831  10.963  20.811  0.00  0.00    +0.000 A 
ATOM     19  C   UNL     1       0.029  11.890  21.334  0.00  0.00    +0.000 A 
ATOM     20  C   UNL     1      -1.219  12.211  20.685  0.00  0.00    +0.000 A 
ATOM     21  C   UNL     1      -1.581  11.560  19.573  0.00  0.00    +0.000 A 
ATOM     22  C   UNL     1      -0.689  10.536  18.958  0.00  0.00    +0.000 A 
ATOM     23  O   UNL     1      -1.069   9.971  17.934  0.00  0.00    +0.000 OA
BRANCH  20  24
ATOM     24  O   UNL     1      -2.049  13.173  21.223  0.00  0.00    +0.000 OA
BRANCH  24  25
ATOM     25  C   UNL     1      -3.438  13.061  20.904  0.00  0.00    +0.000 C 
BRANCH  25  26
ATOM     26  C   UNL     1      -4.220  12.886  22.174  0.00  0.00    +0.000 A 
ATOM     27  C   UNL     1      -3.575  12.621  23.385  0.00  0.00    +0.000 A 
ATOM     28  C   UNL     1      -4.316  12.459  24.557  0.00  0.00    +0.000 A 
ATOM     29  C   UNL     1      -5.707  12.558  24.518  0.00  0.00    +0.000 A 
ATOM     30  C   UNL     1      -6.358  12.816  23.314  0.00  0.00    +0.000 A 
ATOM     31  C   UNL     1      -5.618  12.976  22.143  0.00  0.00    +0.000 A 
ENDBRANCH  25  26
ENDBRANCH  24  25
ENDBRANCH  20  24
ENDBRANCH   8  17
TORSDOF 4
ENDMDL
MODEL 3
REMARK VINA RESULT:      -8.6      3.978     11.142
REMARK  Name = 
REMARK  5 active torsions:
REMARK  status: ('A' for Active; 'I' for Inactive)
REMARK    1  A    between atoms: C_1  and  N_2
REMARK    2  A    between atoms: C_8  and  N_9
REMARK    3  A    between atoms: C_12  and  O_13
REMARK    4  A    between atoms: O_13  and  C_14
REMARK    5  A    between atoms: C_14  and  C_15
REMARK                            x       y       z     vdW  Elec       q    Type
REMARK                         _______ _______ _______ _____ _____    ______ ____
ROOT
ATOM      1  C   UNL     1       2.254   5.099  20.853  0.00  0.00    +0.000 C 
ATOM      2  N   UNL     1       2.676   5.872  19.706  0.00  0.00    +0.000 N 
ATOM      3  C   UNL     1       3.560   5.490  18.722  0.00  0.00    +0.000 A 
ATOM      4  C   UNL     1       3.663   6.531  17.818  0.00  0.00    +0.000 A 
ATOM      5  C   UNL     1       2.814   7.576  18.259  0.00  0.00    +0.000 A 
ATOM      6  C   UNL     1       2.521   8.854  17.751  0.00  0.00    +0.000 A 
ATOM      7  C   UNL     1       1.643   9.676  18.449  0.00  0.00    +0.000 A 
ATOM      8  C   UNL     1       1.091   9.270  19.668  0.00  0.00    +0.000 A 
ATOM      9  C   UNL     1       1.397   8.013  20.211  0.00  0.00    +0.000 A 
ATOM     10  C   UNL     1       2.241   7.167  19.465  0.00  0.00    +0.000 A 
ATOM     11  C   UNL     1       4.602   6.540  16.659  0.00  0.00    +0.000 C 
ATOM     12  C   UNL     1       6.060   6.399  17.126  0.00  0.00    +0.000 C 
ATOM     13  N   UNL     1       6.475   5.029  17.476  0.00  0.00    +0.000 NA
ATOM     14  C   UNL     1       5.866   4.518  18.719  0.00  0.00    +0.000 C 
ATOM     15  C   UNL     1       4.352   4.222  18.660  0.00  0.00    +0.000 C 
ATOM     16  H   UNL     1       7.485   5.044  17.616  0.00  0.00    +0.000 HD
ENDROOT
BRANCH   8  17
ATOM     17  N   UNL     1       0.157  10.132  20.305  0.00  0.00    +0.000 N 
ATOM     18  C   UNL     1      -0.836  10.722  19.540  0.00  0.00    +0.000 A 
ATOM     19  C   UNL     1      -1.696  11.602  20.054  0.00  0.00    +0.000 A 
ATOM     20  C   UNL     1      -1.608  11.965  21.447  0.00  0.00    +0.000 A 
ATOM     21  C   UNL     1      -0.649  11.435  22.217  0.00  0.00    +0.000 A 
ATOM     22  C   UNL     1       0.308  10.432  21.669  0.00  0.00    +0.000 A 
ATOM     23  O   UNL     1       1.167   9.976  22.422  0.00  0.00    +0.000 OA
BRANCH  20  24
ATOM     24  O   UNL     1      -2.499  12.873  21.981  0.00  0.00    +0.000 OA
BRANCH  24  25
ATOM     25  C   UNL     1      -3.623  13.212  21.166  0.00  0.00    +0.000 C 
BRANCH  25  26
ATOM     26  C   UNL     1      -4.885  12.928  21.929  0.00  0.00    +0.000 A 
ATOM     27  C   UNL     1      -6.050  12.528  21.269  0.00  0.00    +0.000 A 
ATOM     28  C   UNL     1      -7.216  12.270  21.992  0.00  0.00    +0.000 A 
ATOM     29  C   UNL     1      -7.219  12.416  23.380  0.00  0.00    +0.000 A 
ATOM     30  C   UNL     1      -6.063  12.820  24.044  0.00  0.00    +0.000 A 
ATOM     31  C   UNL     1      -4.899  13.080  23.322  0.00  0.00    +0.000 A 
ENDBRANCH  25  26
ENDBRANCH  24  25
ENDBRANCH  20  24
ENDBRANCH   8  17
TORSDOF 4
ENDMDL
MODEL 4
REMARK VINA RESULT:      -8.5      3.872     10.803
REMARK  Name = 
REMARK  5 active torsions:
REMARK  status: ('A' for Active; 'I' for Inactive)
REMARK    1  A    between atoms: C_1  and  N_2
REMARK    2  A    between atoms: C_8  and  N_9
REMARK    3  A    between atoms: C_12  and  O_13
REMARK    4  A    between atoms: O_13  and  C_14
REMARK    5  A    between atoms: C_14  and  C_15
REMARK                            x       y       z     vdW  Elec       q    Type
REMARK                         _______ _______ _______ _____ _____    ______ ____
ROOT
ATOM      1  C   UNL     1       2.155   4.902  20.940  0.00  0.00    +0.000 C 
ATOM      2  N   UNL     1       2.639   5.605  19.773  0.00  0.00    +0.000 N 
ATOM      3  C   UNL     1       3.527   5.141  18.829  0.00  0.00    +0.000 A 
ATOM      4  C   UNL     1       3.701   6.136  17.885  0.00  0.00    +0.000 A 
ATOM      5  C   UNL     1       2.892   7.237  18.261  0.00  0.00    +0.000 A 
ATOM      6  C   UNL     1       2.672   8.505  17.692  0.00  0.00    +0.000 A 
ATOM      7  C   UNL     1       1.818   9.396  18.334  0.00  0.00    +0.000 A 
ATOM      8  C   UNL     1       1.219   9.068  19.554  0.00  0.00    +0.000 A 
ATOM      9  C   UNL     1       1.452   7.822  20.156  0.00  0.00    +0.000 A 
ATOM     10  C   UNL     1       2.273   6.907  19.468  0.00  0.00    +0.000 A 
ATOM     11  C   UNL     1       4.666   6.052  16.750  0.00  0.00    +0.000 C 
ATOM     12  C   UNL     1       6.104   5.864  17.260  0.00  0.00    +0.000 C 
ATOM     13  N   UNL     1       6.445   4.492  17.677  0.00  0.00    +0.000 NA
ATOM     14  C   UNL     1       5.784   4.064  18.924  0.00  0.00    +0.000 C 
ATOM     15  C   UNL     1       4.260   3.836  18.839  0.00  0.00    +0.000 C 
ATOM     16  H   UNL     1       7.452   4.467  17.842  0.00  0.00    +0.000 HD
ENDROOT
BRANCH   8  17
ATOM     17  N   UNL     1       0.312   9.999  20.131  0.00  0.00    +0.000 N 
ATOM     18  C   UNL     1      -0.678  10.548  19.332  0.00  0.00    +0.000 A 
ATOM     19  C   UNL     1      -1.511  11.486  19.784  0.00  0.00    +0.000 A 
ATOM     20  C   UNL     1      -1.398  11.955  21.143  0.00  0.00    +0.000 A 
ATOM     21  C   UNL     1      -0.440  11.467  21.942  0.00  0.00    +0.000 A 
ATOM     22  C   UNL     1       0.488  10.403  21.464  0.00  0.00    +0.000 A 
ATOM     23  O   UNL     1       1.346   9.988  22.241  0.00  0.00    +0.000 OA
BRANCH  20  24
ATOM     24  O   UNL     1      -2.262  12.923  21.613  0.00  0.00    +0.000 OA
BRANCH  24  25
ATOM     25  C   UNL     1      -3.197  13.450  20.669  0.00  0.00    +0.000 C 
BRANCH  25  26
ATOM     26  C   UNL     1      -4.579  12.999  21.045  0.00  0.00    +0.000 A 
ATOM     27  C   UNL     1      -5.095  13.248  22.320  0.00  0.00    +0.000 A 
ATOM     28  C   UNL     1      -6.381  12.821  22.656  0.00  0.00    +0.000 A 
ATOM     29  C   UNL     1      -7.153  12.139  21.714  0.00  0.00    +0.000 A 
ATOM     30  C   UNL     1      -6.645  11.882  20.444  0.00  0.00    +0.000 A 
ATOM     31  C   UNL     1      -5.359  12.307  20.110  0.00  0.00    +0.000 A 
ENDBRANCH  25  26
ENDBRANCH  24  25
ENDBRANCH  20  24
ENDBRANCH   8  17
TORSDOF 4
ENDMDL
MODEL 5
REMARK VINA RESULT:      -8.4      4.074     11.538
REMARK  Name = 
REMARK  5 active torsions:
REMARK  status: ('A' for Active; 'I' for Inactive)
REMARK    1  A    between atoms: C_1  and  N_2
REMARK    2  A    between atoms: C_8  and  N_9
REMARK    3  A    between atoms: C_12  and  O_13
REMARK    4  A    between atoms: O_13  and  C_14
REMARK    5  A    between atoms: C_14  and  C_15
REMARK                            x       y       z     vdW  Elec       q    Type
REMARK                         _______ _______ _______ _____ _____    ______ ____
ROOT
ATOM      1  C   UNL     1       2.199   5.074  20.875  0.00  0.00    +0.000 C 
ATOM      2  N   UNL     1       2.611   5.892  19.755  0.00  0.00    +0.000 N 
ATOM      3  C   UNL     1       3.485   5.548  18.749  0.00  0.00    +0.000 A 
ATOM      4  C   UNL     1       3.582   6.624  17.886  0.00  0.00    +0.000 A 
ATOM      5  C   UNL     1       2.739   7.651  18.376  0.00  0.00    +0.000 A 
ATOM      6  C   UNL     1       2.443   8.949  17.922  0.00  0.00    +0.000 A 
ATOM      7  C   UNL     1       1.573   9.745  18.661  0.00  0.00    +0.000 A 
ATOM      8  C   UNL     1       1.032   9.291  19.867  0.00  0.00    +0.000 A 
ATOM      9  C   UNL     1       1.340   8.013  20.357  0.00  0.00    +0.000 A 
ATOM     10  C   UNL     1       2.177   7.196  19.570  0.00  0.00    +0.000 A 
ATOM     11  C   UNL     1       4.510   6.678  16.719  0.00  0.00    +0.000 C 
ATOM     12  C   UNL     1       5.972   6.517  17.167  0.00  0.00    +0.000 C 
ATOM     13  N   UNL     1       6.388   5.133  17.458  0.00  0.00    +0.000 NA
ATOM     14  C   UNL     1       5.790   4.574  18.685  0.00  0.00    +0.000 C 
ATOM     15  C   UNL     1       4.275   4.283  18.629  0.00  0.00    +0.000 C 
ATOM     16  H   UNL     1       7.400   5.142  17.588  0.00  0.00    +0.000 HD
ENDROOT
BRANCH   8  17
ATOM     17  N   UNL     1       0.105  10.128  20.547  0.00  0.00    +0.000 N 
ATOM     18  C   UNL     1      -0.821  10.841  19.803  0.00  0.00    +0.000 A 
ATOM     19  C   UNL     1      -1.666  11.705  20.365  0.00  0.00    +0.000 A 
ATOM     20  C   UNL     1      -1.634  11.919  21.791  0.00  0.00    +0.000 A 
ATOM     21  C   UNL     1      -0.739  11.267  22.545  0.00  0.00    +0.000 A 
ATOM     22  C   UNL     1       0.200  10.280  21.940  0.00  0.00    +0.000 A 
ATOM     23  O   UNL     1       0.999   9.707  22.680  0.00  0.00    +0.000 OA
BRANCH  20  24
ATOM     24  O   UNL     1      -2.510  12.810  22.375  0.00  0.00    +0.000 OA
BRANCH  24  25
ATOM     25  C   UNL     1      -3.195  12.351  23.542  0.00  0.00    +0.000 C 
BRANCH  25  26
ATOM     26  C   UNL     1      -4.486  13.107  23.681  0.00  0.00    +0.000 A 
ATOM     27  C   UNL     1      -5.668  12.452  24.039  0.00  0.00    +0.000 A 
ATOM     28  C   UNL     1      -6.860  13.168  24.162  0.00  0.00    +0.000 A 
ATOM     29  C   UNL     1      -6.872  14.542  23.923  0.00  0.00    +0.000 A 
ATOM     30  C   UNL     1      -5.700  15.201  23.560  0.00  0.00    +0.000 A 
ATOM     31  C   UNL     1      -4.510  14.486  23.435  0.00  0.00    +0.000 A 
ENDBRANCH  25  26
ENDBRANCH  24  25
ENDBRANCH  20  24
ENDBRANCH   8  17
TORSDOF 4
ENDMDL
MODEL 6
REMARK VINA RESULT:      -8.3      3.970     11.201
REMARK  Name = 
REMARK  5 active torsions:
REMARK  status: ('A' for Active; 'I' for Inactive)
REMARK    1  A    between atoms: C_1  and  N_2
REMARK    2  A    between atoms: C_8  and  N_9
REMARK    3  A    between atoms: C_12  and  O_13
REMARK    4  A    between atoms: O_13  and  C_14
REMARK    5  A    between atoms: C_14  and  C_15
REMARK                            x       y       z     vdW  Elec       q    Type
REMARK                         _______ _______ _______ _____ _____    ______ ____
ROOT
ATOM      1  C   UNL     1       2.237   4.816  20.958  0.00  0.00    +0.000 C 
ATOM      2  N   UNL     1       2.599   5.668  19.846  0.00  0.00    +0.000 N 
ATOM      3  C   UNL     1       3.398   5.344  18.773  0.00  0.00    +0.000 A 
ATOM      4  C   UNL     1       3.468   6.450  17.947  0.00  0.00    +0.000 A 
ATOM      5  C   UNL     1       2.684   7.477  18.530  0.00  0.00    +0.000 A 
ATOM      6  C   UNL     1       2.394   8.799  18.145  0.00  0.00    +0.000 A 
ATOM      7  C   UNL     1       1.594   9.584  18.968  0.00  0.00    +0.000 A 
ATOM      8  C   UNL     1       1.119   9.096  20.189  0.00  0.00    +0.000 A 
ATOM      9  C   UNL     1       1.425   7.792  20.609  0.00  0.00    +0.000 A 
ATOM     10  C   UNL     1       2.188   6.988  19.739  0.00  0.00    +0.000 A 
ATOM     11  C   UNL     1       4.321   6.529  16.726  0.00  0.00    +0.000 C 
ATOM     12  C   UNL     1       5.803   6.316  17.072  0.00  0.00    +0.000 C 
ATOM     13  N   UNL     1       6.201   4.912  17.283  0.00  0.00    +0.000 NA
ATOM     14  C   UNL     1       5.667   4.319  18.524  0.00  0.00    +0.000 C 
ATOM     15  C   UNL     1       4.145   4.066  18.554  0.00  0.00    +0.000 C 
ATOM     16  H   UNL     1       7.219   4.891  17.348  0.00  0.00    +0.000 HD
ENDROOT
BRANCH   8  17
ATOM     17  N   UNL     1       0.259   9.927  20.959  0.00  0.00    +0.000 N 
ATOM     18  C   UNL     1       0.085   9.642  22.303  0.00  0.00    +0.000 A 
ATOM     19  C   UNL     1      -0.766  10.327  23.067  0.00  0.00    +0.000 A 
ATOM     20  C   UNL     1      -1.538  11.404  22.497  0.00  0.00    +0.000 A 
ATOM     21  C   UNL     1      -1.417  11.698  21.196  0.00  0.00    +0.000 A 
ATOM     22  C   UNL     1      -0.455  10.959  20.329  0.00  0.00    +0.000 A 
ATOM     23  O   UNL     1      -0.381  11.273  19.142  0.00  0.00    +0.000 OA
BRANCH  20  24
ATOM     24  O   UNL     1      -2.417  12.117  23.286  0.00  0.00    +0.000 OA
BRANCH  24  25
ATOM     25  C   UNL     1      -3.118  13.185  22.647  0.00  0.00    +0.000 C 
BRANCH  25  26
ATOM     26  C   UNL     1      -4.595  12.935  22.754  0.00  0.00    +0.000 A 
ATOM     27  C   UNL     1      -5.235  12.927  23.996  0.00  0.00    +0.000 A 
ATOM     28  C   UNL     1      -6.608  12.690  24.080  0.00  0.00    +0.000 A 
ATOM     29  C   UNL     1      -7.345  12.457  22.917  0.00  0.00    +0.000 A 
ATOM     30  C   UNL     1      -6.713  12.458  21.676  0.00  0.00    +0.000 A 
ATOM     31  C   UNL     1      -5.341  12.692  21.593  0.00  0.00    +0.000 A 
ENDBRANCH  25  26
ENDBRANCH  24  25
ENDBRANCH  20  24
ENDBRANCH   8  17
TORSDOF 4
ENDMDL
MODEL 7
REMARK VINA RESULT:      -8.3      3.004      4.875
REMARK  Name = 
REMARK  5 active torsions:
REMARK  status: ('A' for Active; 'I' for Inactive)
REMARK    1  A    between atoms: C_1  and  N_2
REMARK    2  A    between atoms: C_8  and  N_9
REMARK    3  A    between atoms: C_12  and  O_13
REMARK    4  A    between atoms: O_13  and  C_14
REMARK    5  A    between atoms: C_14  and  C_15
REMARK                            x       y       z     vdW  Elec       q    Type
REMARK                         _______ _______ _______ _____ _____    ______ ____
ROOT
ATOM      1  C   UNL     1      -1.788  11.858  18.204  0.00  0.00    +0.000 C 
ATOM      2  N   UNL     1      -1.457  11.691  19.602  0.00  0.00    +0.000 N 
ATOM      3  C   UNL     1      -1.929  12.426  20.665  0.00  0.00    +0.000 A 
ATOM      4  C   UNL     1      -1.359  11.919  21.818  0.00  0.00    +0.000 A 
ATOM      5  C   UNL     1      -0.518  10.840  21.449  0.00  0.00    +0.000 A 
ATOM      6  C   UNL     1       0.304   9.968  22.185  0.00  0.00    +0.000 A 
ATOM      7  C   UNL     1       1.046   9.005  21.510  0.00  0.00    +0.000 A 
ATOM      8  C   UNL     1       1.025   8.926  20.114  0.00  0.00    +0.000 A 
ATOM      9  C   UNL     1       0.239   9.809  19.358  0.00  0.00    +0.000 A 
ATOM     10  C   UNL     1      -0.553  10.741  20.057  0.00  0.00    +0.000 A 
ATOM     11  C   UNL     1      -1.547  12.513  23.174  0.00  0.00    +0.000 C 
ATOM     12  C   UNL     1      -1.061  13.971  23.212  0.00  0.00    +0.000 C 
ATOM     13  N   UNL     1      -1.992  14.955  22.630  0.00  0.00    +0.000 NA
ATOM     14  C   UNL     1      -2.111  14.872  21.162  0.00  0.00    +0.000 C 
ATOM     15  C   UNL     1      -2.828  13.622  20.611  0.00  0.00    +0.000 C 
ATOM     16  H   UNL     1      -1.631  15.883  22.855  0.00  0.00    +0.000 HD
ENDROOT
BRANCH   8  17
ATOM     17  N   UNL     1       1.761   7.884  19.486  0.00  0.00    +0.000 N 
ATOM     18  C   UNL     1       2.016   6.725  20.200  0.00  0.00    +0.000 A 
ATOM     19  C   UNL     1       2.768   5.741  19.705  0.00  0.00    +0.000 A 
ATOM     20  C   UNL     1       3.340   5.866  18.387  0.00  0.00    +0.000 A 
ATOM     21  C   UNL     1       3.137   6.980  17.672  0.00  0.00    +0.000 A 
ATOM     22  C   UNL     1       2.282   8.083  18.197  0.00  0.00    +0.000 A 
ATOM     23  O   UNL     1       2.126   9.082  17.497  0.00  0.00    +0.000 OA
BRANCH  20  24
ATOM     24  O   UNL     1       4.115   4.847  17.871  0.00  0.00    +0.000 OA
BRANCH  24  25
ATOM     25  C   UNL     1       5.061   5.218  16.867  0.00  0.00    +0.000 C 
BRANCH  25  26
ATOM     26  C   UNL     1       6.222   5.911  17.519  0.00  0.00    +0.000 A 
ATOM     27  C   UNL     1       6.898   5.325  18.593  0.00  0.00    +0.000 A 
ATOM     28  C   UNL     1       7.974   5.983  19.191  0.00  0.00    +0.000 A 
ATOM     29  C   UNL     1       8.375   7.233  18.716  0.00  0.00    +0.000 A 
ATOM     30  C   UNL     1       7.703   7.825  17.650  0.00  0.00    +0.000 A 
ATOM     31  C   UNL     1       6.627   7.169  17.055  0.00  0.00    +0.000 A 
ENDBRANCH  25  26
ENDBRANCH  24  25
ENDBRANCH  20  24
ENDBRANCH   8  17
TORSDOF 4
ENDMDL
MODEL 8
REMARK VINA RESULT:      -8.3      4.083     11.198
REMARK  Name = 
REMARK  5 active torsions:
REMARK  status: ('A' for Active; 'I' for Inactive)
REMARK    1  A    between atoms: C_1  and  N_2
REMARK    2  A    between atoms: C_8  and  N_9
REMARK    3  A    between atoms: C_12  and  O_13
REMARK    4  A    between atoms: O_13  and  C_14
REMARK    5  A    between atoms: C_14  and  C_15
REMARK                            x       y       z     vdW  Elec       q    Type
REMARK                         _______ _______ _______ _____ _____    ______ ____
ROOT
ATOM      1  C   UNL     1       1.959   5.427  20.868  0.00  0.00    +0.000 C 
ATOM      2  N   UNL     1       2.452   6.169  19.728  0.00  0.00    +0.000 N 
ATOM      3  C   UNL     1       3.367   5.746  18.791  0.00  0.00    +0.000 A 
ATOM      4  C   UNL     1       3.539   6.768  17.875  0.00  0.00    +0.000 A 
ATOM      5  C   UNL     1       2.700   7.842  18.261  0.00  0.00    +0.000 A 
ATOM      6  C   UNL     1       2.464   9.119  17.719  0.00  0.00    +0.000 A 
ATOM      7  C   UNL     1       1.579   9.976  18.364  0.00  0.00    +0.000 A 
ATOM      8  C   UNL     1       0.963   9.607  19.564  0.00  0.00    +0.000 A 
ATOM      9  C   UNL     1       1.211   8.351  20.141  0.00  0.00    +0.000 A 
ATOM     10  C   UNL     1       2.064   7.470  19.447  0.00  0.00    +0.000 A 
ATOM     11  C   UNL     1       4.527   6.732  16.758  0.00  0.00    +0.000 C 
ATOM     12  C   UNL     1       5.959   6.561  17.292  0.00  0.00    +0.000 C 
ATOM     13  N   UNL     1       6.321   5.186  17.683  0.00  0.00    +0.000 NA
ATOM     14  C   UNL     1       5.644   4.714  18.906  0.00  0.00    +0.000 C 
ATOM     15  C   UNL     1       4.127   4.457  18.784  0.00  0.00    +0.000 C 
ATOM     16  H   UNL     1       7.324   5.177  17.867  0.00  0.00    +0.000 HD
ENDROOT
BRANCH   8  17
ATOM     17  N   UNL     1       0.026  10.504  20.145  0.00  0.00    +0.000 N 
ATOM     18  C   UNL     1       0.166  10.841  21.482  0.00  0.00    +0.000 A 
ATOM     19  C   UNL     1      -0.720  11.612  22.113  0.00  0.00    +0.000 A 
ATOM     20  C   UNL     1      -1.866  12.122  21.402  0.00  0.00    +0.000 A 
ATOM     21  C   UNL     1      -2.052  11.802  20.115  0.00  0.00    +0.000 A 
ATOM     22  C   UNL     1      -1.062  10.960  19.383  0.00  0.00    +0.000 A 
ATOM     23  O   UNL     1      -1.280  10.700  18.201  0.00  0.00    +0.000 OA
BRANCH  20  24
ATOM     24  O   UNL     1      -2.782  12.923  22.053  0.00  0.00    +0.000 OA
BRANCH  24  25
ATOM     25  C   UNL     1      -3.899  13.365  21.279  0.00  0.00    +0.000 C 
BRANCH  25  26
ATOM     26  C   UNL     1      -5.167  12.978  21.984  0.00  0.00    +0.000 A 
ATOM     27  C   UNL     1      -6.259  12.472  21.273  0.00  0.00    +0.000 A 
ATOM     28  C   UNL     1      -7.432  12.118  21.942  0.00  0.00    +0.000 A 
ATOM     29  C   UNL     1      -7.516  12.275  23.327  0.00  0.00    +0.000 A 
ATOM     30  C   UNL     1      -6.434  12.784  24.041  0.00  0.00    +0.000 A 
ATOM     31  C   UNL     1      -5.264  13.139  23.372  0.00  0.00    +0.000 A 
ENDBRANCH  25  26
ENDBRANCH  24  25
ENDBRANCH  20  24
ENDBRANCH   8  17
TORSDOF 4
ENDMDL
MODEL 9
REMARK VINA RESULT:      -8.3      3.863     11.361
REMARK  Name = 
REMARK  5 active torsions:
REMARK  status: ('A' for Active; 'I' for Inactive)
REMARK    1  A    between atoms: C_1  and  N_2
REMARK    2  A    between atoms: C_8  and  N_9
REMARK    3  A    between atoms: C_12  and  O_13
REMARK    4  A    between atoms: O_13  and  C_14
REMARK    5  A    between atoms: C_14  and  C_15
REMARK                            x       y       z     vdW  Elec       q    Type
REMARK                         _______ _______ _______ _____ _____    ______ ____
ROOT
ATOM      1  C   UNL     1       2.125   4.960  20.880  0.00  0.00    +0.000 C 
ATOM      2  N   UNL     1       2.620   5.649  19.708  0.00  0.00    +0.000 N 
ATOM      3  C   UNL     1       3.502   5.167  18.768  0.00  0.00    +0.000 A 
ATOM      4  C   UNL     1       3.689   6.153  17.817  0.00  0.00    +0.000 A 
ATOM      5  C   UNL     1       2.893   7.267  18.184  0.00  0.00    +0.000 A 
ATOM      6  C   UNL     1       2.688   8.533  17.606  0.00  0.00    +0.000 A 
ATOM      7  C   UNL     1       1.844   9.439  18.240  0.00  0.00    +0.000 A 
ATOM      8  C   UNL     1       1.241   9.127  19.462  0.00  0.00    +0.000 A 
ATOM      9  C   UNL     1       1.458   7.883  20.074  0.00  0.00    +0.000 A 
ATOM     10  C   UNL     1       2.269   6.953  19.393  0.00  0.00    +0.000 A 
ATOM     11  C   UNL     1       4.654   6.050  16.684  0.00  0.00    +0.000 C 
ATOM     12  C   UNL     1       6.089   5.848  17.196  0.00  0.00    +0.000 C 
ATOM     13  N   UNL     1       6.413   4.475  17.623  0.00  0.00    +0.000 NA
ATOM     14  C   UNL     1       5.746   4.064  18.873  0.00  0.00    +0.000 C 
ATOM     15  C   UNL     1       4.220   3.854  18.789  0.00  0.00    +0.000 C 
ATOM     16  H   UNL     1       7.420   4.439  17.789  0.00  0.00    +0.000 HD
ENDROOT
BRANCH   8  17
ATOM     17  N   UNL     1       0.345  10.073  20.032  0.00  0.00    +0.000 N 
ATOM     18  C   UNL     1      -0.719  10.527  19.269  0.00  0.00    +0.000 A 
ATOM     19  C   UNL     1      -1.551  11.472  19.708  0.00  0.00    +0.000 A 
ATOM     20  C   UNL     1      -1.358  12.051  21.015  0.00  0.00    +0.000 A 
ATOM     21  C   UNL     1      -0.329  11.657  21.776  0.00  0.00    +0.000 A 
ATOM     22  C   UNL     1       0.601  10.586  21.314  0.00  0.00    +0.000 A 
ATOM     23  O   UNL     1       1.527  10.260  22.055  0.00  0.00    +0.000 OA
BRANCH  20  24
ATOM     24  O   UNL     1      -2.220  13.027  21.472  0.00  0.00    +0.000 OA
BRANCH  24  25
ATOM     25  C   UNL     1      -2.877  12.759  22.713  0.00  0.00    +0.000 C 
BRANCH  25  26
ATOM     26  C   UNL     1      -2.695  13.937  23.627  0.00  0.00    +0.000 A 
ATOM     27  C   UNL     1      -3.796  14.623  24.144  0.00  0.00    +0.000 A 
ATOM     28  C   UNL     1      -3.611  15.718  24.990  0.00  0.00    +0.000 A 
ATOM     29  C   UNL     1      -2.319  16.130  25.319  0.00  0.00    +0.000 A 
ATOM     30  C   UNL     1      -1.216  15.454  24.803  0.00  0.00    +0.000 A 
ATOM     31  C   UNL     1      -1.401  14.363  23.956  0.00  0.00    +0.000 A 
ENDBRANCH  25  26
ENDBRANCH  24  25
ENDBRANCH  20  24
ENDBRANCH   8  17
TORSDOF 4
ENDMDL
