MODEL 1
REMARK VINA RESULT:      -8.0      0.000      0.000
REMARK  Name = 
REMARK  5 active torsions:
REMARK  status: ('A' for Active; 'I' for Inactive)
REMARK    1  A    between atoms: C_1  and  C_2
REMARK    2  A    between atoms: C_6  and  N_7
REMARK    3  A    between atoms: C_8  and  C_10
REMARK    4  A    between atoms: C_11  and  N_12
REMARK    5  A    between atoms: C_13  and  C_15
REMARK                            x       y       z     vdW  Elec       q    Type
REMARK                         _______ _______ _______ _____ _____    ______ ____
ROOT
ATOM      1  C   UNL     1       4.328   4.557  17.509  0.00  0.00    +0.000 A 
ATOM      2  C   UNL     1       4.619   5.769  18.106  0.00  0.00    +0.000 A 
ATOM      3  S   UNL     1       3.666   6.103  19.461  0.00  0.00    +0.000 S 
ATOM      4  C   UNL     1       2.690   4.720  19.197  0.00  0.00    +0.000 A 
ATOM      5  C   UNL     1       3.178   3.935  18.158  0.00  0.00    +0.000 A 
ATOM      6  C   UNL     1       2.624   2.579  17.778  0.00  0.00    +0.000 C 
ATOM      7  C   UNL     1       2.246   1.734  18.995  0.00  0.00    +0.000 C 
ATOM      8  C   UNL     1       0.872   2.062  19.580  0.00  0.00    +0.000 C 
ATOM      9  C   UNL     1       0.468   3.537  19.563  0.00  0.00    +0.000 C 
ATOM     10  C   UNL     1       1.528   4.481  20.124  0.00  0.00    +0.000 C 
ENDROOT
BRANCH   1  12
ATOM     11  N   UNL     1       5.238   4.781  15.322  0.00  0.00    +0.000 N 
ATOM     12  C   UNL     1       5.107   3.943  16.426  0.00  0.00    +0.000 C 
ATOM     13  O   UNL     1       5.663   2.864  16.579  0.00  0.00    +0.000 OA
ATOM     14  H   UNL     1       4.859   5.710  15.425  0.00  0.00    +0.000 HD
BRANCH  11  20
ATOM     15  C   UNL     1       5.602   2.085  11.218  0.00  0.00    +0.000 C 
ATOM     16  C   UNL     1       6.123   3.181  12.100  0.00  0.00    +0.000 A 
ATOM     17  C   UNL     1       7.258   3.911  11.735  0.00  0.00    +0.000 A 
ATOM     18  C   UNL     1       7.739   4.922  12.561  0.00  0.00    +0.000 A 
ATOM     19  C   UNL     1       7.090   5.223  13.758  0.00  0.00    +0.000 A 
ATOM     20  C   UNL     1       5.949   4.517  14.137  0.00  0.00    +0.000 A 
ATOM     21  C   UNL     1       5.477   3.487  13.308  0.00  0.00    +0.000 A 
ENDBRANCH  11  20
ENDBRANCH   1  12
BRANCH   2  22
ATOM     22  N   UNL     1       5.550   6.752  17.846  0.00  0.00    +0.000 N 
ATOM     23  C   UNL     1       6.880   6.602  18.254  0.00  0.00    +0.000 C 
ATOM     24  O   UNL     1       7.313   5.613  18.843  0.00  0.00    +0.000 OA
ATOM     25  H   UNL     1       5.393   7.314  17.014  0.00  0.00    +0.000 HD
BRANCH  23  26
ATOM     26  C   UNL     1       7.769   7.788  17.835  0.00  0.00    +0.000 C 
ATOM     27  F   UNL     1       7.055   8.952  17.769  0.00  0.00    +0.000 F 
ATOM     28  F   UNL     1       8.791   8.017  18.702  0.00  0.00    +0.000 F 
ATOM     29  F   UNL     1       8.320   7.619  16.602  0.00  0.00    +0.000 F 
ENDBRANCH  23  26
ENDBRANCH   2  22
TORSDOF 4
ENDMDL
MODEL 2
REMARK VINA RESULT:      -7.9      4.704      6.093
REMARK  Name = 
REMARK  5 active torsions:
REMARK  status: ('A' for Active; 'I' for Inactive)
REMARK    1  A    between atoms: C_1  and  C_2
REMARK    2  A    between atoms: C_6  and  N_7
REMARK    3  A    between atoms: C_8  and  C_10
REMARK    4  A    between atoms: C_11  and  N_12
REMARK    5  A    between atoms: C_13  and  C_15
REMARK                            x       y       z     vdW  Elec       q    Type
REMARK                         _______ _______ _______ _____ _____    ______ ____
ROOT
ATOM      1  C   UNL     1       2.348   6.825  19.386  0.00  0.00    +0.000 A 
ATOM      2  C   UNL     1       1.918   6.287  20.583  0.00  0.00    +0.000 A 
ATOM      3  S   UNL     1       0.956   7.339  21.492  0.00  0.00    +0.000 S 
ATOM      4  C   UNL     1       1.228   8.633  20.402  0.00  0.00    +0.000 A 
ATOM      5  C   UNL     1       1.938   8.222  19.279  0.00  0.00    +0.000 A 
ATOM      6  C   UNL     1       2.210   9.094  18.073  0.00  0.00    +0.000 C 
ATOM      7  C   UNL     1       1.012   9.967  17.695  0.00  0.00    +0.000 C 
ATOM      8  C   UNL     1       0.892  11.250  18.517  0.00  0.00    +0.000 C 
ATOM      9  C   UNL     1       1.278  11.143  19.994  0.00  0.00    +0.000 C 
ATOM     10  C   UNL     1       0.625   9.974  20.726  0.00  0.00    +0.000 C 
ENDROOT
BRANCH   1  12
ATOM     11  N   UNL     1       4.436   6.164  18.454  0.00  0.00    +0.000 N 
ATOM     12  C   UNL     1       3.052   6.081  18.333  0.00  0.00    +0.000 C 
ATOM     13  O   UNL     1       2.441   5.379  17.537  0.00  0.00    +0.000 OA
ATOM     14  H   UNL     1       4.779   6.648  19.270  0.00  0.00    +0.000 HD
BRANCH  11  20
ATOM     15  C   UNL     1       5.573   4.379  14.009  0.00  0.00    +0.000 C 
ATOM     16  C   UNL     1       5.960   4.662  15.431  0.00  0.00    +0.000 A 
ATOM     17  C   UNL     1       7.234   4.331  15.902  0.00  0.00    +0.000 A 
ATOM     18  C   UNL     1       7.584   4.591  17.223  0.00  0.00    +0.000 A 
ATOM     19  C   UNL     1       6.670   5.192  18.089  0.00  0.00    +0.000 A 
ATOM     20  C   UNL     1       5.398   5.542  17.638  0.00  0.00    +0.000 A 
ATOM     21  C   UNL     1       5.044   5.263  16.309  0.00  0.00    +0.000 A 
ENDBRANCH  11  20
ENDBRANCH   1  12
BRANCH   2  22
ATOM     22  N   UNL     1       2.084   5.056  21.181  0.00  0.00    +0.000 N 
ATOM     23  C   UNL     1       1.344   3.948  20.753  0.00  0.00    +0.000 C 
ATOM     24  O   UNL     1       0.527   3.979  19.834  0.00  0.00    +0.000 OA
ATOM     25  H   UNL     1       3.003   4.863  21.569  0.00  0.00    +0.000 HD
BRANCH  23  26
ATOM     26  C   UNL     1       1.702   2.661  21.517  0.00  0.00    +0.000 C 
ATOM     27  F   UNL     1       1.682   1.567  20.696  0.00  0.00    +0.000 F 
ATOM     28  F   UNL     1       2.944   2.699  22.068  0.00  0.00    +0.000 F 
ATOM     29  F   UNL     1       0.826   2.387  22.521  0.00  0.00    +0.000 F 
ENDBRANCH  23  26
ENDBRANCH   2  22
TORSDOF 4
ENDMDL
MODEL 3
REMARK VINA RESULT:      -7.8      3.402      6.596
REMARK  Name = 
REMARK  5 active torsions:
REMARK  status: ('A' for Active; 'I' for Inactive)
REMARK    1  A    between atoms: C_1  and  C_2
REMARK    2  A    between atoms: C_6  and  N_7
REMARK    3  A    between atoms: C_8  and  C_10
REMARK    4  A    between atoms: C_11  and  N_12
REMARK    5  A    between atoms: C_13  and  C_15
REMARK                            x       y       z     vdW  Elec       q    Type
REMARK                         _______ _______ _______ _____ _____    ______ ____
ROOT
ATOM      1  C   UNL     1       3.611   5.813  18.856  0.00  0.00    +0.000 A 
ATOM      2  C   UNL     1       4.971   5.597  18.745  0.00  0.00    +0.000 A 
ATOM      3  S   UNL     1       5.389   3.965  18.610  0.00  0.00    +0.000 S 
ATOM      4  C   UNL     1       3.775   3.461  18.883  0.00  0.00    +0.000 A 
ATOM      5  C   UNL     1       2.900   4.541  18.940  0.00  0.00    +0.000 A 
ATOM      6  C   UNL     1       1.394   4.417  19.025  0.00  0.00    +0.000 C 
ATOM      7  C   UNL     1       0.845   3.291  18.149  0.00  0.00    +0.000 C 
ATOM      8  C   UNL     1       0.931   1.905  18.788  0.00  0.00    +0.000 C 
ATOM      9  C   UNL     1       2.177   1.630  19.632  0.00  0.00    +0.000 C 
ATOM     10  C   UNL     1       3.490   1.984  18.941  0.00  0.00    +0.000 C 
ENDROOT
BRANCH   1  12
ATOM     11  N   UNL     1       2.156   7.359  19.931  0.00  0.00    +0.000 N 
ATOM     12  C   UNL     1       2.961   7.130  18.819  0.00  0.00    +0.000 C 
ATOM     13  O   UNL     1       3.233   7.946  17.947  0.00  0.00    +0.000 OA
ATOM     14  H   UNL     1       2.174   6.646  20.644  0.00  0.00    +0.000 HD
BRANCH  11  20
ATOM     15  C   UNL     1      -0.422   9.910  23.261  0.00  0.00    +0.000 C 
ATOM     16  C   UNL     1       0.151   9.789  21.880  0.00  0.00    +0.000 A 
ATOM     17  C   UNL     1      -0.027  10.811  20.942  0.00  0.00    +0.000 A 
ATOM     18  C   UNL     1       0.503  10.690  19.661  0.00  0.00    +0.000 A 
ATOM     19  C   UNL     1       1.224   9.551  19.302  0.00  0.00    +0.000 A 
ATOM     20  C   UNL     1       1.426   8.525  20.224  0.00  0.00    +0.000 A 
ATOM     21  C   UNL     1       0.875   8.645  21.509  0.00  0.00    +0.000 A 
ENDBRANCH  11  20
ENDBRANCH   1  12
BRANCH   2  22
ATOM     22  N   UNL     1       6.060   6.440  18.689  0.00  0.00    +0.000 N 
ATOM     23  C   UNL     1       6.509   6.948  17.465  0.00  0.00    +0.000 C 
ATOM     24  O   UNL     1       5.978   6.705  16.382  0.00  0.00    +0.000 OA
ATOM     25  H   UNL     1       6.225   7.020  19.507  0.00  0.00    +0.000 HD
BRANCH  23  26
ATOM     26  C   UNL     1       7.710   7.899  17.618  0.00  0.00    +0.000 C 
ATOM     27  F   UNL     1       8.528   7.856  16.523  0.00  0.00    +0.000 F 
ATOM     28  F   UNL     1       7.341   9.199  17.766  0.00  0.00    +0.000 F 
ATOM     29  F   UNL     1       8.497   7.582  18.682  0.00  0.00    +0.000 F 
ENDBRANCH  23  26
ENDBRANCH   2  22
TORSDOF 4
ENDMDL
MODEL 4
REMARK VINA RESULT:      -7.6      3.322      6.553
REMARK  Name = 
REMARK  5 active torsions:
REMARK  status: ('A' for Active; 'I' for Inactive)
REMARK    1  A    between atoms: C_1  and  C_2
REMARK    2  A    between atoms: C_6  and  N_7
REMARK    3  A    between atoms: C_8  and  C_10
REMARK    4  A    between atoms: C_11  and  N_12
REMARK    5  A    between atoms: C_13  and  C_15
REMARK                            x       y       z     vdW  Elec       q    Type
REMARK                         _______ _______ _______ _____ _____    ______ ____
ROOT
ATOM      1  C   UNL     1       3.450   6.026  18.252  0.00  0.00    +0.000 A 
ATOM      2  C   UNL     1       4.759   5.926  17.823  0.00  0.00    +0.000 A 
ATOM      3  S   UNL     1       5.267   4.335  17.559  0.00  0.00    +0.000 S 
ATOM      4  C   UNL     1       3.808   3.697  18.190  0.00  0.00    +0.000 A 
ATOM      5  C   UNL     1       2.885   4.698  18.472  0.00  0.00    +0.000 A 
ATOM      6  C   UNL     1       1.457   4.447  18.903  0.00  0.00    +0.000 C 
ATOM      7  C   UNL     1       0.812   3.279  18.156  0.00  0.00    +0.000 C 
ATOM      8  C   UNL     1       1.158   1.905  18.727  0.00  0.00    +0.000 C 
ATOM      9  C   UNL     1       2.586   1.735  19.252  0.00  0.00    +0.000 C 
ATOM     10  C   UNL     1       3.667   2.200  18.281  0.00  0.00    +0.000 C 
ENDROOT
BRANCH   1  12
ATOM     11  N   UNL     1       2.160   7.439  19.667  0.00  0.00    +0.000 N 
ATOM     12  C   UNL     1       2.704   7.283  18.396  0.00  0.00    +0.000 C 
ATOM     13  O   UNL     1       2.701   8.123  17.504  0.00  0.00    +0.000 OA
ATOM     14  H   UNL     1       2.400   6.726  20.340  0.00  0.00    +0.000 HD
BRANCH  11  20
ATOM     15  C   UNL     1      -0.139   9.544  23.478  0.00  0.00    +0.000 C 
ATOM     16  C   UNL     1       0.288   9.580  22.040  0.00  0.00    +0.000 A 
ATOM     17  C   UNL     1      -0.025  10.676  21.231  0.00  0.00    +0.000 A 
ATOM     18  C   UNL     1       0.370  10.701  19.897  0.00  0.00    +0.000 A 
ATOM     19  C   UNL     1       1.090   9.635  19.356  0.00  0.00    +0.000 A 
ATOM     20  C   UNL     1       1.424   8.537  20.147  0.00  0.00    +0.000 A 
ATOM     21  C   UNL     1       1.009   8.510  21.487  0.00  0.00    +0.000 A 
ENDBRANCH  11  20
ENDBRANCH   1  12
BRANCH   2  22
ATOM     22  N   UNL     1       5.733   6.858  17.532  0.00  0.00    +0.000 N 
ATOM     23  C   UNL     1       6.938   6.878  18.243  0.00  0.00    +0.000 C 
ATOM     24  O   UNL     1       7.222   6.086  19.141  0.00  0.00    +0.000 OA
ATOM     25  H   UNL     1       5.769   7.190  16.572  0.00  0.00    +0.000 HD
BRANCH  23  26
ATOM     26  C   UNL     1       7.907   7.965  17.744  0.00  0.00    +0.000 C 
ATOM     27  F   UNL     1       7.272   9.163  17.571  0.00  0.00    +0.000 F 
ATOM     28  F   UNL     1       8.932   8.198  18.606  0.00  0.00    +0.000 F 
ATOM     29  F   UNL     1       8.459   7.661  16.538  0.00  0.00    +0.000 F 
ENDBRANCH  23  26
ENDBRANCH   2  22
TORSDOF 4
ENDMDL
MODEL 5
REMARK VINA RESULT:      -7.6      0.812      1.081
REMARK  Name = 
REMARK  5 active torsions:
REMARK  status: ('A' for Active; 'I' for Inactive)
REMARK    1  A    between atoms: C_1  and  C_2
REMARK    2  A    between atoms: C_6  and  N_7
REMARK    3  A    between atoms: C_8  and  C_10
REMARK    4  A    between atoms: C_11  and  N_12
REMARK    5  A    between atoms: C_13  and  C_15
REMARK                            x       y       z     vdW  Elec       q    Type
REMARK                         _______ _______ _______ _____ _____    ______ ____
ROOT
ATOM      1  C   UNL     1       4.545   4.233  17.651  0.00  0.00    +0.000 A 
ATOM      2  C   UNL     1       5.092   5.197  18.475  0.00  0.00    +0.000 A 
ATOM      3  S   UNL     1       4.208   5.460  19.892  0.00  0.00    +0.000 S 
ATOM      4  C   UNL     1       2.947   4.422  19.375  0.00  0.00    +0.000 A 
ATOM      5  C   UNL     1       3.267   3.773  18.187  0.00  0.00    +0.000 A 
ATOM      6  C   UNL     1       2.425   2.688  17.552  0.00  0.00    +0.000 C 
ATOM      7  C   UNL     1       1.832   1.724  18.581  0.00  0.00    +0.000 C 
ATOM      8  C   UNL     1       0.557   2.233  19.252  0.00  0.00    +0.000 C 
ATOM      9  C   UNL     1       0.504   3.734  19.545  0.00  0.00    +0.000 C 
ATOM     10  C   UNL     1       1.739   4.274  20.261  0.00  0.00    +0.000 C 
ENDROOT
BRANCH   1  12
ATOM     11  N   UNL     1       5.439   4.666  15.489  0.00  0.00    +0.000 N 
ATOM     12  C   UNL     1       5.187   3.689  16.448  0.00  0.00    +0.000 C 
ATOM     13  O   UNL     1       5.555   2.522  16.399  0.00  0.00    +0.000 OA
ATOM     14  H   UNL     1       5.224   5.614  15.758  0.00  0.00    +0.000 HD
BRANCH  11  20
ATOM     15  C   UNL     1       5.567   2.240  11.207  0.00  0.00    +0.000 C 
ATOM     16  C   UNL     1       6.129   3.288  12.120  0.00  0.00    +0.000 A 
ATOM     17  C   UNL     1       7.225   4.062  11.728  0.00  0.00    +0.000 A 
ATOM     18  C   UNL     1       7.745   5.029  12.583  0.00  0.00    +0.000 A 
ATOM     19  C   UNL     1       7.173   5.241  13.837  0.00  0.00    +0.000 A 
ATOM     20  C   UNL     1       6.072   4.491  14.245  0.00  0.00    +0.000 A 
ATOM     21  C   UNL     1       5.561   3.505  13.386  0.00  0.00    +0.000 A 
ENDBRANCH  11  20
ENDBRANCH   1  12
BRANCH   2  22
ATOM     22  N   UNL     1       6.231   5.971  18.398  0.00  0.00    +0.000 N 
ATOM     23  C   UNL     1       6.291   7.069  17.534  0.00  0.00    +0.000 C 
ATOM     24  O   UNL     1       5.363   7.429  16.810  0.00  0.00    +0.000 OA
ATOM     25  H   UNL     1       6.797   6.026  19.240  0.00  0.00    +0.000 HD
BRANCH  23  26
ATOM     26  C   UNL     1       7.629   7.826  17.623  0.00  0.00    +0.000 C 
ATOM     27  F   UNL     1       8.375   7.402  18.687  0.00  0.00    +0.000 F 
ATOM     28  F   UNL     1       8.408   7.657  16.521  0.00  0.00    +0.000 F 
ATOM     29  F   UNL     1       7.463   9.165  17.795  0.00  0.00    +0.000 F 
ENDBRANCH  23  26
ENDBRANCH   2  22
TORSDOF 4
ENDMDL
MODEL 6
REMARK VINA RESULT:      -7.5      0.359      1.566
REMARK  Name = 
REMARK  5 active torsions:
REMARK  status: ('A' for Active; 'I' for Inactive)
REMARK    1  A    between atoms: C_1  and  C_2
REMARK    2  A    between atoms: C_6  and  N_7
REMARK    3  A    between atoms: C_8  and  C_10
REMARK    4  A    between atoms: C_11  and  N_12
REMARK    5  A    between atoms: C_13  and  C_15
REMARK                            x       y       z     vdW  Elec       q    Type
REMARK                         _______ _______ _______ _____ _____    ______ ____
ROOT
ATOM      1  C   UNL     1       4.247   4.495  17.509  0.00  0.00    +0.000 A 
ATOM      2  C   UNL     1       4.531   5.690  18.141  0.00  0.00    +0.000 A 
ATOM      3  S   UNL     1       3.570   5.985  19.500  0.00  0.00    +0.000 S 
ATOM      4  C   UNL     1       2.600   4.606  19.192  0.00  0.00    +0.000 A 
ATOM      5  C   UNL     1       3.096   3.851  18.135  0.00  0.00    +0.000 A 
ATOM      6  C   UNL     1       2.548   2.505  17.715  0.00  0.00    +0.000 C 
ATOM      7  C   UNL     1       2.166   1.626  18.907  0.00  0.00    +0.000 C 
ATOM      8  C   UNL     1       0.789   1.933  19.494  0.00  0.00    +0.000 C 
ATOM      9  C   UNL     1       0.380   3.407  19.515  0.00  0.00    +0.000 C 
ATOM     10  C   UNL     1       1.434   4.338  20.107  0.00  0.00    +0.000 C 
ENDROOT
BRANCH   1  12
ATOM     11  N   UNL     1       5.144   4.770  15.322  0.00  0.00    +0.000 N 
ATOM     12  C   UNL     1       5.033   3.913  16.414  0.00  0.00    +0.000 C 
ATOM     13  O   UNL     1       5.610   2.842  16.547  0.00  0.00    +0.000 OA
ATOM     14  H   UNL     1       4.747   5.690  15.442  0.00  0.00    +0.000 HD
BRANCH  11  20
ATOM     15  C   UNL     1       8.991   5.965  12.491  0.00  0.00    +0.000 C 
ATOM     16  C   UNL     1       7.767   5.132  12.731  0.00  0.00    +0.000 A 
ATOM     17  C   UNL     1       7.374   4.159  11.807  0.00  0.00    +0.000 A 
ATOM     18  C   UNL     1       6.234   3.394  12.034  0.00  0.00    +0.000 A 
ATOM     19  C   UNL     1       5.475   3.585  13.189  0.00  0.00    +0.000 A 
ATOM     20  C   UNL     1       5.855   4.539  14.131  0.00  0.00    +0.000 A 
ATOM     21  C   UNL     1       6.996   5.320  13.890  0.00  0.00    +0.000 A 
ENDBRANCH  11  20
ENDBRANCH   1  12
BRANCH   2  22
ATOM     22  N   UNL     1       5.460   6.683  17.912  0.00  0.00    +0.000 N 
ATOM     23  C   UNL     1       6.813   6.475  18.201  0.00  0.00    +0.000 C 
ATOM     24  O   UNL     1       7.268   5.426  18.653  0.00  0.00    +0.000 OA
ATOM     25  H   UNL     1       5.253   7.329  17.155  0.00  0.00    +0.000 HD
BRANCH  23  26
ATOM     26  C   UNL     1       7.693   7.686  17.839  0.00  0.00    +0.000 C 
ATOM     27  F   UNL     1       8.262   7.542  16.604  0.00  0.00    +0.000 F 
ATOM     28  F   UNL     1       6.999   8.854  17.804  0.00  0.00    +0.000 F 
ATOM     29  F   UNL     1       8.727   7.860  18.706  0.00  0.00    +0.000 F 
ENDBRANCH  23  26
ENDBRANCH   2  22
TORSDOF 4
ENDMDL
MODEL 7
REMARK VINA RESULT:      -7.5      3.388      6.462
REMARK  Name = 
REMARK  5 active torsions:
REMARK  status: ('A' for Active; 'I' for Inactive)
REMARK    1  A    between atoms: C_1  and  C_2
REMARK    2  A    between atoms: C_6  and  N_7
REMARK    3  A    between atoms: C_8  and  C_10
REMARK    4  A    between atoms: C_11  and  N_12
REMARK    5  A    between atoms: C_13  and  C_15
REMARK                            x       y       z     vdW  Elec       q    Type
REMARK                         _______ _______ _______ _____ _____    ______ ____
ROOT
ATOM      1  C   UNL     1       3.578   5.783  18.923  0.00  0.00    +0.000 A 
ATOM      2  C   UNL     1       4.928   5.559  18.740  0.00  0.00    +0.000 A 
ATOM      3  S   UNL     1       5.320   3.933  18.500  0.00  0.00    +0.000 S 
ATOM      4  C   UNL     1       3.712   3.432  18.819  0.00  0.00    +0.000 A 
ATOM      5  C   UNL     1       2.855   4.516  18.972  0.00  0.00    +0.000 A 
ATOM      6  C   UNL     1       1.353   4.404  19.118  0.00  0.00    +0.000 C 
ATOM      7  C   UNL     1       0.751   3.331  18.209  0.00  0.00    +0.000 C 
ATOM      8  C   UNL     1       0.848   1.912  18.770  0.00  0.00    +0.000 C 
ATOM      9  C   UNL     1       2.126   1.580  19.542  0.00  0.00    +0.000 C 
ATOM     10  C   UNL     1       3.412   1.956  18.812  0.00  0.00    +0.000 C 
ENDROOT
BRANCH   1  12
ATOM     11  N   UNL     1       2.185   7.282  20.139  0.00  0.00    +0.000 N 
ATOM     12  C   UNL     1       2.944   7.107  18.985  0.00  0.00    +0.000 C 
ATOM     13  O   UNL     1       3.192   7.967  18.150  0.00  0.00    +0.000 OA
ATOM     14  H   UNL     1       2.221   6.529  20.810  0.00  0.00    +0.000 HD
BRANCH  11  20
ATOM     15  C   UNL     1      -0.219  11.339  18.722  0.00  0.00    +0.000 C 
ATOM     16  C   UNL     1       0.286  10.446  19.817  0.00  0.00    +0.000 A 
ATOM     17  C   UNL     1       0.042  10.756  21.158  0.00  0.00    +0.000 A 
ATOM     18  C   UNL     1       0.518   9.927  22.169  0.00  0.00    +0.000 A 
ATOM     19  C   UNL     1       1.237   8.774  21.854  0.00  0.00    +0.000 A 
ATOM     20  C   UNL     1       1.481   8.437  20.524  0.00  0.00    +0.000 A 
ATOM     21  C   UNL     1       1.013   9.286  19.508  0.00  0.00    +0.000 A 
ENDBRANCH  11  20
ENDBRANCH   1  12
BRANCH   2  22
ATOM     22  N   UNL     1       6.025   6.393  18.679  0.00  0.00    +0.000 N 
ATOM     23  C   UNL     1       6.446   6.933  17.459  0.00  0.00    +0.000 C 
ATOM     24  O   UNL     1       5.884   6.728  16.385  0.00  0.00    +0.000 OA
ATOM     25  H   UNL     1       6.218   6.946  19.510  0.00  0.00    +0.000 HD
BRANCH  23  26
ATOM     26  C   UNL     1       7.661   7.867  17.608  0.00  0.00    +0.000 C 
ATOM     27  F   UNL     1       8.475   7.810  16.511  0.00  0.00    +0.000 F 
ATOM     28  F   UNL     1       7.311   9.173  17.755  0.00  0.00    +0.000 F 
ATOM     29  F   UNL     1       8.445   7.540  18.670  0.00  0.00    +0.000 F 
ENDBRANCH  23  26
ENDBRANCH   2  22
TORSDOF 4
ENDMDL
MODEL 8
REMARK VINA RESULT:      -7.5      3.315      6.529
REMARK  Name = 
REMARK  5 active torsions:
REMARK  status: ('A' for Active; 'I' for Inactive)
REMARK    1  A    between atoms: C_1  and  C_2
REMARK    2  A    between atoms: C_6  and  N_7
REMARK    3  A    between atoms: C_8  and  C_10
REMARK    4  A    between atoms: C_11  and  N_12
REMARK    5  A    between atoms: C_13  and  C_15
REMARK                            x       y       z     vdW  Elec       q    Type
REMARK                         _______ _______ _______ _____ _____    ______ ____
ROOT
ATOM      1  C   UNL     1       3.367   5.955  18.406  0.00  0.00    +0.000 A 
ATOM      2  C   UNL     1       4.634   5.842  17.868  0.00  0.00    +0.000 A 
ATOM      3  S   UNL     1       5.066   4.256  17.476  0.00  0.00    +0.000 S 
ATOM      4  C   UNL     1       3.641   3.624  18.187  0.00  0.00    +0.000 A 
ATOM      5  C   UNL     1       2.777   4.633  18.597  0.00  0.00    +0.000 A 
ATOM      6  C   UNL     1       1.379   4.399  19.127  0.00  0.00    +0.000 C 
ATOM      7  C   UNL     1       0.639   3.296  18.371  0.00  0.00    +0.000 C 
ATOM      8  C   UNL     1       0.984   1.881  18.836  0.00  0.00    +0.000 C 
ATOM      9  C   UNL     1       2.441   1.640  19.234  0.00  0.00    +0.000 C 
ATOM     10  C   UNL     1       3.458   2.129  18.206  0.00  0.00    +0.000 C 
ENDROOT
BRANCH   1  12
ATOM     11  N   UNL     1       2.142   7.274  19.963  0.00  0.00    +0.000 N 
ATOM     12  C   UNL     1       2.677   7.222  18.679  0.00  0.00    +0.000 C 
ATOM     13  O   UNL     1       2.709   8.146  17.876  0.00  0.00    +0.000 OA
ATOM     14  H   UNL     1       2.351   6.488  20.560  0.00  0.00    +0.000 HD
BRANCH  11  20
ATOM     15  C   UNL     1      -0.482  11.386  19.295  0.00  0.00    +0.000 C 
ATOM     16  C   UNL     1       0.150  10.387  20.218  0.00  0.00    +0.000 A 
ATOM     17  C   UNL     1       0.036  10.526  21.604  0.00  0.00    +0.000 A 
ATOM     18  C   UNL     1       0.630   9.598  22.455  0.00  0.00    +0.000 A 
ATOM     19  C   UNL     1       1.339   8.516  21.932  0.00  0.00    +0.000 A 
ATOM     20  C   UNL     1       1.455   8.350  20.554  0.00  0.00    +0.000 A 
ATOM     21  C   UNL     1       0.869   9.297  19.700  0.00  0.00    +0.000 A 
ENDBRANCH  11  20
ENDBRANCH   1  12
BRANCH   2  22
ATOM     22  N   UNL     1       5.612   6.761  17.552  0.00  0.00    +0.000 N 
ATOM     23  C   UNL     1       6.818   6.792  18.260  0.00  0.00    +0.000 C 
ATOM     24  O   UNL     1       7.099   6.022  19.177  0.00  0.00    +0.000 OA
ATOM     25  H   UNL     1       5.648   7.068  16.584  0.00  0.00    +0.000 HD
BRANCH  23  26
ATOM     26  C   UNL     1       7.793   7.861  17.731  0.00  0.00    +0.000 C 
ATOM     27  F   UNL     1       8.856   8.032  18.574  0.00  0.00    +0.000 F 
ATOM     28  F   UNL     1       8.317   7.546  16.517  0.00  0.00    +0.000 F 
ATOM     29  F   UNL     1       7.212   9.086  17.612  0.00  0.00    +0.000 F 
ENDBRANCH  23  26
ENDBRANCH   2  22
TORSDOF 4
ENDMDL
MODEL 9
REMARK VINA RESULT:      -7.5      3.459      6.227
REMARK  Name = 
REMARK  5 active torsions:
REMARK  status: ('A' for Active; 'I' for Inactive)
REMARK    1  A    between atoms: C_1  and  C_2
REMARK    2  A    between atoms: C_6  and  N_7
REMARK    3  A    between atoms: C_8  and  C_10
REMARK    4  A    between atoms: C_11  and  N_12
REMARK    5  A    between atoms: C_13  and  C_15
REMARK                            x       y       z     vdW  Elec       q    Type
REMARK                         _______ _______ _______ _____ _____    ______ ____
ROOT
ATOM      1  C   UNL     1       3.525   5.131  18.129  0.00  0.00    +0.000 A 
ATOM      2  C   UNL     1       4.086   4.288  17.189  0.00  0.00    +0.000 A 
ATOM      3  S   UNL     1       3.879   2.647  17.540  0.00  0.00    +0.000 S 
ATOM      4  C   UNL     1       3.189   2.995  19.069  0.00  0.00    +0.000 A 
ATOM      5  C   UNL     1       2.993   4.360  19.249  0.00  0.00    +0.000 A 
ATOM      6  C   UNL     1       2.272   4.972  20.430  0.00  0.00    +0.000 C 
ATOM      7  C   UNL     1       1.044   4.165  20.854  0.00  0.00    +0.000 C 
ATOM      8  C   UNL     1       1.364   2.969  21.750  0.00  0.00    +0.000 C 
ATOM      9  C   UNL     1       2.657   2.215  21.431  0.00  0.00    +0.000 C 
ATOM     10  C   UNL     1       2.814   1.840  19.960  0.00  0.00    +0.000 C 
ENDROOT
BRANCH   1  12
ATOM     11  N   UNL     1       2.306   7.103  18.664  0.00  0.00    +0.000 N 
ATOM     12  C   UNL     1       3.411   6.589  17.992  0.00  0.00    +0.000 C 
ATOM     13  O   UNL     1       4.287   7.244  17.442  0.00  0.00    +0.000 OA
ATOM     14  H   UNL     1       1.775   6.442  19.211  0.00  0.00    +0.000 HD
BRANCH  11  20
ATOM     15  C   UNL     1       0.140  10.612  21.355  0.00  0.00    +0.000 C 
ATOM     16  C   UNL     1       0.857  10.193  20.105  0.00  0.00    +0.000 A 
ATOM     17  C   UNL     1       1.144  11.123  19.102  0.00  0.00    +0.000 A 
ATOM     18  C   UNL     1       1.804  10.726  17.943  0.00  0.00    +0.000 A 
ATOM     19  C   UNL     1       2.192   9.397  17.774  0.00  0.00    +0.000 A 
ATOM     20  C   UNL     1       1.928   8.454  18.766  0.00  0.00    +0.000 A 
ATOM     21  C   UNL     1       1.247   8.856  19.925  0.00  0.00    +0.000 A 
ENDBRANCH  11  20
ENDBRANCH   1  12
BRANCH   2  22
ATOM     22  N   UNL     1       4.754   4.506  16.003  0.00  0.00    +0.000 N 
ATOM     23  C   UNL     1       6.153   4.535  15.966  0.00  0.00    +0.000 C 
ATOM     24  O   UNL     1       6.872   4.362  16.948  0.00  0.00    +0.000 OA
ATOM     25  H   UNL     1       4.286   4.194  15.157  0.00  0.00    +0.000 HD
BRANCH  23  26
ATOM     26  C   UNL     1       6.707   4.751  14.546  0.00  0.00    +0.000 C 
ATOM     27  F   UNL     1       5.954   5.651  13.844  0.00  0.00    +0.000 F 
ATOM     28  F   UNL     1       7.978   5.233  14.540  0.00  0.00    +0.000 F 
ATOM     29  F   UNL     1       6.708   3.610  13.805  0.00  0.00    +0.000 F 
ENDBRANCH  23  26
ENDBRANCH   2  22
TORSDOF 4
ENDMDL
