MODEL 1
REMARK VINA RESULT:      -7.5      0.000      0.000
REMARK  Name = 
REMARK  4 active torsions:
REMARK  status: ('A' for Active; 'I' for Inactive)
REMARK    1  A    between atoms: C_1  and  C_2
REMARK    2  A    between atoms: C_13  and  N_14
REMARK    3  A    between atoms: C_17  and  C_18
REMARK    4  A    between atoms: C_18  and  O_19
REMARK                            x       y       z     vdW  Elec       q    Type
REMARK                         _______ _______ _______ _____ _____    ______ ____
ROOT
ATOM      1  C   UNL     1       0.518   2.312  18.381  0.00  0.00    +0.000 C 
ATOM      2  C   UNL     1       1.796   3.078  18.198  0.00  0.00    +0.000 C 
ATOM      3  C   UNL     1       1.685   4.365  17.807  0.00  0.00    +0.000 C 
ATOM      4  C   UNL     1       2.954   5.038  18.045  0.00  0.00    +0.000 C 
ATOM      5  C   UNL     1       3.612   6.219  17.385  0.00  0.00    +0.000 C 
ATOM      6  C   UNL     1       5.108   6.008  17.644  0.00  0.00    +0.000 A 
ATOM      7  N   UNL     1       5.904   7.003  17.180  0.00  0.00    +0.000 N 
ATOM      8  C   UNL     1       7.234   7.163  17.500  0.00  0.00    +0.000 A 
ATOM      9  O   UNL     1       7.930   8.058  17.036  0.00  0.00    +0.000 OA
ATOM     10  C   UNL     1       7.710   6.241  18.544  0.00  0.00    +0.000 A 
ATOM     11  C   UNL     1       6.928   5.227  18.957  0.00  0.00    +0.000 A 
ATOM     12  C   UNL     1       5.573   4.946  18.401  0.00  0.00    +0.000 A 
ATOM     13  C   UNL     1       4.594   3.790  19.090  0.00  0.00    +0.000 C 
ATOM     14  C   UNL     1       3.282   2.595  18.689  0.00  0.00    +0.000 C 
ATOM     15  C   UNL     1       3.479   4.696  19.501  0.00  0.00    +0.000 C 
ATOM     16  C   UNL     1       2.890   4.768  20.711  0.00  0.00    +0.000 C 
ATOM     17  H   UNL     1       5.531   7.727  16.550  0.00  0.00    +0.000 HD
ENDROOT
BRANCH  13  18
ATOM     18  N   UNL     1       5.447   2.802  19.726  0.00  0.00    +0.000 NA
ATOM     19  H   UNL     1       6.331   2.668  19.259  0.00  0.00    +0.000 HD
ATOM     20  H   UNL     1       4.963   1.911  19.549  0.00  0.00    +0.000 HD
ENDBRANCH  13  18
BRANCH  16  21
ATOM     21  C   UNL     1       1.414   4.994  20.893  0.00  0.00    +0.000 C 
BRANCH  21  22
ATOM     22  O   UNL     1       1.110   6.372  20.836  0.00  0.00    +0.000 OA
ATOM     23  H   UNL     1       0.316   6.455  20.282  0.00  0.00    +0.000 HD
ENDBRANCH  21  22
ENDBRANCH  16  21
TORSDOF 3
ENDMDL
MODEL 2
REMARK VINA RESULT:      -7.3      1.951      3.075
REMARK  Name = 
REMARK  4 active torsions:
REMARK  status: ('A' for Active; 'I' for Inactive)
REMARK    1  A    between atoms: C_1  and  C_2
REMARK    2  A    between atoms: C_13  and  N_14
REMARK    3  A    between atoms: C_17  and  C_18
REMARK    4  A    between atoms: C_18  and  O_19
REMARK                            x       y       z     vdW  Elec       q    Type
REMARK                         _______ _______ _______ _____ _____    ______ ____
ROOT
ATOM      1  C   UNL     1       1.454   2.673  22.223  0.00  0.00    +0.000 C 
ATOM      2  C   UNL     1       2.383   3.387  21.286  0.00  0.00    +0.000 C 
ATOM      3  C   UNL     1       3.244   2.624  20.580  0.00  0.00    +0.000 C 
ATOM      4  C   UNL     1       3.782   3.415  19.482  0.00  0.00    +0.000 C 
ATOM      5  C   UNL     1       5.079   3.345  18.725  0.00  0.00    +0.000 C 
ATOM      6  C   UNL     1       5.282   4.768  18.196  0.00  0.00    +0.000 A 
ATOM      7  N   UNL     1       6.382   4.926  17.418  0.00  0.00    +0.000 N 
ATOM      8  C   UNL     1       6.643   6.030  16.637  0.00  0.00    +0.000 A 
ATOM      9  O   UNL     1       7.665   6.151  15.971  0.00  0.00    +0.000 OA
ATOM     10  C   UNL     1       5.531   6.992  16.575  0.00  0.00    +0.000 A 
ATOM     11  C   UNL     1       4.470   6.850  17.390  0.00  0.00    +0.000 A 
ATOM     12  C   UNL     1       4.341   5.762  18.401  0.00  0.00    +0.000 A 
ATOM     13  C   UNL     1       2.921   5.545  19.240  0.00  0.00    +0.000 C 
ATOM     14  C   UNL     1       2.270   4.957  20.834  0.00  0.00    +0.000 C 
ATOM     15  C   UNL     1       2.604   4.174  18.740  0.00  0.00    +0.000 C 
ATOM     16  C   UNL     1       1.434   3.740  18.230  0.00  0.00    +0.000 C 
ATOM     17  H   UNL     1       7.098   4.189  17.361  0.00  0.00    +0.000 HD
ENDROOT
BRANCH  13  18
ATOM     18  N   UNL     1       2.245   6.829  19.316  0.00  0.00    +0.000 NA
ATOM     19  H   UNL     1       1.581   6.983  18.572  0.00  0.00    +0.000 HD
ATOM     20  H   UNL     1       2.988   7.509  19.098  0.00  0.00    +0.000 HD
ENDBRANCH  13  18
BRANCH  16  21
ATOM     21  C   UNL     1       0.880   2.368  18.497  0.00  0.00    +0.000 C 
BRANCH  21  22
ATOM     22  O   UNL     1      -0.221   2.438  19.378  0.00  0.00    +0.000 OA
ATOM     23  H   UNL     1       0.122   2.225  20.262  0.00  0.00    +0.000 HD
ENDBRANCH  21  22
ENDBRANCH  16  21
TORSDOF 3
ENDMDL
MODEL 3
REMARK VINA RESULT:      -7.2      2.714      3.412
REMARK  Name = 
REMARK  4 active torsions:
REMARK  status: ('A' for Active; 'I' for Inactive)
REMARK    1  A    between atoms: C_1  and  C_2
REMARK    2  A    between atoms: C_13  and  N_14
REMARK    3  A    between atoms: C_17  and  C_18
REMARK    4  A    between atoms: C_18  and  O_19
REMARK                            x       y       z     vdW  Elec       q    Type
REMARK                         _______ _______ _______ _____ _____    ______ ____
ROOT
ATOM      1  C   UNL     1       1.484   5.074  20.822  0.00  0.00    +0.000 C 
ATOM      2  C   UNL     1       2.404   5.102  19.637  0.00  0.00    +0.000 C 
ATOM      3  C   UNL     1       3.666   5.530  19.854  0.00  0.00    +0.000 C 
ATOM      4  C   UNL     1       4.495   5.141  18.722  0.00  0.00    +0.000 C 
ATOM      5  C   UNL     1       5.748   5.731  18.135  0.00  0.00    +0.000 C 
ATOM      6  C   UNL     1       5.728   5.275  16.672  0.00  0.00    +0.000 A 
ATOM      7  N   UNL     1       6.815   5.649  15.953  0.00  0.00    +0.000 N 
ATOM      8  C   UNL     1       7.143   5.161  14.708  0.00  0.00    +0.000 A 
ATOM      9  O   UNL     1       8.117   5.547  14.074  0.00  0.00    +0.000 OA
ATOM     10  C   UNL     1       6.291   4.045  14.263  0.00  0.00    +0.000 A 
ATOM     11  C   UNL     1       5.187   3.719  14.960  0.00  0.00    +0.000 A 
ATOM     12  C   UNL     1       4.736   4.442  16.184  0.00  0.00    +0.000 A 
ATOM     13  C   UNL     1       3.468   3.865  17.093  0.00  0.00    +0.000 C 
ATOM     14  C   UNL     1       2.115   4.411  18.180  0.00  0.00    +0.000 C 
ATOM     15  C   UNL     1       4.226   3.622  18.356  0.00  0.00    +0.000 C 
ATOM     16  C   UNL     1       4.227   2.501  19.106  0.00  0.00    +0.000 C 
ATOM     17  H   UNL     1       7.484   6.336  16.327  0.00  0.00    +0.000 HD
ENDROOT
BRANCH  13  18
ATOM     18  N   UNL     1       2.597   3.103  16.215  0.00  0.00    +0.000 NA
ATOM     19  H   UNL     1       1.657   2.997  16.566  0.00  0.00    +0.000 HD
ATOM     20  H   UNL     1       2.968   2.144  16.276  0.00  0.00    +0.000 HD
ENDBRANCH  13  18
BRANCH  16  21
ATOM     21  C   UNL     1       4.265   2.519  20.609  0.00  0.00    +0.000 C 
BRANCH  21  22
ATOM     22  O   UNL     1       5.250   1.631  21.093  0.00  0.00    +0.000 OA
ATOM     23  H   UNL     1       5.320   0.915  20.440  0.00  0.00    +0.000 HD
ENDBRANCH  21  22
ENDBRANCH  16  21
TORSDOF 3
ENDMDL
MODEL 4
REMARK VINA RESULT:      -6.9      2.051      5.587
REMARK  Name = 
REMARK  4 active torsions:
REMARK  status: ('A' for Active; 'I' for Inactive)
REMARK    1  A    between atoms: C_1  and  C_2
REMARK    2  A    between atoms: C_13  and  N_14
REMARK    3  A    between atoms: C_17  and  C_18
REMARK    4  A    between atoms: C_18  and  O_19
REMARK                            x       y       z     vdW  Elec       q    Type
REMARK                         _______ _______ _______ _____ _____    ______ ____
ROOT
ATOM      1  C   UNL     1       7.020   5.174  14.723  0.00  0.00    +0.000 C 
ATOM      2  C   UNL     1       5.929   4.939  15.728  0.00  0.00    +0.000 C 
ATOM      3  C   UNL     1       6.004   3.806  16.456  0.00  0.00    +0.000 C 
ATOM      4  C   UNL     1       5.114   3.925  17.602  0.00  0.00    +0.000 C 
ATOM      5  C   UNL     1       4.380   2.901  18.424  0.00  0.00    +0.000 C 
ATOM      6  C   UNL     1       3.187   3.669  19.003  0.00  0.00    +0.000 A 
ATOM      7  N   UNL     1       2.406   2.944  19.841  0.00  0.00    +0.000 N 
ATOM      8  C   UNL     1       1.435   3.468  20.665  0.00  0.00    +0.000 A 
ATOM      9  O   UNL     1       0.726   2.777  21.387  0.00  0.00    +0.000 OA
ATOM     10  C   UNL     1       1.410   4.940  20.695  0.00  0.00    +0.000 A 
ATOM     11  C   UNL     1       2.153   5.645  19.822  0.00  0.00    +0.000 A 
ATOM     12  C   UNL     1       3.014   5.024  18.776  0.00  0.00    +0.000 A 
ATOM     13  C   UNL     1       4.042   5.956  17.857  0.00  0.00    +0.000 C 
ATOM     14  C   UNL     1       4.822   6.043  16.216  0.00  0.00    +0.000 C 
ATOM     15  C   UNL     1       5.324   5.332  18.302  0.00  0.00    +0.000 C 
ATOM     16  C   UNL     1       6.432   5.964  18.738  0.00  0.00    +0.000 C 
ATOM     17  H   UNL     1       2.517   1.923  19.916  0.00  0.00    +0.000 HD
ENDROOT
BRANCH  13  18
ATOM     18  N   UNL     1       3.485   7.295  17.782  0.00  0.00    +0.000 NA
ATOM     19  H   UNL     1       4.060   7.946  17.268  0.00  0.00    +0.000 HD
ATOM     20  H   UNL     1       3.559   7.645  18.748  0.00  0.00    +0.000 HD
ENDBRANCH  13  18
BRANCH  16  21
ATOM     21  C   UNL     1       7.824   5.504  18.405  0.00  0.00    +0.000 C 
BRANCH  21  22
ATOM     22  O   UNL     1       8.562   5.252  19.582  0.00  0.00    +0.000 OA
ATOM     23  H   UNL     1       8.458   6.038  20.144  0.00  0.00    +0.000 HD
ENDBRANCH  21  22
ENDBRANCH  16  21
TORSDOF 3
ENDMDL
MODEL 5
REMARK VINA RESULT:      -6.7      2.367      2.645
REMARK  Name = 
REMARK  4 active torsions:
REMARK  status: ('A' for Active; 'I' for Inactive)
REMARK    1  A    between atoms: C_1  and  C_2
REMARK    2  A    between atoms: C_13  and  N_14
REMARK    3  A    between atoms: C_17  and  C_18
REMARK    4  A    between atoms: C_18  and  O_19
REMARK                            x       y       z     vdW  Elec       q    Type
REMARK                         _______ _______ _______ _____ _____    ______ ____
ROOT
ATOM      1  C   UNL     1       1.944   3.056  21.384  0.00  0.00    +0.000 C 
ATOM      2  C   UNL     1       2.855   3.243  20.205  0.00  0.00    +0.000 C 
ATOM      3  C   UNL     1       2.271   3.338  18.992  0.00  0.00    +0.000 C 
ATOM      4  C   UNL     1       3.237   3.881  18.047  0.00  0.00    +0.000 C 
ATOM      5  C   UNL     1       3.387   3.735  16.558  0.00  0.00    +0.000 C 
ATOM      6  C   UNL     1       4.877   3.991  16.305  0.00  0.00    +0.000 A 
ATOM      7  N   UNL     1       5.236   3.969  14.997  0.00  0.00    +0.000 N 
ATOM      8  C   UNL     1       6.445   4.407  14.504  0.00  0.00    +0.000 A 
ATOM      9  O   UNL     1       6.746   4.342  13.318  0.00  0.00    +0.000 OA
ATOM     10  C   UNL     1       7.291   5.073  15.507  0.00  0.00    +0.000 A 
ATOM     11  C   UNL     1       6.948   5.042  16.808  0.00  0.00    +0.000 A 
ATOM     12  C   UNL     1       5.740   4.340  17.329  0.00  0.00    +0.000 A 
ATOM     13  C   UNL     1       5.283   4.502  18.921  0.00  0.00    +0.000 C 
ATOM     14  C   UNL     1       4.448   3.616  20.273  0.00  0.00    +0.000 C 
ATOM     15  C   UNL     1       3.956   5.143  18.681  0.00  0.00    +0.000 C 
ATOM     16  C   UNL     1       3.471   6.259  19.262  0.00  0.00    +0.000 C 
ATOM     17  H   UNL     1       4.586   3.623  14.277  0.00  0.00    +0.000 HD
ENDROOT
BRANCH  13  18
ATOM     18  N   UNL     1       6.474   4.789  19.702  0.00  0.00    +0.000 NA
ATOM     19  H   UNL     1       6.906   3.968  20.100  0.00  0.00    +0.000 HD
ATOM     20  H   UNL     1       6.110   5.276  20.533  0.00  0.00    +0.000 HD
ENDBRANCH  13  18
BRANCH  16  21
ATOM     21  C   UNL     1       2.028   6.420  19.654  0.00  0.00    +0.000 C 
BRANCH  21  22
ATOM     22  O   UNL     1       1.918   6.785  21.013  0.00  0.00    +0.000 OA
ATOM     23  H   UNL     1       2.274   6.041  21.527  0.00  0.00    +0.000 HD
ENDBRANCH  21  22
ENDBRANCH  16  21
TORSDOF 3
ENDMDL
MODEL 6
REMARK VINA RESULT:      -6.6      2.047      5.691
REMARK  Name = 
REMARK  4 active torsions:
REMARK  status: ('A' for Active; 'I' for Inactive)
REMARK    1  A    between atoms: C_1  and  C_2
REMARK    2  A    between atoms: C_13  and  N_14
REMARK    3  A    between atoms: C_17  and  C_18
REMARK    4  A    between atoms: C_18  and  O_19
REMARK                            x       y       z     vdW  Elec       q    Type
REMARK                         _______ _______ _______ _____ _____    ______ ____
ROOT
ATOM      1  C   UNL     1       7.422   7.862  17.343  0.00  0.00    +0.000 C 
ATOM      2  C   UNL     1       6.312   6.942  17.759  0.00  0.00    +0.000 C 
ATOM      3  C   UNL     1       5.134   7.078  17.114  0.00  0.00    +0.000 C 
ATOM      4  C   UNL     1       4.322   5.895  17.367  0.00  0.00    +0.000 C 
ATOM      5  C   UNL     1       2.834   5.677  17.395  0.00  0.00    +0.000 C 
ATOM      6  C   UNL     1       2.651   4.461  18.310  0.00  0.00    +0.000 A 
ATOM      7  N   UNL     1       1.368   4.040  18.435  0.00  0.00    +0.000 N 
ATOM      8  C   UNL     1       0.981   2.842  18.992  0.00  0.00    +0.000 A 
ATOM      9  O   UNL     1      -0.191   2.510  19.117  0.00  0.00    +0.000 OA
ATOM     10  C   UNL     1       2.104   1.943  19.309  0.00  0.00    +0.000 A 
ATOM     11  C   UNL     1       3.370   2.391  19.230  0.00  0.00    +0.000 A 
ATOM     12  C   UNL     1       3.733   3.787  18.850  0.00  0.00    +0.000 A 
ATOM     13  C   UNL     1       5.321   4.213  18.595  0.00  0.00    +0.000 C 
ATOM     14  C   UNL     1       6.467   5.620  18.713  0.00  0.00    +0.000 C 
ATOM     15  C   UNL     1       5.195   4.589  17.155  0.00  0.00    +0.000 C 
ATOM     16  C   UNL     1       5.975   4.184  16.133  0.00  0.00    +0.000 C 
ATOM     17  H   UNL     1       0.588   4.617  18.089  0.00  0.00    +0.000 HD
ENDROOT
BRANCH  13  18
ATOM     18  N   UNL     1       6.155   3.329  19.391  0.00  0.00    +0.000 NA
ATOM     19  H   UNL     1       6.267   3.629  20.347  0.00  0.00    +0.000 HD
ATOM     20  H   UNL     1       7.099   3.467  19.001  0.00  0.00    +0.000 HD
ENDBRANCH  13  18
BRANCH  16  21
ATOM     21  C   UNL     1       6.375   5.085  14.998  0.00  0.00    +0.000 C 
BRANCH  21  22
ATOM     22  O   UNL     1       7.773   5.280  14.984  0.00  0.00    +0.000 OA
ATOM     23  H   UNL     1       7.918   6.211  14.747  0.00  0.00    +0.000 HD
ENDBRANCH  21  22
ENDBRANCH  16  21
TORSDOF 3
ENDMDL
MODEL 7
REMARK VINA RESULT:      -6.6      5.441      7.266
REMARK  Name = 
REMARK  4 active torsions:
REMARK  status: ('A' for Active; 'I' for Inactive)
REMARK    1  A    between atoms: C_1  and  C_2
REMARK    2  A    between atoms: C_13  and  N_14
REMARK    3  A    between atoms: C_17  and  C_18
REMARK    4  A    between atoms: C_18  and  O_19
REMARK                            x       y       z     vdW  Elec       q    Type
REMARK                         _______ _______ _______ _____ _____    ______ ____
ROOT
ATOM      1  C   UNL     1      -0.399  13.793  20.174  0.00  0.00    +0.000 C 
ATOM      2  C   UNL     1       0.224  12.430  20.108  0.00  0.00    +0.000 C 
ATOM      3  C   UNL     1      -0.301  11.479  20.909  0.00  0.00    +0.000 C 
ATOM      4  C   UNL     1       0.154  10.174  20.451  0.00  0.00    +0.000 C 
ATOM      5  C   UNL     1       0.363   8.867  21.165  0.00  0.00    +0.000 C 
ATOM      6  C   UNL     1       1.410   8.139  20.316  0.00  0.00    +0.000 A 
ATOM      7  N   UNL     1       1.713   6.890  20.748  0.00  0.00    +0.000 N 
ATOM      8  C   UNL     1       2.427   5.958  20.028  0.00  0.00    +0.000 A 
ATOM      9  O   UNL     1       2.709   4.848  20.465  0.00  0.00    +0.000 OA
ATOM     10  C   UNL     1       2.711   6.366  18.642  0.00  0.00    +0.000 A 
ATOM     11  C   UNL     1       2.452   7.625  18.243  0.00  0.00    +0.000 A 
ATOM     12  C   UNL     1       1.896   8.680  19.138  0.00  0.00    +0.000 A 
ATOM     13  C   UNL     1       1.431  10.156  18.526  0.00  0.00    +0.000 C 
ATOM     14  C   UNL     1       1.284  11.913  18.971  0.00  0.00    +0.000 C 
ATOM     15  C   UNL     1      -0.017  10.067  18.879  0.00  0.00    +0.000 C 
ATOM     16  C   UNL     1      -1.071  10.299  18.070  0.00  0.00    +0.000 C 
ATOM     17  H   UNL     1       1.397   6.559  21.670  0.00  0.00    +0.000 HD
ENDROOT
BRANCH  13  18
ATOM     18  N   UNL     1       2.219  10.414  17.333  0.00  0.00    +0.000 NA
ATOM     19  H   UNL     1       3.091   9.908  17.305  0.00  0.00    +0.000 HD
ATOM     20  H   UNL     1       2.529  11.389  17.452  0.00  0.00    +0.000 HD
ENDBRANCH  13  18
BRANCH  16  21
ATOM     21  C   UNL     1      -2.327  10.982  18.534  0.00  0.00    +0.000 C 
BRANCH  21  22
ATOM     22  O   UNL     1      -2.587  12.131  17.755  0.00  0.00    +0.000 OA
ATOM     23  H   UNL     1      -3.446  11.982  17.325  0.00  0.00    +0.000 HD
ENDBRANCH  21  22
ENDBRANCH  16  21
TORSDOF 3
ENDMDL
MODEL 8
REMARK VINA RESULT:      -6.3      3.132      5.128
REMARK  Name = 
REMARK  4 active torsions:
REMARK  status: ('A' for Active; 'I' for Inactive)
REMARK    1  A    between atoms: C_1  and  C_2
REMARK    2  A    between atoms: C_13  and  N_14
REMARK    3  A    between atoms: C_17  and  C_18
REMARK    4  A    between atoms: C_18  and  O_19
REMARK                            x       y       z     vdW  Elec       q    Type
REMARK                         _______ _______ _______ _____ _____    ______ ____
ROOT
ATOM      1  C   UNL     1       5.814   4.185  17.576  0.00  0.00    +0.000 C 
ATOM      2  C   UNL     1       4.884   5.213  18.151  0.00  0.00    +0.000 C 
ATOM      3  C   UNL     1       4.335   6.091  17.286  0.00  0.00    +0.000 C 
ATOM      4  C   UNL     1       3.206   6.745  17.933  0.00  0.00    +0.000 C 
ATOM      5  C   UNL     1       2.567   8.092  17.736  0.00  0.00    +0.000 C 
ATOM      6  C   UNL     1       1.907   8.396  19.085  0.00  0.00    +0.000 A 
ATOM      7  N   UNL     1       1.208   9.558  19.119  0.00  0.00    +0.000 N 
ATOM      8  C   UNL     1       0.338   9.925  20.121  0.00  0.00    +0.000 A 
ATOM      9  O   UNL     1      -0.253  10.998  20.133  0.00  0.00    +0.000 OA
ATOM     10  C   UNL     1       0.084   8.863  21.108  0.00  0.00    +0.000 A 
ATOM     11  C   UNL     1       0.821   7.737  21.093  0.00  0.00    +0.000 A 
ATOM     12  C   UNL     1       1.929   7.485  20.127  0.00  0.00    +0.000 A 
ATOM     13  C   UNL     1       2.670   5.997  20.052  0.00  0.00    +0.000 C 
ATOM     14  C   UNL     1       4.260   5.202  19.665  0.00  0.00    +0.000 C 
ATOM     15  C   UNL     1       2.295   5.661  18.646  0.00  0.00    +0.000 C 
ATOM     16  C   UNL     1       1.741   4.516  18.200  0.00  0.00    +0.000 C 
ATOM     17  H   UNL     1       1.288  10.244  18.356  0.00  0.00    +0.000 HD
ENDROOT
BRANCH  13  18
ATOM     18  N   UNL     1       2.554   5.373  21.359  0.00  0.00    +0.000 NA
ATOM     19  H   UNL     1       1.621   5.058  21.577  0.00  0.00    +0.000 HD
ATOM     20  H   UNL     1       2.685   6.156  22.016  0.00  0.00    +0.000 HD
ENDBRANCH  13  18
BRANCH  16  21
ATOM     21  C   UNL     1       2.107   3.885  16.885  0.00  0.00    +0.000 C 
BRANCH  21  22
ATOM     22  O   UNL     1       2.381   2.510  17.051  0.00  0.00    +0.000 OA
ATOM     23  H   UNL     1       2.326   2.110  16.167  0.00  0.00    +0.000 HD
ENDBRANCH  21  22
ENDBRANCH  16  21
TORSDOF 3
ENDMDL
MODEL 9
REMARK VINA RESULT:      -6.2      2.332      5.597
REMARK  Name = 
REMARK  4 active torsions:
REMARK  status: ('A' for Active; 'I' for Inactive)
REMARK    1  A    between atoms: C_1  and  C_2
REMARK    2  A    between atoms: C_13  and  N_14
REMARK    3  A    between atoms: C_17  and  C_18
REMARK    4  A    between atoms: C_18  and  O_19
REMARK                            x       y       z     vdW  Elec       q    Type
REMARK                         _______ _______ _______ _____ _____    ______ ____
ROOT
ATOM      1  C   UNL     1       7.159   4.531  15.520  0.00  0.00    +0.000 C 
ATOM      2  C   UNL     1       6.114   4.104  16.510  0.00  0.00    +0.000 C 
ATOM      3  C   UNL     1       6.366   4.359  17.811  0.00  0.00    +0.000 C 
ATOM      4  C   UNL     1       5.125   4.232  18.563  0.00  0.00    +0.000 C 
ATOM      5  C   UNL     1       4.843   3.879  19.997  0.00  0.00    +0.000 C 
ATOM      6  C   UNL     1       3.420   3.310  19.970  0.00  0.00    +0.000 A 
ATOM      7  N   UNL     1       2.927   2.974  21.188  0.00  0.00    +0.000 N 
ATOM      8  C   UNL     1       1.608   2.679  21.450  0.00  0.00    +0.000 A 
ATOM      9  O   UNL     1       1.205   2.348  22.559  0.00  0.00    +0.000 OA
ATOM     10  C   UNL     1       0.707   2.917  20.311  0.00  0.00    +0.000 A 
ATOM     11  C   UNL     1       1.213   3.199  19.097  0.00  0.00    +0.000 A 
ATOM     12  C   UNL     1       2.674   3.271  18.805  0.00  0.00    +0.000 A 
ATOM     13  C   UNL     1       3.221   3.805  17.327  0.00  0.00    +0.000 C 
ATOM     14  C   UNL     1       4.593   3.615  16.149  0.00  0.00    +0.000 C 
ATOM     15  C   UNL     1       3.962   5.007  17.814  0.00  0.00    +0.000 C 
ATOM     16  C   UNL     1       3.878   6.266  17.340  0.00  0.00    +0.000 C 
ATOM     17  H   UNL     1       3.541   2.937  22.014  0.00  0.00    +0.000 HD
ENDROOT
BRANCH  13  18
ATOM     18  N   UNL     1       2.193   3.521  16.340  0.00  0.00    +0.000 NA
ATOM     19  H   UNL     1       1.531   4.272  16.215  0.00  0.00    +0.000 HD
ATOM     20  H   UNL     1       1.620   2.791  16.788  0.00  0.00    +0.000 HD
ENDBRANCH  13  18
BRANCH  16  21
ATOM     21  C   UNL     1       5.066   7.181  17.225  0.00  0.00    +0.000 C 
BRANCH  21  22
ATOM     22  O   UNL     1       5.426   7.362  15.872  0.00  0.00    +0.000 OA
ATOM     23  H   UNL     1       6.296   6.944  15.761  0.00  0.00    +0.000 HD
ENDBRANCH  21  22
ENDBRANCH  16  21
TORSDOF 3
ENDMDL
