MODEL 1
REMARK VINA RESULT:      -7.2      0.000      0.000
REMARK  Name = 
REMARK  12 active torsions:
REMARK  status: ('A' for Active; 'I' for Inactive)
REMARK    1  A    between atoms: C_1  and  C_2
REMARK    2  A    between atoms: C_2  and  C_3
REMARK    3  A    between atoms: C_3  and  N_4
REMARK    4  A    between atoms: N_9  and  C_10
REMARK    5  A    between atoms: C_10  and  C_11
REMARK    6  A    between atoms: C_10  and  C_20
REMARK    7  A    between atoms: C_11  and  S_12
REMARK    8  A    between atoms: S_12  and  C_13
REMARK    9  A    between atoms: C_16  and  C_17
REMARK   10  A    between atoms: C_20  and  C_21
REMARK   11  A    between atoms: C_21  and  C_22
REMARK   12  A    between atoms: C_21  and  C_23
REMARK                            x       y       z     vdW  Elec       q    Type
REMARK                         _______ _______ _______ _____ _____    ______ ____
ROOT
ATOM      1  C   UNL     1       2.325   6.396  19.238  0.00  0.00    +0.000 C 
ENDROOT
BRANCH   1   7
ATOM      2  N   UNL     1       6.791   5.679  17.853  0.00  0.00    +0.000 NA
ATOM      3  C   UNL     1       6.397   6.881  17.108  0.00  0.00    +0.000 C 
ATOM      4  C   UNL     1       5.009   6.905  16.477  0.00  0.00    +0.000 C 
ATOM      5  C   UNL     1       3.837   7.175  17.407  0.00  0.00    +0.000 C 
ATOM      6  O   UNL     1       3.067   8.097  17.135  0.00  0.00    +0.000 OA
ATOM      7  N   UNL     1       3.620   6.326  18.479  0.00  0.00    +0.000 N 
ATOM      8  C   UNL     1       4.458   5.148  18.729  0.00  0.00    +0.000 C 
ATOM      9  C   UNL     1       5.928   5.483  19.027  0.00  0.00    +0.000 C 
BRANCH   2  10
ATOM     10  C   UNL     1       6.923   4.444  17.060  0.00  0.00    +0.000 C 
BRANCH  10  12
ATOM     11  C   UNL     1       6.064   3.952  14.700  0.00  0.00    +0.000 C 
ATOM     12  C   UNL     1       7.130   4.624  15.551  0.00  0.00    +0.000 C 
ENDBRANCH  10  12
ENDBRANCH   2  10
ENDBRANCH   1   7
BRANCH   1  13
ATOM     13  C   UNL     1       2.057   7.809  19.843  0.00  0.00    +0.000 C 
BRANCH  13  14
ATOM     14  S   UNL     1       0.965   7.635  21.322  0.00  0.00    +0.000 S 
BRANCH  14  15
ATOM     15  C   UNL     1       0.152   9.201  21.552  0.00  0.00    +0.000 A 
ATOM     16  C   UNL     1       0.028  10.220  20.609  0.00  0.00    +0.000 A 
ATOM     17  C   UNL     1      -0.605  11.428  20.944  0.00  0.00    +0.000 A 
ATOM     18  C   UNL     1      -1.127  11.638  22.227  0.00  0.00    +0.000 A 
ATOM     19  C   UNL     1      -1.806  12.918  22.610  0.00  0.00    +0.000 C 
ATOM     20  C   UNL     1      -1.009  10.616  23.171  0.00  0.00    +0.000 A 
ATOM     21  C   UNL     1      -0.379   9.417  22.835  0.00  0.00    +0.000 A 
ENDBRANCH  14  15
ENDBRANCH  13  14
ENDBRANCH   1  13
BRANCH   1  22
ATOM     22  C   UNL     1       2.244   5.229  20.251  0.00  0.00    +0.000 C 
BRANCH  22  23
ATOM     23  C   UNL     1       1.168   4.147  20.019  0.00  0.00    +0.000 C 
ATOM     24  C   UNL     1       1.241   3.494  18.639  0.00  0.00    +0.000 C 
ATOM     25  C   UNL     1       1.327   3.065  21.097  0.00  0.00    +0.000 C 
ENDBRANCH  22  23
ENDBRANCH   1  22
TORSDOF 8
ENDMDL
MODEL 2
REMARK VINA RESULT:      -7.2      1.931      2.660
REMARK  Name = 
REMARK  12 active torsions:
REMARK  status: ('A' for Active; 'I' for Inactive)
REMARK    1  A    between atoms: C_1  and  C_2
REMARK    2  A    between atoms: C_2  and  C_3
REMARK    3  A    between atoms: C_3  and  N_4
REMARK    4  A    between atoms: N_9  and  C_10
REMARK    5  A    between atoms: C_10  and  C_11
REMARK    6  A    between atoms: C_10  and  C_20
REMARK    7  A    between atoms: C_11  and  S_12
REMARK    8  A    between atoms: S_12  and  C_13
REMARK    9  A    between atoms: C_16  and  C_17
REMARK   10  A    between atoms: C_20  and  C_21
REMARK   11  A    between atoms: C_21  and  C_22
REMARK   12  A    between atoms: C_21  and  C_23
REMARK                            x       y       z     vdW  Elec       q    Type
REMARK                         _______ _______ _______ _____ _____    ______ ____
ROOT
ATOM      1  C   UNL     1       3.416   4.704  18.939  0.00  0.00    +0.000 C 
ENDROOT
BRANCH   1   7
ATOM      2  N   UNL     1       6.715   4.052  15.612  0.00  0.00    +0.000 NA
ATOM      3  C   UNL     1       7.499   4.429  16.793  0.00  0.00    +0.000 C 
ATOM      4  C   UNL     1       6.980   5.571  17.659  0.00  0.00    +0.000 C 
ATOM      5  C   UNL     1       5.832   5.249  18.603  0.00  0.00    +0.000 C 
ATOM      6  O   UNL     1       5.962   5.506  19.801  0.00  0.00    +0.000 OA
ATOM      7  N   UNL     1       4.646   4.761  18.078  0.00  0.00    +0.000 N 
ATOM      8  C   UNL     1       4.443   4.580  16.638  0.00  0.00    +0.000 C 
ATOM      9  C   UNL     1       5.389   3.549  16.000  0.00  0.00    +0.000 C 
BRANCH   2  10
ATOM     10  C   UNL     1       6.624   5.067  14.548  0.00  0.00    +0.000 C 
BRANCH  10  12
ATOM     11  C   UNL     1       6.243   3.603  12.482  0.00  0.00    +0.000 C 
ATOM     12  C   UNL     1       7.120   4.644  13.160  0.00  0.00    +0.000 C 
ENDBRANCH  10  12
ENDBRANCH   2  10
ENDBRANCH   1   7
BRANCH   1  13
ATOM     13  C   UNL     1       3.176   6.024  19.735  0.00  0.00    +0.000 C 
BRANCH  13  14
ATOM     14  S   UNL     1       2.522   7.312  18.584  0.00  0.00    +0.000 S 
BRANCH  14  15
ATOM     15  C   UNL     1       1.556   8.441  19.566  0.00  0.00    +0.000 A 
ATOM     16  C   UNL     1       0.993   9.642  19.138  0.00  0.00    +0.000 A 
ATOM     17  C   UNL     1       0.288  10.459  20.038  0.00  0.00    +0.000 A 
ATOM     18  C   UNL     1       0.132  10.087  21.379  0.00  0.00    +0.000 A 
ATOM     19  C   UNL     1      -0.615  10.940  22.359  0.00  0.00    +0.000 C 
ATOM     20  C   UNL     1       0.690   8.881  21.807  0.00  0.00    +0.000 A 
ATOM     21  C   UNL     1       1.390   8.072  20.911  0.00  0.00    +0.000 A 
ENDBRANCH  14  15
ENDBRANCH  13  14
ENDBRANCH   1  13
BRANCH   1  22
ATOM     22  C   UNL     1       3.434   3.419  19.800  0.00  0.00    +0.000 C 
BRANCH  22  23
ATOM     23  C   UNL     1       2.601   2.214  19.315  0.00  0.00    +0.000 C 
ATOM     24  C   UNL     1       1.331   2.609  18.561  0.00  0.00    +0.000 C 
ATOM     25  C   UNL     1       3.482   1.352  18.399  0.00  0.00    +0.000 C 
ENDBRANCH  22  23
ENDBRANCH   1  22
TORSDOF 8
ENDMDL
MODEL 3
REMARK VINA RESULT:      -7.1      1.704      2.595
REMARK  Name = 
REMARK  12 active torsions:
REMARK  status: ('A' for Active; 'I' for Inactive)
REMARK    1  A    between atoms: C_1  and  C_2
REMARK    2  A    between atoms: C_2  and  C_3
REMARK    3  A    between atoms: C_3  and  N_4
REMARK    4  A    between atoms: N_9  and  C_10
REMARK    5  A    between atoms: C_10  and  C_11
REMARK    6  A    between atoms: C_10  and  C_20
REMARK    7  A    between atoms: C_11  and  S_12
REMARK    8  A    between atoms: S_12  and  C_13
REMARK    9  A    between atoms: C_16  and  C_17
REMARK   10  A    between atoms: C_20  and  C_21
REMARK   11  A    between atoms: C_21  and  C_22
REMARK   12  A    between atoms: C_21  and  C_23
REMARK                            x       y       z     vdW  Elec       q    Type
REMARK                         _______ _______ _______ _____ _____    ______ ____
ROOT
ATOM      1  C   UNL     1       2.138   5.358  18.775  0.00  0.00    +0.000 C 
ENDROOT
BRANCH   1   7
ATOM      2  N   UNL     1       5.950   6.103  16.074  0.00  0.00    +0.000 NA
ATOM      3  C   UNL     1       5.298   4.958  15.427  0.00  0.00    +0.000 C 
ATOM      4  C   UNL     1       4.747   3.853  16.322  0.00  0.00    +0.000 C 
ATOM      5  C   UNL     1       3.424   4.131  17.018  0.00  0.00    +0.000 C 
ATOM      6  O   UNL     1       2.500   3.330  16.871  0.00  0.00    +0.000 OA
ATOM      7  N   UNL     1       3.326   5.222  17.865  0.00  0.00    +0.000 N 
ATOM      8  C   UNL     1       4.465   6.102  18.145  0.00  0.00    +0.000 C 
ATOM      9  C   UNL     1       4.996   6.847  16.909  0.00  0.00    +0.000 C 
BRANCH   2  10
ATOM     10  C   UNL     1       7.197   5.809  16.800  0.00  0.00    +0.000 C 
BRANCH  10  12
ATOM     11  C   UNL     1       7.946   8.105  17.651  0.00  0.00    +0.000 C 
ATOM     12  C   UNL     1       7.503   6.697  18.014  0.00  0.00    +0.000 C 
ENDBRANCH  10  12
ENDBRANCH   2  10
ENDBRANCH   1   7
BRANCH   1  13
ATOM     13  C   UNL     1       2.325   6.475  19.848  0.00  0.00    +0.000 C 
BRANCH  13  14
ATOM     14  S   UNL     1       1.878   8.105  19.105  0.00  0.00    +0.000 S 
BRANCH  14  15
ATOM     15  C   UNL     1       0.971   9.007  20.343  0.00  0.00    +0.000 A 
ATOM     16  C   UNL     1       0.463   8.497  21.537  0.00  0.00    +0.000 A 
ATOM     17  C   UNL     1      -0.276   9.318  22.405  0.00  0.00    +0.000 A 
ATOM     18  C   UNL     1      -0.518  10.662  22.095  0.00  0.00    +0.000 A 
ATOM     19  C   UNL     1      -1.304  11.559  23.003  0.00  0.00    +0.000 C 
ATOM     20  C   UNL     1      -0.005  11.175  20.902  0.00  0.00    +0.000 A 
ATOM     21  C   UNL     1       0.729  10.357  20.042  0.00  0.00    +0.000 A 
ENDBRANCH  14  15
ENDBRANCH  13  14
ENDBRANCH   1  13
BRANCH   1  22
ATOM     22  C   UNL     1       1.747   3.971  19.340  0.00  0.00    +0.000 C 
BRANCH  22  23
ATOM     23  C   UNL     1       2.409   3.518  20.658  0.00  0.00    +0.000 C 
ATOM     24  C   UNL     1       1.460   2.778  21.601  0.00  0.00    +0.000 C 
ATOM     25  C   UNL     1       3.593   2.602  20.316  0.00  0.00    +0.000 C 
ENDBRANCH  22  23
ENDBRANCH   1  22
TORSDOF 8
ENDMDL
MODEL 4
REMARK VINA RESULT:      -7.0      2.561      8.250
REMARK  Name = 
REMARK  12 active torsions:
REMARK  status: ('A' for Active; 'I' for Inactive)
REMARK    1  A    between atoms: C_1  and  C_2
REMARK    2  A    between atoms: C_2  and  C_3
REMARK    3  A    between atoms: C_3  and  N_4
REMARK    4  A    between atoms: N_9  and  C_10
REMARK    5  A    between atoms: C_10  and  C_11
REMARK    6  A    between atoms: C_10  and  C_20
REMARK    7  A    between atoms: C_11  and  S_12
REMARK    8  A    between atoms: S_12  and  C_13
REMARK    9  A    between atoms: C_16  and  C_17
REMARK   10  A    between atoms: C_20  and  C_21
REMARK   11  A    between atoms: C_21  and  C_22
REMARK   12  A    between atoms: C_21  and  C_23
REMARK                            x       y       z     vdW  Elec       q    Type
REMARK                         _______ _______ _______ _____ _____    ______ ____
ROOT
ATOM      1  C   UNL     1       2.977   6.617  18.906  0.00  0.00    +0.000 C 
ENDROOT
BRANCH   1   7
ATOM      2  N   UNL     1       0.755  10.790  18.739  0.00  0.00    +0.000 NA
ATOM      3  C   UNL     1       0.773  10.476  20.173  0.00  0.00    +0.000 C 
ATOM      4  C   UNL     1       0.456   9.045  20.592  0.00  0.00    +0.000 C 
ATOM      5  C   UNL     1       1.565   8.018  20.419  0.00  0.00    +0.000 C 
ATOM      6  O   UNL     1       1.906   7.347  21.394  0.00  0.00    +0.000 OA
ATOM      7  N   UNL     1       2.095   7.807  19.157  0.00  0.00    +0.000 N 
ATOM      8  C   UNL     1       1.598   8.511  17.971  0.00  0.00    +0.000 C 
ATOM      9  C   UNL     1       1.795  10.035  18.024  0.00  0.00    +0.000 C 
BRANCH   2  10
ATOM     10  C   UNL     1      -0.554  10.684  18.072  0.00  0.00    +0.000 C 
BRANCH  10  12
ATOM     11  C   UNL     1      -2.967  11.529  17.938  0.00  0.00    +0.000 C 
ATOM     12  C   UNL     1      -1.523  11.854  18.283  0.00  0.00    +0.000 C 
ENDBRANCH  10  12
ENDBRANCH   2  10
ENDBRANCH   1   7
BRANCH   1  13
ATOM     13  C   UNL     1       4.264   6.979  18.102  0.00  0.00    +0.000 C 
BRANCH  13  14
ATOM     14  S   UNL     1       5.491   5.610  18.280  0.00  0.00    +0.000 S 
BRANCH  14  15
ATOM     15  C   UNL     1       5.889   5.056  16.636  0.00  0.00    +0.000 A 
ATOM     16  C   UNL     1       7.004   5.421  15.883  0.00  0.00    +0.000 A 
ATOM     17  C   UNL     1       7.169   4.937  14.575  0.00  0.00    +0.000 A 
ATOM     18  C   UNL     1       6.224   4.079  13.998  0.00  0.00    +0.000 A 
ATOM     19  C   UNL     1       6.377   3.550  12.604  0.00  0.00    +0.000 C 
ATOM     20  C   UNL     1       5.111   3.708  14.754  0.00  0.00    +0.000 A 
ATOM     21  C   UNL     1       4.949   4.190  16.053  0.00  0.00    +0.000 A 
ENDBRANCH  14  15
ENDBRANCH  13  14
ENDBRANCH   1  13
BRANCH   1  22
ATOM     22  C   UNL     1       2.142   5.459  18.310  0.00  0.00    +0.000 C 
BRANCH  22  23
ATOM     23  C   UNL     1       2.061   4.142  19.110  0.00  0.00    +0.000 C 
ATOM     24  C   UNL     1       1.077   4.191  20.279  0.00  0.00    +0.000 C 
ATOM     25  C   UNL     1       1.647   3.016  18.151  0.00  0.00    +0.000 C 
ENDBRANCH  22  23
ENDBRANCH   1  22
TORSDOF 8
ENDMDL
MODEL 5
REMARK VINA RESULT:      -7.0      1.293      1.559
REMARK  Name = 
REMARK  12 active torsions:
REMARK  status: ('A' for Active; 'I' for Inactive)
REMARK    1  A    between atoms: C_1  and  C_2
REMARK    2  A    between atoms: C_2  and  C_3
REMARK    3  A    between atoms: C_3  and  N_4
REMARK    4  A    between atoms: N_9  and  C_10
REMARK    5  A    between atoms: C_10  and  C_11
REMARK    6  A    between atoms: C_10  and  C_20
REMARK    7  A    between atoms: C_11  and  S_12
REMARK    8  A    between atoms: S_12  and  C_13
REMARK    9  A    between atoms: C_16  and  C_17
REMARK   10  A    between atoms: C_20  and  C_21
REMARK   11  A    between atoms: C_21  and  C_22
REMARK   12  A    between atoms: C_21  and  C_23
REMARK                            x       y       z     vdW  Elec       q    Type
REMARK                         _______ _______ _______ _____ _____    ______ ____
ROOT
ATOM      1  C   UNL     1       2.228   6.258  19.909  0.00  0.00    +0.000 C 
ENDROOT
BRANCH   1   7
ATOM      2  N   UNL     1       6.452   5.704  17.850  0.00  0.00    +0.000 NA
ATOM      3  C   UNL     1       5.904   6.890  17.181  0.00  0.00    +0.000 C 
ATOM      4  C   UNL     1       4.436   6.863  16.771  0.00  0.00    +0.000 C 
ATOM      5  C   UNL     1       3.412   7.090  17.871  0.00  0.00    +0.000 C 
ATOM      6  O   UNL     1       2.577   7.984  17.725  0.00  0.00    +0.000 OA
ATOM      7  N   UNL     1       3.393   6.234  18.960  0.00  0.00    +0.000 N 
ATOM      8  C   UNL     1       4.301   5.089  19.072  0.00  0.00    +0.000 C 
ATOM      9  C   UNL     1       5.787   5.477  19.142  0.00  0.00    +0.000 C 
BRANCH   2  10
ATOM     10  C   UNL     1       6.505   4.474  17.041  0.00  0.00    +0.000 C 
BRANCH  10  12
ATOM     11  C   UNL     1       6.092   3.989  14.562  0.00  0.00    +0.000 C 
ATOM     12  C   UNL     1       7.000   4.631  15.598  0.00  0.00    +0.000 C 
ENDBRANCH  10  12
ENDBRANCH   2  10
ENDBRANCH   1   7
BRANCH   1  13
ATOM     13  C   UNL     1       2.150   7.580  20.734  0.00  0.00    +0.000 C 
BRANCH  13  14
ATOM     14  S   UNL     1       0.379   8.064  20.932  0.00  0.00    +0.000 S 
BRANCH  14  15
ATOM     15  C   UNL     1       0.218   9.714  20.283  0.00  0.00    +0.000 A 
ATOM     16  C   UNL     1      -0.404  10.081  19.090  0.00  0.00    +0.000 A 
ATOM     17  C   UNL     1      -0.418  11.423  18.678  0.00  0.00    +0.000 A 
ATOM     18  C   UNL     1       0.188  12.422  19.452  0.00  0.00    +0.000 A 
ATOM     19  C   UNL     1       0.187  13.861  19.034  0.00  0.00    +0.000 C 
ATOM     20  C   UNL     1       0.805  12.056  20.649  0.00  0.00    +0.000 A 
ATOM     21  C   UNL     1       0.818  10.722  21.056  0.00  0.00    +0.000 A 
ENDBRANCH  14  15
ENDBRANCH  13  14
ENDBRANCH   1  13
BRANCH   1  22
ATOM     22  C   UNL     1       2.210   4.962  20.754  0.00  0.00    +0.000 C 
BRANCH  22  23
ATOM     23  C   UNL     1       1.081   3.945  20.489  0.00  0.00    +0.000 C 
ATOM     24  C   UNL     1       1.022   3.452  19.043  0.00  0.00    +0.000 C 
ATOM     25  C   UNL     1       1.282   2.742  21.423  0.00  0.00    +0.000 C 
ENDBRANCH  22  23
ENDBRANCH   1  22
TORSDOF 8
ENDMDL
MODEL 6
REMARK VINA RESULT:      -7.0      1.839      2.794
REMARK  Name = 
REMARK  12 active torsions:
REMARK  status: ('A' for Active; 'I' for Inactive)
REMARK    1  A    between atoms: C_1  and  C_2
REMARK    2  A    between atoms: C_2  and  C_3
REMARK    3  A    between atoms: C_3  and  N_4
REMARK    4  A    between atoms: N_9  and  C_10
REMARK    5  A    between atoms: C_10  and  C_11
REMARK    6  A    between atoms: C_10  and  C_20
REMARK    7  A    between atoms: C_11  and  S_12
REMARK    8  A    between atoms: S_12  and  C_13
REMARK    9  A    between atoms: C_16  and  C_17
REMARK   10  A    between atoms: C_20  and  C_21
REMARK   11  A    between atoms: C_21  and  C_22
REMARK   12  A    between atoms: C_21  and  C_23
REMARK                            x       y       z     vdW  Elec       q    Type
REMARK                         _______ _______ _______ _____ _____    ______ ____
ROOT
ATOM      1  C   UNL     1       3.414   4.611  18.960  0.00  0.00    +0.000 C 
ENDROOT
BRANCH   1   7
ATOM      2  N   UNL     1       6.714   3.905  15.644  0.00  0.00    +0.000 NA
ATOM      3  C   UNL     1       7.490   4.383  16.794  0.00  0.00    +0.000 C 
ATOM      4  C   UNL     1       6.929   5.551  17.597  0.00  0.00    +0.000 C 
ATOM      5  C   UNL     1       5.802   5.236  18.569  0.00  0.00    +0.000 C 
ATOM      6  O   UNL     1       5.930   5.568  19.749  0.00  0.00    +0.000 OA
ATOM      7  N   UNL     1       4.635   4.670  18.086  0.00  0.00    +0.000 N 
ATOM      8  C   UNL     1       4.429   4.396  16.660  0.00  0.00    +0.000 C 
ATOM      9  C   UNL     1       5.413   3.371  16.074  0.00  0.00    +0.000 C 
BRANCH   2  10
ATOM     10  C   UNL     1       6.572   4.852  14.524  0.00  0.00    +0.000 C 
BRANCH  10  12
ATOM     11  C   UNL     1       7.386   4.681  12.103  0.00  0.00    +0.000 C 
ATOM     12  C   UNL     1       6.363   4.236  13.135  0.00  0.00    +0.000 C 
ENDBRANCH  10  12
ENDBRANCH   2  10
ENDBRANCH   1   7
BRANCH   1  13
ATOM     13  C   UNL     1       3.201   5.918  19.785  0.00  0.00    +0.000 C 
BRANCH  13  14
ATOM     14  S   UNL     1       2.462   7.209  18.690  0.00  0.00    +0.000 S 
BRANCH  14  15
ATOM     15  C   UNL     1       1.568   8.330  19.744  0.00  0.00    +0.000 A 
ATOM     16  C   UNL     1       1.215   8.117  21.076  0.00  0.00    +0.000 A 
ATOM     17  C   UNL     1       0.466   9.076  21.777  0.00  0.00    +0.000 A 
ATOM     18  C   UNL     1       0.060  10.267  21.160  0.00  0.00    +0.000 A 
ATOM     19  C   UNL     1      -0.740  11.306  21.885  0.00  0.00    +0.000 C 
ATOM     20  C   UNL     1       0.419  10.484  19.828  0.00  0.00    +0.000 A 
ATOM     21  C   UNL     1       1.162   9.529  19.135  0.00  0.00    +0.000 A 
ENDBRANCH  14  15
ENDBRANCH  13  14
ENDBRANCH   1  13
BRANCH   1  22
ATOM     22  C   UNL     1       3.426   3.308  19.795  0.00  0.00    +0.000 C 
BRANCH  22  23
ATOM     23  C   UNL     1       2.110   2.510  19.903  0.00  0.00    +0.000 C 
ATOM     24  C   UNL     1       1.311   2.812  21.171  0.00  0.00    +0.000 C 
ATOM     25  C   UNL     1       1.246   2.830  18.676  0.00  0.00    +0.000 C 
ENDBRANCH  22  23
ENDBRANCH   1  22
TORSDOF 8
ENDMDL
MODEL 7
REMARK VINA RESULT:      -6.9      0.479      1.276
REMARK  Name = 
REMARK  12 active torsions:
REMARK  status: ('A' for Active; 'I' for Inactive)
REMARK    1  A    between atoms: C_1  and  C_2
REMARK    2  A    between atoms: C_2  and  C_3
REMARK    3  A    between atoms: C_3  and  N_4
REMARK    4  A    between atoms: N_9  and  C_10
REMARK    5  A    between atoms: C_10  and  C_11
REMARK    6  A    between atoms: C_10  and  C_20
REMARK    7  A    between atoms: C_11  and  S_12
REMARK    8  A    between atoms: S_12  and  C_13
REMARK    9  A    between atoms: C_16  and  C_17
REMARK   10  A    between atoms: C_20  and  C_21
REMARK   11  A    between atoms: C_21  and  C_22
REMARK   12  A    between atoms: C_21  and  C_23
REMARK                            x       y       z     vdW  Elec       q    Type
REMARK                         _______ _______ _______ _____ _____    ______ ____
ROOT
ATOM      1  C   UNL     1       2.512   5.989  19.623  0.00  0.00    +0.000 C 
ENDROOT
BRANCH   1   7
ATOM      2  N   UNL     1       6.856   5.710  17.768  0.00  0.00    +0.000 NA
ATOM      3  C   UNL     1       6.277   6.879  17.095  0.00  0.00    +0.000 C 
ATOM      4  C   UNL     1       4.834   6.781  16.611  0.00  0.00    +0.000 C 
ATOM      5  C   UNL     1       3.747   6.928  17.663  0.00  0.00    +0.000 C 
ATOM      6  O   UNL     1       2.871   7.778  17.493  0.00  0.00    +0.000 OA
ATOM      7  N   UNL     1       3.721   6.049  18.733  0.00  0.00    +0.000 N 
ATOM      8  C   UNL     1       4.685   4.953  18.869  0.00  0.00    +0.000 C 
ATOM      9  C   UNL     1       6.142   5.419  19.021  0.00  0.00    +0.000 C 
BRANCH   2  10
ATOM     10  C   UNL     1       7.017   4.503  16.939  0.00  0.00    +0.000 C 
BRANCH  10  12
ATOM     11  C   UNL     1       6.186   3.945  14.583  0.00  0.00    +0.000 C 
ATOM     12  C   UNL     1       7.174   4.730  15.430  0.00  0.00    +0.000 C 
ENDBRANCH  10  12
ENDBRANCH   2  10
ENDBRANCH   1   7
BRANCH   1  13
ATOM     13  C   UNL     1       2.126   7.382  20.210  0.00  0.00    +0.000 C 
BRANCH  13  14
ATOM     14  S   UNL     1       0.576   7.210  21.200  0.00  0.00    +0.000 S 
BRANCH  14  15
ATOM     15  C   UNL     1       0.037   8.858  21.606  0.00  0.00    +0.000 A 
ATOM     16  C   UNL     1      -0.316   9.329  22.870  0.00  0.00    +0.000 A 
ATOM     17  C   UNL     1      -0.768  10.648  23.038  0.00  0.00    +0.000 A 
ATOM     18  C   UNL     1      -0.872  11.519  21.946  0.00  0.00    +0.000 A 
ATOM     19  C   UNL     1      -1.352  12.931  22.097  0.00  0.00    +0.000 C 
ATOM     20  C   UNL     1      -0.513  11.050  20.681  0.00  0.00    +0.000 A 
ATOM     21  C   UNL     1      -0.065   9.739  20.517  0.00  0.00    +0.000 A 
ENDBRANCH  14  15
ENDBRANCH  13  14
ENDBRANCH   1  13
BRANCH   1  22
ATOM     22  C   UNL     1       2.687   4.867  20.674  0.00  0.00    +0.000 C 
BRANCH  22  23
ATOM     23  C   UNL     1       2.059   3.491  20.370  0.00  0.00    +0.000 C 
ATOM     24  C   UNL     1       1.400   2.834  21.584  0.00  0.00    +0.000 C 
ATOM     25  C   UNL     1       1.009   3.670  19.264  0.00  0.00    +0.000 C 
ENDBRANCH  22  23
ENDBRANCH   1  22
TORSDOF 8
ENDMDL
MODEL 8
REMARK VINA RESULT:      -6.8      2.009      8.240
REMARK  Name = 
REMARK  12 active torsions:
REMARK  status: ('A' for Active; 'I' for Inactive)
REMARK    1  A    between atoms: C_1  and  C_2
REMARK    2  A    between atoms: C_2  and  C_3
REMARK    3  A    between atoms: C_3  and  N_4
REMARK    4  A    between atoms: N_9  and  C_10
REMARK    5  A    between atoms: C_10  and  C_11
REMARK    6  A    between atoms: C_10  and  C_20
REMARK    7  A    between atoms: C_11  and  S_12
REMARK    8  A    between atoms: S_12  and  C_13
REMARK    9  A    between atoms: C_16  and  C_17
REMARK   10  A    between atoms: C_20  and  C_21
REMARK   11  A    between atoms: C_21  and  C_22
REMARK   12  A    between atoms: C_21  and  C_23
REMARK                            x       y       z     vdW  Elec       q    Type
REMARK                         _______ _______ _______ _____ _____    ______ ____
ROOT
ATOM      1  C   UNL     1       2.843   6.392  19.455  0.00  0.00    +0.000 C 
ENDROOT
BRANCH   1   7
ATOM      2  N   UNL     1      -0.401   9.542  20.849  0.00  0.00    +0.000 NA
ATOM      3  C   UNL     1      -0.173   9.893  19.443  0.00  0.00    +0.000 C 
ATOM      4  C   UNL     1       1.264   9.903  18.933  0.00  0.00    +0.000 C 
ATOM      5  C   UNL     1       1.893   8.552  18.631  0.00  0.00    +0.000 C 
ATOM      6  O   UNL     1       2.377   8.363  17.514  0.00  0.00    +0.000 OA
ATOM      7  N   UNL     1       1.983   7.610  19.642  0.00  0.00    +0.000 N 
ATOM      8  C   UNL     1       1.527   7.882  21.009  0.00  0.00    +0.000 C 
ATOM      9  C   UNL     1       0.018   8.158  21.119  0.00  0.00    +0.000 C 
BRANCH   2  10
ATOM     10  C   UNL     1       0.145  10.481  21.844  0.00  0.00    +0.000 C 
BRANCH  10  12
ATOM     11  C   UNL     1      -1.338  12.257  22.940  0.00  0.00    +0.000 C 
ATOM     12  C   UNL     1      -0.778  10.845  23.014  0.00  0.00    +0.000 C 
ENDBRANCH  10  12
ENDBRANCH   2  10
ENDBRANCH   1   7
BRANCH   1  13
ATOM     13  C   UNL     1       4.236   6.727  18.838  0.00  0.00    +0.000 C 
BRANCH  13  14
ATOM     14  S   UNL     1       5.311   5.228  18.929  0.00  0.00    +0.000 S 
BRANCH  14  15
ATOM     15  C   UNL     1       5.772   4.821  17.258  0.00  0.00    +0.000 A 
ATOM     16  C   UNL     1       7.018   5.025  16.666  0.00  0.00    +0.000 A 
ATOM     17  C   UNL     1       7.229   4.694  15.318  0.00  0.00    +0.000 A 
ATOM     18  C   UNL     1       6.199   4.151  14.539  0.00  0.00    +0.000 A 
ATOM     19  C   UNL     1       6.398   3.790  13.098  0.00  0.00    +0.000 C 
ATOM     20  C   UNL     1       4.953   3.940  15.132  0.00  0.00    +0.000 A 
ATOM     21  C   UNL     1       4.747   4.270  16.472  0.00  0.00    +0.000 A 
ENDBRANCH  14  15
ENDBRANCH  13  14
ENDBRANCH   1  13
BRANCH   1  22
ATOM     22  C   UNL     1       2.047   5.295  18.707  0.00  0.00    +0.000 C 
BRANCH  22  23
ATOM     23  C   UNL     1       1.912   3.916  19.384  0.00  0.00    +0.000 C 
ATOM     24  C   UNL     1       1.226   3.965  20.750  0.00  0.00    +0.000 C 
ATOM     25  C   UNL     1       1.112   2.994  18.453  0.00  0.00    +0.000 C 
ENDBRANCH  22  23
ENDBRANCH   1  22
TORSDOF 8
ENDMDL
MODEL 9
REMARK VINA RESULT:      -6.8      2.571      8.245
REMARK  Name = 
REMARK  12 active torsions:
REMARK  status: ('A' for Active; 'I' for Inactive)
REMARK    1  A    between atoms: C_1  and  C_2
REMARK    2  A    between atoms: C_2  and  C_3
REMARK    3  A    between atoms: C_3  and  N_4
REMARK    4  A    between atoms: N_9  and  C_10
REMARK    5  A    between atoms: C_10  and  C_11
REMARK    6  A    between atoms: C_10  and  C_20
REMARK    7  A    between atoms: C_11  and  S_12
REMARK    8  A    between atoms: S_12  and  C_13
REMARK    9  A    between atoms: C_16  and  C_17
REMARK   10  A    between atoms: C_20  and  C_21
REMARK   11  A    between atoms: C_21  and  C_22
REMARK   12  A    between atoms: C_21  and  C_23
REMARK                            x       y       z     vdW  Elec       q    Type
REMARK                         _______ _______ _______ _____ _____    ______ ____
ROOT
ATOM      1  C   UNL     1       2.912   6.718  18.729  0.00  0.00    +0.000 C 
ENDROOT
BRANCH   1   7
ATOM      2  N   UNL     1       0.809  10.951  18.925  0.00  0.00    +0.000 NA
ATOM      3  C   UNL     1       0.878  10.544  20.334  0.00  0.00    +0.000 C 
ATOM      4  C   UNL     1       0.538   9.098  20.676  0.00  0.00    +0.000 C 
ATOM      5  C   UNL     1       1.607   8.056  20.389  0.00  0.00    +0.000 C 
ATOM      6  O   UNL     1       1.970   7.314  21.303  0.00  0.00    +0.000 OA
ATOM      7  N   UNL     1       2.077   7.912  19.094  0.00  0.00    +0.000 N 
ATOM      8  C   UNL     1       1.551   8.704  17.978  0.00  0.00    +0.000 C 
ATOM      9  C   UNL     1       1.794  10.216  18.118  0.00  0.00    +0.000 C 
BRANCH   2  10
ATOM     10  C   UNL     1      -0.530  10.922  18.311  0.00  0.00    +0.000 C 
BRANCH  10  12
ATOM     11  C   UNL     1      -0.470  13.459  18.648  0.00  0.00    +0.000 C 
ATOM     12  C   UNL     1      -1.149  12.283  17.966  0.00  0.00    +0.000 C 
ENDBRANCH  10  12
ENDBRANCH   2  10
ENDBRANCH   1   7
BRANCH   1  13
ATOM     13  C   UNL     1       4.226   7.106  17.983  0.00  0.00    +0.000 C 
BRANCH  13  14
ATOM     14  S   UNL     1       5.463   5.752  18.197  0.00  0.00    +0.000 S 
BRANCH  14  15
ATOM     15  C   UNL     1       5.858   5.149  16.569  0.00  0.00    +0.000 A 
ATOM     16  C   UNL     1       6.973   5.490  15.804  0.00  0.00    +0.000 A 
ATOM     17  C   UNL     1       7.135   4.969  14.510  0.00  0.00    +0.000 A 
ATOM     18  C   UNL     1       6.187   4.096  13.959  0.00  0.00    +0.000 A 
ATOM     19  C   UNL     1       6.336   3.527  12.581  0.00  0.00    +0.000 C 
ATOM     20  C   UNL     1       5.074   3.750  14.727  0.00  0.00    +0.000 A 
ATOM     21  C   UNL     1       4.915   4.269  16.012  0.00  0.00    +0.000 A 
ENDBRANCH  14  15
ENDBRANCH  13  14
ENDBRANCH   1  13
BRANCH   1  22
ATOM     22  C   UNL     1       2.039   5.666  18.004  0.00  0.00    +0.000 C 
BRANCH  22  23
ATOM     23  C   UNL     1       1.695   4.367  18.763  0.00  0.00    +0.000 C 
ATOM     24  C   UNL     1       1.923   3.097  17.943  0.00  0.00    +0.000 C 
ATOM     25  C   UNL     1       2.555   4.306  20.034  0.00  0.00    +0.000 C 
ENDBRANCH  22  23
ENDBRANCH   1  22
TORSDOF 8
ENDMDL
