MODEL 1
REMARK VINA RESULT:      -8.4      0.000      0.000
REMARK  Name = 
REMARK  7 active torsions:
REMARK  status: ('A' for Active; 'I' for Inactive)
REMARK    1  A    between atoms: C_1  and  N_2
REMARK    2  A    between atoms: C_7  and  O_8
REMARK    3  A    between atoms: O_8  and  C_9
REMARK    4  A    between atoms: C_9  and  C_10
REMARK    5  A    between atoms: C_10  and  N_11
REMARK    6  A    between atoms: C_14  and  C_15
REMARK    7  A    between atoms: C_14  and  C_16
REMARK                            x       y       z     vdW  Elec       q    Type
REMARK                         _______ _______ _______ _____ _____    ______ ____
ROOT
ATOM      1  C   UNL     1       2.567   7.416  18.750  0.00  0.00    +0.000 C 
ENDROOT
BRANCH   1   2
ATOM      2  N   UNL     1       3.323   6.489  17.895  0.00  0.00    +0.000 N 
ATOM      3  C   UNL     1       4.447   7.064  17.155  0.00  0.00    +0.000 C 
ATOM      4  C   UNL     1       5.088   6.090  16.181  0.00  0.00    +0.000 C 
ATOM      5  C   UNL     1       5.330   4.713  16.823  0.00  0.00    +0.000 C 
ATOM      6  C   UNL     1       6.000   3.818  15.758  0.00  0.00    +0.000 C 
ATOM      7  C   UNL     1       6.289   4.809  18.029  0.00  0.00    +0.000 C 
ATOM      8  C   UNL     1       3.970   4.204  17.308  0.00  0.00    +0.000 A 
ATOM      9  C   UNL     1       3.645   2.832  17.256  0.00  0.00    +0.000 A 
ATOM     10  C   UNL     1       2.418   2.361  17.717  0.00  0.00    +0.000 A 
ATOM     11  C   UNL     1       1.509   3.252  18.262  0.00  0.00    +0.000 A 
ATOM     12  C   UNL     1       1.828   4.609  18.339  0.00  0.00    +0.000 A 
ATOM     13  C   UNL     1       3.044   5.129  17.854  0.00  0.00    +0.000 A 
ENDBRANCH   1   2
BRANCH   1  14
ATOM     14  C   UNL     1       1.857   8.483  17.917  0.00  0.00    +0.000 C 
BRANCH  14  15
ATOM     15  O   UNL     1       1.696   9.674  18.692  0.00  0.00    +0.000 OA
BRANCH  15  22
ATOM     16  C   UNL     1      -4.376  12.203  19.206  0.00  0.00    +0.000 C 
ATOM     17  N   UNL     1      -3.529  11.362  18.390  0.00  0.00    +0.000 N 
ATOM     18  C   UNL     1      -3.926  10.713  17.252  0.00  0.00    +0.000 A 
ATOM     19  C   UNL     1      -2.848  10.000  16.777  0.00  0.00    +0.000 A 
ATOM     20  C   UNL     1      -1.755  10.224  17.660  0.00  0.00    +0.000 A 
ATOM     21  C   UNL     1      -0.421   9.770  17.704  0.00  0.00    +0.000 A 
ATOM     22  C   UNL     1       0.423  10.187  18.739  0.00  0.00    +0.000 A 
ATOM     23  C   UNL     1      -0.056  11.057  19.720  0.00  0.00    +0.000 A 
ATOM     24  C   UNL     1      -1.373  11.523  19.697  0.00  0.00    +0.000 A 
ATOM     25  C   UNL     1      -2.205  11.086  18.660  0.00  0.00    +0.000 A 
ENDBRANCH  15  22
ENDBRANCH  14  15
ENDBRANCH   1  14
TORSDOF 4
ENDMDL
MODEL 2
REMARK VINA RESULT:      -8.2      0.910      2.502
REMARK  Name = 
REMARK  7 active torsions:
REMARK  status: ('A' for Active; 'I' for Inactive)
REMARK    1  A    between atoms: C_1  and  N_2
REMARK    2  A    between atoms: C_7  and  O_8
REMARK    3  A    between atoms: O_8  and  C_9
REMARK    4  A    between atoms: C_9  and  C_10
REMARK    5  A    between atoms: C_10  and  N_11
REMARK    6  A    between atoms: C_14  and  C_15
REMARK    7  A    between atoms: C_14  and  C_16
REMARK                            x       y       z     vdW  Elec       q    Type
REMARK                         _______ _______ _______ _____ _____    ______ ____
ROOT
ATOM      1  C   UNL     1       2.625   8.214  18.161  0.00  0.00    +0.000 C 
ENDROOT
BRANCH   1   2
ATOM      2  N   UNL     1       2.963   6.814  18.455  0.00  0.00    +0.000 N 
ATOM      3  C   UNL     1       2.341   6.236  19.647  0.00  0.00    +0.000 C 
ATOM      4  C   UNL     1       2.847   4.841  19.974  0.00  0.00    +0.000 C 
ATOM      5  C   UNL     1       2.894   3.942  18.726  0.00  0.00    +0.000 C 
ATOM      6  C   UNL     1       3.398   2.553  19.177  0.00  0.00    +0.000 C 
ATOM      7  C   UNL     1       1.492   3.756  18.107  0.00  0.00    +0.000 C 
ATOM      8  C   UNL     1       3.799   4.640  17.709  0.00  0.00    +0.000 A 
ATOM      9  C   UNL     1       4.638   3.897  16.851  0.00  0.00    +0.000 A 
ATOM     10  C   UNL     1       5.447   4.527  15.908  0.00  0.00    +0.000 A 
ATOM     11  C   UNL     1       5.408   5.906  15.790  0.00  0.00    +0.000 A 
ATOM     12  C   UNL     1       4.566   6.650  16.619  0.00  0.00    +0.000 A 
ATOM     13  C   UNL     1       3.758   6.053  17.606  0.00  0.00    +0.000 A 
ENDBRANCH   1   2
BRANCH   1  14
ATOM     14  C   UNL     1       1.582   8.749  19.143  0.00  0.00    +0.000 C 
BRANCH  14  15
ATOM     15  O   UNL     1       1.389  10.150  18.928  0.00  0.00    +0.000 OA
BRANCH  15  22
ATOM     16  C   UNL     1      -4.868  12.242  18.866  0.00  0.00    +0.000 C 
ATOM     17  N   UNL     1      -3.907  11.419  18.166  0.00  0.00    +0.000 N 
ATOM     18  C   UNL     1      -4.174  10.676  17.048  0.00  0.00    +0.000 A 
ATOM     19  C   UNL     1      -3.017  10.018  16.694  0.00  0.00    +0.000 A 
ATOM     20  C   UNL     1      -2.009  10.376  17.632  0.00  0.00    +0.000 A 
ATOM     21  C   UNL     1      -0.652  10.027  17.796  0.00  0.00    +0.000 A 
ATOM     22  C   UNL     1       0.083  10.568  18.856  0.00  0.00    +0.000 A 
ATOM     23  C   UNL     1      -0.526  11.457  19.744  0.00  0.00    +0.000 A 
ATOM     24  C   UNL     1      -1.867  11.820  19.602  0.00  0.00    +0.000 A 
ATOM     25  C   UNL     1      -2.589  11.261  18.542  0.00  0.00    +0.000 A 
ENDBRANCH  15  22
ENDBRANCH  14  15
ENDBRANCH   1  14
TORSDOF 4
ENDMDL
MODEL 3
REMARK VINA RESULT:      -8.1      1.415      1.583
REMARK  Name = 
REMARK  7 active torsions:
REMARK  status: ('A' for Active; 'I' for Inactive)
REMARK    1  A    between atoms: C_1  and  N_2
REMARK    2  A    between atoms: C_7  and  O_8
REMARK    3  A    between atoms: O_8  and  C_9
REMARK    4  A    between atoms: C_9  and  C_10
REMARK    5  A    between atoms: C_10  and  N_11
REMARK    6  A    between atoms: C_14  and  C_15
REMARK    7  A    between atoms: C_14  and  C_16
REMARK                            x       y       z     vdW  Elec       q    Type
REMARK                         _______ _______ _______ _____ _____    ______ ____
ROOT
ATOM      1  C   UNL     1       1.869   7.925  19.842  0.00  0.00    +0.000 C 
ENDROOT
BRANCH   1   2
ATOM      2  N   UNL     1       2.560   6.835  19.136  0.00  0.00    +0.000 N 
ATOM      3  C   UNL     1       3.427   7.231  18.027  0.00  0.00    +0.000 C 
ATOM      4  C   UNL     1       3.989   6.051  17.251  0.00  0.00    +0.000 C 
ATOM      5  C   UNL     1       4.536   4.959  18.186  0.00  0.00    +0.000 C 
ATOM      6  C   UNL     1       5.097   3.828  17.296  0.00  0.00    +0.000 C 
ATOM      7  C   UNL     1       5.691   5.486  19.062  0.00  0.00    +0.000 C 
ATOM      8  C   UNL     1       3.380   4.531  19.093  0.00  0.00    +0.000 A 
ATOM      9  C   UNL     1       3.238   3.189  19.509  0.00  0.00    +0.000 A 
ATOM     10  C   UNL     1       2.201   2.800  20.352  0.00  0.00    +0.000 A 
ATOM     11  C   UNL     1       1.306   3.749  20.814  0.00  0.00    +0.000 A 
ATOM     12  C   UNL     1       1.448   5.083  20.426  0.00  0.00    +0.000 A 
ATOM     13  C   UNL     1       2.464   5.512  19.550  0.00  0.00    +0.000 A 
ENDBRANCH   1   2
BRANCH   1  14
ATOM     14  C   UNL     1       1.561   9.087  18.896  0.00  0.00    +0.000 C 
BRANCH  14  15
ATOM     15  O   UNL     1       0.895  10.130  19.614  0.00  0.00    +0.000 OA
BRANCH  15  22
ATOM     16  C   UNL     1      -5.053  12.038  17.488  0.00  0.00    +0.000 C 
ATOM     17  N   UNL     1      -3.879  11.271  17.134  0.00  0.00    +0.000 N 
ATOM     18  C   UNL     1      -3.722  10.563  15.973  0.00  0.00    +0.000 A 
ATOM     19  C   UNL     1      -2.488   9.953  16.016  0.00  0.00    +0.000 A 
ATOM     20  C   UNL     1      -1.872  10.304  17.249  0.00  0.00    +0.000 A 
ATOM     21  C   UNL     1      -0.637   9.989  17.853  0.00  0.00    +0.000 A 
ATOM     22  C   UNL     1      -0.326  10.511  19.113  0.00  0.00    +0.000 A 
ATOM     23  C   UNL     1      -1.234  11.348  19.765  0.00  0.00    +0.000 A 
ATOM     24  C   UNL     1      -2.462  11.676  19.186  0.00  0.00    +0.000 A 
ATOM     25  C   UNL     1      -2.760  11.137  17.930  0.00  0.00    +0.000 A 
ENDBRANCH  15  22
ENDBRANCH  14  15
ENDBRANCH   1  14
TORSDOF 4
ENDMDL
MODEL 4
REMARK VINA RESULT:      -8.1      0.523      1.541
REMARK  Name = 
REMARK  7 active torsions:
REMARK  status: ('A' for Active; 'I' for Inactive)
REMARK    1  A    between atoms: C_1  and  N_2
REMARK    2  A    between atoms: C_7  and  O_8
REMARK    3  A    between atoms: O_8  and  C_9
REMARK    4  A    between atoms: C_9  and  C_10
REMARK    5  A    between atoms: C_10  and  N_11
REMARK    6  A    between atoms: C_14  and  C_15
REMARK    7  A    between atoms: C_14  and  C_16
REMARK                            x       y       z     vdW  Elec       q    Type
REMARK                         _______ _______ _______ _____ _____    ______ ____
ROOT
ATOM      1  C   UNL     1       2.668   7.577  18.688  0.00  0.00    +0.000 C 
ENDROOT
BRANCH   1   2
ATOM      2  N   UNL     1       3.362   6.578  17.862  0.00  0.00    +0.000 N 
ATOM      3  C   UNL     1       4.502   7.063  17.084  0.00  0.00    +0.000 C 
ATOM      4  C   UNL     1       5.077   6.018  16.143  0.00  0.00    +0.000 C 
ATOM      5  C   UNL     1       5.259   4.658  16.839  0.00  0.00    +0.000 C 
ATOM      6  C   UNL     1       5.866   3.686  15.804  0.00  0.00    +0.000 C 
ATOM      7  C   UNL     1       6.240   4.755  18.026  0.00  0.00    +0.000 C 
ATOM      8  C   UNL     1       3.883   4.241  17.364  0.00  0.00    +0.000 A 
ATOM      9  C   UNL     1       3.487   2.886  17.373  0.00  0.00    +0.000 A 
ATOM     10  C   UNL     1       2.246   2.499  17.870  0.00  0.00    +0.000 A 
ATOM     11  C   UNL     1       1.392   3.456  18.390  0.00  0.00    +0.000 A 
ATOM     12  C   UNL     1       1.780   4.797  18.406  0.00  0.00    +0.000 A 
ATOM     13  C   UNL     1       3.014   5.233  17.883  0.00  0.00    +0.000 A 
ENDBRANCH   1   2
BRANCH   1  14
ATOM     14  C   UNL     1       1.817   8.512  17.827  0.00  0.00    +0.000 C 
BRANCH  14  15
ATOM     15  O   UNL     1       1.575   9.732  18.532  0.00  0.00    +0.000 OA
BRANCH  15  22
ATOM     16  C   UNL     1      -4.695  11.765  18.220  0.00  0.00    +0.000 C 
ATOM     17  N   UNL     1      -3.467  11.883  18.976  0.00  0.00    +0.000 N 
ATOM     18  C   UNL     1      -3.292  12.682  20.074  0.00  0.00    +0.000 A 
ATOM     19  C   UNL     1      -1.989  12.537  20.495  0.00  0.00    +0.000 A 
ATOM     20  C   UNL     1      -1.348  11.616  19.621  0.00  0.00    +0.000 A 
ATOM     21  C   UNL     1      -0.044  11.086  19.539  0.00  0.00    +0.000 A 
ATOM     22  C   UNL     1       0.274  10.174  18.527  0.00  0.00    +0.000 A 
ATOM     23  C   UNL     1      -0.701   9.786  17.605  0.00  0.00    +0.000 A 
ATOM     24  C   UNL     1      -2.000  10.296  17.667  0.00  0.00    +0.000 A 
ATOM     25  C   UNL     1      -2.297  11.214  18.680  0.00  0.00    +0.000 A 
ENDBRANCH  15  22
ENDBRANCH  14  15
ENDBRANCH   1  14
TORSDOF 4
ENDMDL
MODEL 5
REMARK VINA RESULT:      -7.9      1.819      2.504
REMARK  Name = 
REMARK  7 active torsions:
REMARK  status: ('A' for Active; 'I' for Inactive)
REMARK    1  A    between atoms: C_1  and  N_2
REMARK    2  A    between atoms: C_7  and  O_8
REMARK    3  A    between atoms: O_8  and  C_9
REMARK    4  A    between atoms: C_9  and  C_10
REMARK    5  A    between atoms: C_10  and  N_11
REMARK    6  A    between atoms: C_14  and  C_15
REMARK    7  A    between atoms: C_14  and  C_16
REMARK                            x       y       z     vdW  Elec       q    Type
REMARK                         _______ _______ _______ _____ _____    ______ ____
ROOT
ATOM      1  C   UNL     1       2.492   7.435  18.752  0.00  0.00    +0.000 C 
ENDROOT
BRANCH   1   2
ATOM      2  N   UNL     1       3.258   6.508  17.905  0.00  0.00    +0.000 N 
ATOM      3  C   UNL     1       4.379   7.086  17.165  0.00  0.00    +0.000 C 
ATOM      4  C   UNL     1       5.031   6.109  16.200  0.00  0.00    +0.000 C 
ATOM      5  C   UNL     1       5.280   4.739  16.852  0.00  0.00    +0.000 C 
ATOM      6  C   UNL     1       5.960   3.841  15.795  0.00  0.00    +0.000 C 
ATOM      7  C   UNL     1       6.235   4.851  18.060  0.00  0.00    +0.000 C 
ATOM      8  C   UNL     1       3.923   4.224  17.337  0.00  0.00    +0.000 A 
ATOM      9  C   UNL     1       3.608   2.848  17.293  0.00  0.00    +0.000 A 
ATOM     10  C   UNL     1       2.384   2.372  17.753  0.00  0.00    +0.000 A 
ATOM     11  C   UNL     1       1.466   3.260  18.290  0.00  0.00    +0.000 A 
ATOM     12  C   UNL     1       1.775   4.620  18.358  0.00  0.00    +0.000 A 
ATOM     13  C   UNL     1       2.989   5.145  17.874  0.00  0.00    +0.000 A 
ENDBRANCH   1   2
BRANCH   1  14
ATOM     14  C   UNL     1       2.381   8.814  18.101  0.00  0.00    +0.000 C 
BRANCH  14  15
ATOM     15  O   UNL     1       1.003   9.149  17.911  0.00  0.00    +0.000 OA
BRANCH  15  22
ATOM     16  C   UNL     1      -1.660  13.099  22.476  0.00  0.00    +0.000 C 
ATOM     17  N   UNL     1      -1.138  11.771  22.245  0.00  0.00    +0.000 N 
ATOM     18  C   UNL     1      -1.035  10.790  23.195  0.00  0.00    +0.000 A 
ATOM     19  C   UNL     1      -0.472   9.683  22.597  0.00  0.00    +0.000 A 
ATOM     20  C   UNL     1      -0.226  10.004  21.233  0.00  0.00    +0.000 A 
ATOM     21  C   UNL     1       0.329   9.300  20.145  0.00  0.00    +0.000 A 
ATOM     22  C   UNL     1       0.437   9.921  18.896  0.00  0.00    +0.000 A 
ATOM     23  C   UNL     1      -0.012  11.233  18.729  0.00  0.00    +0.000 A 
ATOM     24  C   UNL     1      -0.567  11.950  19.791  0.00  0.00    +0.000 A 
ATOM     25  C   UNL     1      -0.657  11.316  21.035  0.00  0.00    +0.000 A 
ENDBRANCH  15  22
ENDBRANCH  14  15
ENDBRANCH   1  14
TORSDOF 4
ENDMDL
MODEL 6
REMARK VINA RESULT:      -7.9      1.719      3.400
REMARK  Name = 
REMARK  7 active torsions:
REMARK  status: ('A' for Active; 'I' for Inactive)
REMARK    1  A    between atoms: C_1  and  N_2
REMARK    2  A    between atoms: C_7  and  O_8
REMARK    3  A    between atoms: O_8  and  C_9
REMARK    4  A    between atoms: C_9  and  C_10
REMARK    5  A    between atoms: C_10  and  N_11
REMARK    6  A    between atoms: C_14  and  C_15
REMARK    7  A    between atoms: C_14  and  C_16
REMARK                            x       y       z     vdW  Elec       q    Type
REMARK                         _______ _______ _______ _____ _____    ______ ____
ROOT
ATOM      1  C   UNL     1       2.774   8.198  17.851  0.00  0.00    +0.000 C 
ENDROOT
BRANCH   1   2
ATOM      2  N   UNL     1       3.103   6.813  18.221  0.00  0.00    +0.000 N 
ATOM      3  C   UNL     1       2.477   6.305  19.442  0.00  0.00    +0.000 C 
ATOM      4  C   UNL     1       2.974   4.925  19.844  0.00  0.00    +0.000 C 
ATOM      5  C   UNL     1       3.015   3.960  18.647  0.00  0.00    +0.000 C 
ATOM      6  C   UNL     1       3.509   2.594  19.173  0.00  0.00    +0.000 C 
ATOM      7  C   UNL     1       1.612   3.751  18.038  0.00  0.00    +0.000 C 
ATOM      8  C   UNL     1       3.925   4.596  17.594  0.00  0.00    +0.000 A 
ATOM      9  C   UNL     1       4.760   3.803  16.777  0.00  0.00    +0.000 A 
ATOM     10  C   UNL     1       5.572   4.375  15.802  0.00  0.00    +0.000 A 
ATOM     11  C   UNL     1       5.543   5.746  15.610  0.00  0.00    +0.000 A 
ATOM     12  C   UNL     1       4.705   6.539  16.397  0.00  0.00    +0.000 A 
ATOM     13  C   UNL     1       3.893   6.002  17.415  0.00  0.00    +0.000 A 
ENDBRANCH   1   2
BRANCH   1  14
ATOM     14  C   UNL     1       1.847   8.840  18.884  0.00  0.00    +0.000 C 
BRANCH  14  15
ATOM     15  O   UNL     1       0.804   9.557  18.217  0.00  0.00    +0.000 OA
BRANCH  15  22
ATOM     16  C   UNL     1      -3.043  13.495  21.854  0.00  0.00    +0.000 C 
ATOM     17  N   UNL     1      -2.106  12.395  21.920  0.00  0.00    +0.000 N 
ATOM     18  C   UNL     1      -1.686  11.788  23.073  0.00  0.00    +0.000 A 
ATOM     19  C   UNL     1      -0.784  10.806  22.727  0.00  0.00    +0.000 A 
ATOM     20  C   UNL     1      -0.653  10.816  21.310  0.00  0.00    +0.000 A 
ATOM     21  C   UNL     1       0.109  10.067  20.390  0.00  0.00    +0.000 A 
ATOM     22  C   UNL     1       0.009  10.336  19.021  0.00  0.00    +0.000 A 
ATOM     23  C   UNL     1      -0.851  11.339  18.569  0.00  0.00    +0.000 A 
ATOM     24  C   UNL     1      -1.618  12.093  19.460  0.00  0.00    +0.000 A 
ATOM     25  C   UNL     1      -1.497  11.817  20.826  0.00  0.00    +0.000 A 
ENDBRANCH  15  22
ENDBRANCH  14  15
ENDBRANCH   1  14
TORSDOF 4
ENDMDL
MODEL 7
REMARK VINA RESULT:      -7.9      2.191      3.585
REMARK  Name = 
REMARK  7 active torsions:
REMARK  status: ('A' for Active; 'I' for Inactive)
REMARK    1  A    between atoms: C_1  and  N_2
REMARK    2  A    between atoms: C_7  and  O_8
REMARK    3  A    between atoms: O_8  and  C_9
REMARK    4  A    between atoms: C_9  and  C_10
REMARK    5  A    between atoms: C_10  and  N_11
REMARK    6  A    between atoms: C_14  and  C_15
REMARK    7  A    between atoms: C_14  and  C_16
REMARK                            x       y       z     vdW  Elec       q    Type
REMARK                         _______ _______ _______ _____ _____    ______ ____
ROOT
ATOM      1  C   UNL     1       2.360   7.375  19.757  0.00  0.00    +0.000 C 
ENDROOT
BRANCH   1   2
ATOM      2  N   UNL     1       2.768   5.982  19.524  0.00  0.00    +0.000 N 
ATOM      3  C   UNL     1       2.299   5.000  20.501  0.00  0.00    +0.000 C 
ATOM      4  C   UNL     1       2.878   3.611  20.284  0.00  0.00    +0.000 C 
ATOM      5  C   UNL     1       2.813   3.187  18.807  0.00  0.00    +0.000 C 
ATOM      6  C   UNL     1       3.403   1.763  18.709  0.00  0.00    +0.000 C 
ATOM      7  C   UNL     1       1.358   3.130  18.297  0.00  0.00    +0.000 C 
ATOM      8  C   UNL     1       3.580   4.243  18.007  0.00  0.00    +0.000 A 
ATOM      9  C   UNL     1       4.340   3.887  16.873  0.00  0.00    +0.000 A 
ATOM     10  C   UNL     1       5.021   4.847  16.129  0.00  0.00    +0.000 A 
ATOM     11  C   UNL     1       4.930   6.180  16.491  0.00  0.00    +0.000 A 
ATOM     12  C   UNL     1       4.163   6.547  17.599  0.00  0.00    +0.000 A 
ATOM     13  C   UNL     1       3.486   5.603  18.396  0.00  0.00    +0.000 A 
ENDBRANCH   1   2
BRANCH   1  14
ATOM     14  C   UNL     1       1.209   7.453  20.762  0.00  0.00    +0.000 C 
BRANCH  14  15
ATOM     15  O   UNL     1       1.500   8.442  21.754  0.00  0.00    +0.000 OA
BRANCH  15  22
ATOM     16  C   UNL     1      -3.197  12.947  22.839  0.00  0.00    +0.000 C 
ATOM     17  N   UNL     1      -2.285  12.429  21.843  0.00  0.00    +0.000 N 
ATOM     18  C   UNL     1      -2.199  12.872  20.550  0.00  0.00    +0.000 A 
ATOM     19  C   UNL     1      -1.237  12.121  19.912  0.00  0.00    +0.000 A 
ATOM     20  C   UNL     1      -0.718  11.189  20.853  0.00  0.00    +0.000 A 
ATOM     21  C   UNL     1       0.260  10.174  20.792  0.00  0.00    +0.000 A 
ATOM     22  C   UNL     1       0.541   9.410  21.928  0.00  0.00    +0.000 A 
ATOM     23  C   UNL     1      -0.140   9.657  23.122  0.00  0.00    +0.000 A 
ATOM     24  C   UNL     1      -1.111  10.658  23.208  0.00  0.00    +0.000 A 
ATOM     25  C   UNL     1      -1.387  11.406  22.058  0.00  0.00    +0.000 A 
ENDBRANCH  15  22
ENDBRANCH  14  15
ENDBRANCH   1  14
TORSDOF 4
ENDMDL
MODEL 8
REMARK VINA RESULT:      -7.8      1.745      8.545
REMARK  Name = 
REMARK  7 active torsions:
REMARK  status: ('A' for Active; 'I' for Inactive)
REMARK    1  A    between atoms: C_1  and  N_2
REMARK    2  A    between atoms: C_7  and  O_8
REMARK    3  A    between atoms: O_8  and  C_9
REMARK    4  A    between atoms: C_9  and  C_10
REMARK    5  A    between atoms: C_10  and  N_11
REMARK    6  A    between atoms: C_14  and  C_15
REMARK    7  A    between atoms: C_14  and  C_16
REMARK                            x       y       z     vdW  Elec       q    Type
REMARK                         _______ _______ _______ _____ _____    ______ ____
ROOT
ATOM      1  C   UNL     1       0.975   9.466  17.865  0.00  0.00    +0.000 C 
ENDROOT
BRANCH   1   2
ATOM      2  N   UNL     1      -0.057  10.156  18.652  0.00  0.00    +0.000 N 
ATOM      3  C   UNL     1       0.344  10.618  19.980  0.00  0.00    +0.000 C 
ATOM      4  C   UNL     1      -0.807  11.187  20.794  0.00  0.00    +0.000 C 
ATOM      5  C   UNL     1      -1.668  12.157  19.967  0.00  0.00    +0.000 C 
ATOM      6  C   UNL     1      -2.785  12.687  20.893  0.00  0.00    +0.000 C 
ATOM      7  C   UNL     1      -0.847  13.369  19.479  0.00  0.00    +0.000 C 
ATOM      8  C   UNL     1      -2.175  11.377  18.752  0.00  0.00    +0.000 A 
ATOM      9  C   UNL     1      -3.460  11.614  18.219  0.00  0.00    +0.000 A 
ATOM     10  C   UNL     1      -3.916  10.923  17.100  0.00  0.00    +0.000 A 
ATOM     11  C   UNL     1      -3.086  10.005  16.480  0.00  0.00    +0.000 A 
ATOM     12  C   UNL     1      -1.804   9.777  16.986  0.00  0.00    +0.000 A 
ATOM     13  C   UNL     1      -1.317  10.432  18.134  0.00  0.00    +0.000 A 
ENDBRANCH   1   2
BRANCH   1  14
ATOM     14  C   UNL     1       2.020   8.815  18.773  0.00  0.00    +0.000 C 
BRANCH  14  15
ATOM     15  O   UNL     1       2.994   8.133  17.978  0.00  0.00    +0.000 OA
BRANCH  15  22
ATOM     16  C   UNL     1       3.411   1.572  18.532  0.00  0.00    +0.000 C 
ATOM     17  N   UNL     1       2.778   2.750  19.082  0.00  0.00    +0.000 N 
ATOM     18  C   UNL     1       1.860   2.749  20.097  0.00  0.00    +0.000 A 
ATOM     19  C   UNL     1       1.478   4.054  20.319  0.00  0.00    +0.000 A 
ATOM     20  C   UNL     1       2.191   4.878  19.406  0.00  0.00    +0.000 A 
ATOM     21  C   UNL     1       2.220   6.265  19.151  0.00  0.00    +0.000 A 
ATOM     22  C   UNL     1       3.055   6.772  18.151  0.00  0.00    +0.000 A 
ATOM     23  C   UNL     1       3.864   5.906  17.412  0.00  0.00    +0.000 A 
ATOM     24  C   UNL     1       3.855   4.529  17.646  0.00  0.00    +0.000 A 
ATOM     25  C   UNL     1       3.006   4.038  18.645  0.00  0.00    +0.000 A 
ENDBRANCH  15  22
ENDBRANCH  14  15
ENDBRANCH   1  14
TORSDOF 4
ENDMDL
MODEL 9
REMARK VINA RESULT:      -7.8      2.223      3.041
REMARK  Name = 
REMARK  7 active torsions:
REMARK  status: ('A' for Active; 'I' for Inactive)
REMARK    1  A    between atoms: C_1  and  N_2
REMARK    2  A    between atoms: C_7  and  O_8
REMARK    3  A    between atoms: O_8  and  C_9
REMARK    4  A    between atoms: C_9  and  C_10
REMARK    5  A    between atoms: C_10  and  N_11
REMARK    6  A    between atoms: C_14  and  C_15
REMARK    7  A    between atoms: C_14  and  C_16
REMARK                            x       y       z     vdW  Elec       q    Type
REMARK                         _______ _______ _______ _____ _____    ______ ____
ROOT
ATOM      1  C   UNL     1       2.653   7.533  18.613  0.00  0.00    +0.000 C 
ENDROOT
BRANCH   1   2
ATOM      2  N   UNL     1       3.391   6.565  17.788  0.00  0.00    +0.000 N 
ATOM      3  C   UNL     1       4.521   7.095  17.025  0.00  0.00    +0.000 C 
ATOM      4  C   UNL     1       5.143   6.077  16.083  0.00  0.00    +0.000 C 
ATOM      5  C   UNL     1       5.365   4.720  16.773  0.00  0.00    +0.000 C 
ATOM      6  C   UNL     1       6.017   3.777  15.738  0.00  0.00    +0.000 C 
ATOM      7  C   UNL     1       6.330   4.843  17.971  0.00  0.00    +0.000 C 
ATOM      8  C   UNL     1       3.999   4.250  17.280  0.00  0.00    +0.000 A 
ATOM      9  C   UNL     1       3.652   2.882  17.276  0.00  0.00    +0.000 A 
ATOM     10  C   UNL     1       2.420   2.448  17.758  0.00  0.00    +0.000 A 
ATOM     11  C   UNL     1       1.527   3.372  18.274  0.00  0.00    +0.000 A 
ATOM     12  C   UNL     1       1.867   4.725  18.302  0.00  0.00    +0.000 A 
ATOM     13  C   UNL     1       3.090   5.208  17.796  0.00  0.00    +0.000 A 
ENDBRANCH   1   2
BRANCH   1  14
ATOM     14  C   UNL     1       2.260   8.766  17.798  0.00  0.00    +0.000 C 
BRANCH  14  15
ATOM     15  O   UNL     1       0.985   9.247  18.234  0.00  0.00    +0.000 OA
BRANCH  15  22
ATOM     16  C   UNL     1       0.261  15.736  19.178  0.00  0.00    +0.000 C 
ATOM     17  N   UNL     1       1.215  14.709  18.825  0.00  0.00    +0.000 N 
ATOM     18  C   UNL     1       2.526  14.931  18.498  0.00  0.00    +0.000 A 
ATOM     19  C   UNL     1       3.099  13.713  18.205  0.00  0.00    +0.000 A 
ATOM     20  C   UNL     1       2.098  12.714  18.360  0.00  0.00    +0.000 A 
ATOM     21  C   UNL     1       2.078  11.313  18.198  0.00  0.00    +0.000 A 
ATOM     22  C   UNL     1       0.897  10.602  18.435  0.00  0.00    +0.000 A 
ATOM     23  C   UNL     1      -0.256  11.280  18.838  0.00  0.00    +0.000 A 
ATOM     24  C   UNL     1      -0.260  12.666  19.007  0.00  0.00    +0.000 A 
ATOM     25  C   UNL     1       0.928  13.362  18.757  0.00  0.00    +0.000 A 
ENDBRANCH  15  22
ENDBRANCH  14  15
ENDBRANCH   1  14
TORSDOF 4
ENDMDL
