MODEL 1
REMARK VINA RESULT:      -6.9      0.000      0.000
REMARK  Name = 
REMARK  3 active torsions:
REMARK  status: ('A' for Active; 'I' for Inactive)
REMARK    1  A    between atoms: C_2  and  O_3
REMARK    2  A    between atoms: C_2  and  C_4
REMARK    3  A    between atoms: C_6  and  N_7
REMARK                            x       y       z     vdW  Elec       q    Type
REMARK                         _______ _______ _______ _____ _____    ______ ____
ROOT
ATOM      1  C   UNL     1       6.504   5.214  18.367  0.00  0.00    +0.000 A 
ATOM      2  C   UNL     1       5.483   4.643  19.143  0.00  0.00    +0.000 A 
ATOM      3  C   UNL     1       4.429   3.949  18.517  0.00  0.00    +0.000 A 
ATOM      4  C   UNL     1       4.389   3.797  17.123  0.00  0.00    +0.000 A 
ATOM      5  C   UNL     1       5.421   4.350  16.381  0.00  0.00    +0.000 A 
ATOM      6  C   UNL     1       6.473   5.043  16.984  0.00  0.00    +0.000 A 
ATOM      7  N   UNL     1       7.366   5.614  16.031  0.00  0.00    +0.000 N 
ATOM      8  C   UNL     1       7.032   4.883  14.784  0.00  0.00    +0.000 C 
ATOM      9  C   UNL     1       5.591   4.360  14.900  0.00  0.00    +0.000 C 
ATOM     10  H   UNL     1       8.345   5.469  16.302  0.00  0.00    +0.000 HD
ENDROOT
BRANCH   3  11
ATOM     11  N   UNL     1       3.341   3.396  19.335  0.00  0.00    +0.000 N 
ATOM     12  O   UNL     1       3.646   2.642  20.268  0.00  0.00    +0.000 OA
ATOM     13  O   UNL     1       2.182   3.725  19.045  0.00  0.00    +0.000 OA
ENDBRANCH   3  11
BRANCH   1  15
ATOM     14  O   UNL     1       8.138   6.922  18.560  0.00  0.00    +0.000 OA
ATOM     15  C   UNL     1       7.578   5.962  19.058  0.00  0.00    +0.000 C 
BRANCH  15  16
ATOM     16  O   UNL     1       7.895   5.453  20.268  0.00  0.00    +0.000 OA
ATOM     17  H   UNL     1       7.817   6.114  20.996  0.00  0.00    +0.000 HD
ENDBRANCH  15  16
ENDBRANCH   1  15
TORSDOF 3
ENDMDL
MODEL 2
REMARK VINA RESULT:      -6.9      2.226      4.217
REMARK  Name = 
REMARK  3 active torsions:
REMARK  status: ('A' for Active; 'I' for Inactive)
REMARK    1  A    between atoms: C_2  and  O_3
REMARK    2  A    between atoms: C_2  and  C_4
REMARK    3  A    between atoms: C_6  and  N_7
REMARK                            x       y       z     vdW  Elec       q    Type
REMARK                         _______ _______ _______ _____ _____    ______ ____
ROOT
ATOM      1  C   UNL     1       6.697   5.212  17.913  0.00  0.00    +0.000 A 
ATOM      2  C   UNL     1       7.200   5.311  16.606  0.00  0.00    +0.000 A 
ATOM      3  C   UNL     1       6.486   4.742  15.533  0.00  0.00    +0.000 A 
ATOM      4  C   UNL     1       5.261   4.090  15.743  0.00  0.00    +0.000 A 
ATOM      5  C   UNL     1       4.775   4.026  17.040  0.00  0.00    +0.000 A 
ATOM      6  C   UNL     1       5.470   4.583  18.116  0.00  0.00    +0.000 A 
ATOM      7  N   UNL     1       4.843   4.313  19.367  0.00  0.00    +0.000 N 
ATOM      8  C   UNL     1       3.475   3.896  18.970  0.00  0.00    +0.000 C 
ATOM      9  C   UNL     1       3.531   3.366  17.528  0.00  0.00    +0.000 C 
ATOM     10  H   UNL     1       4.824   5.148  19.963  0.00  0.00    +0.000 HD
ENDROOT
BRANCH   3  11
ATOM     11  N   UNL     1       7.044   4.809  14.176  0.00  0.00    +0.000 N 
ATOM     12  O   UNL     1       6.551   4.072  13.312  0.00  0.00    +0.000 OA
ATOM     13  O   UNL     1       7.972   5.607  13.976  0.00  0.00    +0.000 OA
ENDBRANCH   3  11
BRANCH   1  15
ATOM     14  O   UNL     1       7.507   5.321  20.139  0.00  0.00    +0.000 OA
ATOM     15  C   UNL     1       7.491   5.795  19.018  0.00  0.00    +0.000 C 
BRANCH  15  16
ATOM     16  O   UNL     1       8.158   6.915  18.667  0.00  0.00    +0.000 OA
ATOM     17  H   UNL     1       8.095   7.629  19.344  0.00  0.00    +0.000 HD
ENDBRANCH  15  16
ENDBRANCH   1  15
TORSDOF 3
ENDMDL
MODEL 3
REMARK VINA RESULT:      -6.7      0.364      1.171
REMARK  Name = 
REMARK  3 active torsions:
REMARK  status: ('A' for Active; 'I' for Inactive)
REMARK    1  A    between atoms: C_2  and  O_3
REMARK    2  A    between atoms: C_2  and  C_4
REMARK    3  A    between atoms: C_6  and  N_7
REMARK                            x       y       z     vdW  Elec       q    Type
REMARK                         _______ _______ _______ _____ _____    ______ ____
ROOT
ATOM      1  C   UNL     1       6.324   5.087  18.311  0.00  0.00    +0.000 A 
ATOM      2  C   UNL     1       5.230   4.542  19.001  0.00  0.00    +0.000 A 
ATOM      3  C   UNL     1       4.179   3.936  18.285  0.00  0.00    +0.000 A 
ATOM      4  C   UNL     1       4.212   3.848  16.885  0.00  0.00    +0.000 A 
ATOM      5  C   UNL     1       5.314   4.374  16.229  0.00  0.00    +0.000 A 
ATOM      6  C   UNL     1       6.365   4.979  16.922  0.00  0.00    +0.000 A 
ATOM      7  N   UNL     1       7.342   5.540  16.048  0.00  0.00    +0.000 N 
ATOM      8  C   UNL     1       7.042   4.884  14.751  0.00  0.00    +0.000 C 
ATOM      9  C   UNL     1       5.571   4.439  14.762  0.00  0.00    +0.000 C 
ATOM     10  H   UNL     1       8.293   5.328  16.367  0.00  0.00    +0.000 HD
ENDROOT
BRANCH   3  11
ATOM     11  N   UNL     1       3.016   3.411  19.014  0.00  0.00    +0.000 N 
ATOM     12  O   UNL     1       1.957   3.275  18.388  0.00  0.00    +0.000 OA
ATOM     13  O   UNL     1       3.169   3.128  20.211  0.00  0.00    +0.000 OA
ENDBRANCH   3  11
BRANCH   1  15
ATOM     14  O   UNL     1       7.724   5.365  20.204  0.00  0.00    +0.000 OA
ATOM     15  C   UNL     1       7.395   5.743  19.095  0.00  0.00    +0.000 C 
BRANCH  15  16
ATOM     16  O   UNL     1       7.936   6.813  18.475  0.00  0.00    +0.000 OA
ATOM     17  H   UNL     1       8.653   7.240  19.000  0.00  0.00    +0.000 HD
ENDBRANCH  15  16
ENDBRANCH   1  15
TORSDOF 3
ENDMDL
MODEL 4
REMARK VINA RESULT:      -6.5      0.866      1.285
REMARK  Name = 
REMARK  3 active torsions:
REMARK  status: ('A' for Active; 'I' for Inactive)
REMARK    1  A    between atoms: C_2  and  O_3
REMARK    2  A    between atoms: C_2  and  C_4
REMARK    3  A    between atoms: C_6  and  N_7
REMARK                            x       y       z     vdW  Elec       q    Type
REMARK                         _______ _______ _______ _____ _____    ______ ____
ROOT
ATOM      1  C   UNL     1       6.359   5.335  18.616  0.00  0.00    +0.000 A 
ATOM      2  C   UNL     1       5.151   5.147  19.305  0.00  0.00    +0.000 A 
ATOM      3  C   UNL     1       3.985   4.795  18.596  0.00  0.00    +0.000 A 
ATOM      4  C   UNL     1       4.012   4.606  17.207  0.00  0.00    +0.000 A 
ATOM      5  C   UNL     1       5.222   4.774  16.553  0.00  0.00    +0.000 A 
ATOM      6  C   UNL     1       6.388   5.125  17.238  0.00  0.00    +0.000 A 
ATOM      7  N   UNL     1       7.490   5.346  16.361  0.00  0.00    +0.000 N 
ATOM      8  C   UNL     1       7.043   4.705  15.099  0.00  0.00    +0.000 C 
ATOM      9  C   UNL     1       5.506   4.668  15.093  0.00  0.00    +0.000 C 
ATOM     10  H   UNL     1       8.346   4.911  16.721  0.00  0.00    +0.000 HD
ENDROOT
BRANCH   3  11
ATOM     11  N   UNL     1       2.715   4.648  19.321  0.00  0.00    +0.000 N 
ATOM     12  O   UNL     1       2.486   5.433  20.249  0.00  0.00    +0.000 OA
ATOM     13  O   UNL     1       1.946   3.748  18.952  0.00  0.00    +0.000 OA
ENDBRANCH   3  11
BRANCH   1  15
ATOM     14  O   UNL     1       7.882   5.189  20.428  0.00  0.00    +0.000 OA
ATOM     15  C   UNL     1       7.556   5.735  19.390  0.00  0.00    +0.000 C 
BRANCH  15  16
ATOM     16  O   UNL     1       8.220   6.780  18.850  0.00  0.00    +0.000 OA
ATOM     17  H   UNL     1       8.540   6.602  17.935  0.00  0.00    +0.000 HD
ENDBRANCH  15  16
ENDBRANCH   1  15
TORSDOF 3
ENDMDL
MODEL 5
REMARK VINA RESULT:      -6.5      2.683      5.144
REMARK  Name = 
REMARK  3 active torsions:
REMARK  status: ('A' for Active; 'I' for Inactive)
REMARK    1  A    between atoms: C_2  and  O_3
REMARK    2  A    between atoms: C_2  and  C_4
REMARK    3  A    between atoms: C_6  and  N_7
REMARK                            x       y       z     vdW  Elec       q    Type
REMARK                         _______ _______ _______ _____ _____    ______ ____
ROOT
ATOM      1  C   UNL     1       3.869   3.849  17.266  0.00  0.00    +0.000 A 
ATOM      2  C   UNL     1       4.935   3.743  16.359  0.00  0.00    +0.000 A 
ATOM      3  C   UNL     1       5.550   4.908  15.858  0.00  0.00    +0.000 A 
ATOM      4  C   UNL     1       5.127   6.182  16.266  0.00  0.00    +0.000 A 
ATOM      5  C   UNL     1       4.088   6.258  17.180  0.00  0.00    +0.000 A 
ATOM      6  C   UNL     1       3.466   5.115  17.686  0.00  0.00    +0.000 A 
ATOM      7  N   UNL     1       2.360   5.425  18.529  0.00  0.00    +0.000 N 
ATOM      8  C   UNL     1       2.579   6.856  18.853  0.00  0.00    +0.000 C 
ATOM      9  C   UNL     1       3.438   7.478  17.739  0.00  0.00    +0.000 C 
ATOM     10  H   UNL     1       2.360   4.843  19.374  0.00  0.00    +0.000 HD
ENDROOT
BRANCH   3  11
ATOM     11  N   UNL     1       6.633   4.788  14.872  0.00  0.00    +0.000 N 
ATOM     12  O   UNL     1       7.610   5.537  14.995  0.00  0.00    +0.000 OA
ATOM     13  O   UNL     1       6.505   3.937  13.980  0.00  0.00    +0.000 OA
ENDBRANCH   3  11
BRANCH   1  15
ATOM     14  O   UNL     1       2.025   2.494  17.889  0.00  0.00    +0.000 OA
ATOM     15  C   UNL     1       3.229   2.603  17.746  0.00  0.00    +0.000 C 
BRANCH  15  16
ATOM     16  O   UNL     1       4.111   1.625  18.041  0.00  0.00    +0.000 OA
ATOM     17  H   UNL     1       3.680   0.807  18.384  0.00  0.00    +0.000 HD
ENDBRANCH  15  16
ENDBRANCH   1  15
TORSDOF 3
ENDMDL
MODEL 6
REMARK VINA RESULT:      -6.5      2.265      3.392
REMARK  Name = 
REMARK  3 active torsions:
REMARK  status: ('A' for Active; 'I' for Inactive)
REMARK    1  A    between atoms: C_2  and  O_3
REMARK    2  A    between atoms: C_2  and  C_4
REMARK    3  A    between atoms: C_6  and  N_7
REMARK                            x       y       z     vdW  Elec       q    Type
REMARK                         _______ _______ _______ _____ _____    ______ ____
ROOT
ATOM      1  C   UNL     1       5.998   4.385  16.042  0.00  0.00    +0.000 A 
ATOM      2  C   UNL     1       4.747   3.754  16.119  0.00  0.00    +0.000 A 
ATOM      3  C   UNL     1       4.078   3.668  17.355  0.00  0.00    +0.000 A 
ATOM      4  C   UNL     1       4.631   4.223  18.519  0.00  0.00    +0.000 A 
ATOM      5  C   UNL     1       5.857   4.862  18.412  0.00  0.00    +0.000 A 
ATOM      6  C   UNL     1       6.536   4.955  17.195  0.00  0.00    +0.000 A 
ATOM      7  N   UNL     1       7.820   5.559  17.332  0.00  0.00    +0.000 N 
ATOM      8  C   UNL     1       7.736   6.218  18.659  0.00  0.00    +0.000 C 
ATOM      9  C   UNL     1       6.666   5.494  19.492  0.00  0.00    +0.000 C 
ATOM     10  H   UNL     1       7.994   6.239  16.584  0.00  0.00    +0.000 HD
ENDROOT
BRANCH   3  11
ATOM     11  N   UNL     1       2.791   2.963  17.434  0.00  0.00    +0.000 N 
ATOM     12  O   UNL     1       2.802   1.782  17.802  0.00  0.00    +0.000 OA
ATOM     13  O   UNL     1       1.770   3.599  17.134  0.00  0.00    +0.000 OA
ENDBRANCH   3  11
BRANCH   1  15
ATOM     14  O   UNL     1       7.496   5.289  14.441  0.00  0.00    +0.000 OA
ATOM     15  C   UNL     1       6.685   4.429  14.731  0.00  0.00    +0.000 C 
BRANCH  15  16
ATOM     16  O   UNL     1       6.296   3.448  13.888  0.00  0.00    +0.000 OA
ATOM     17  H   UNL     1       7.051   3.022  13.419  0.00  0.00    +0.000 HD
ENDBRANCH  15  16
ENDBRANCH   1  15
TORSDOF 3
ENDMDL
MODEL 7
REMARK VINA RESULT:      -6.5      2.281      4.744
REMARK  Name = 
REMARK  3 active torsions:
REMARK  status: ('A' for Active; 'I' for Inactive)
REMARK    1  A    between atoms: C_2  and  O_3
REMARK    2  A    between atoms: C_2  and  C_4
REMARK    3  A    between atoms: C_6  and  N_7
REMARK                            x       y       z     vdW  Elec       q    Type
REMARK                         _______ _______ _______ _____ _____    ______ ____
ROOT
ATOM      1  C   UNL     1       4.423   4.215  18.882  0.00  0.00    +0.000 A 
ATOM      2  C   UNL     1       5.611   4.114  18.142  0.00  0.00    +0.000 A 
ATOM      3  C   UNL     1       6.002   5.169  17.293  0.00  0.00    +0.000 A 
ATOM      4  C   UNL     1       5.231   6.337  17.188  0.00  0.00    +0.000 A 
ATOM      5  C   UNL     1       4.075   6.421  17.948  0.00  0.00    +0.000 A 
ATOM      6  C   UNL     1       3.671   5.385  18.793  0.00  0.00    +0.000 A 
ATOM      7  N   UNL     1       2.406   5.637  19.398  0.00  0.00    +0.000 N 
ATOM      8  C   UNL     1       2.227   7.097  19.196  0.00  0.00    +0.000 C 
ATOM      9  C   UNL     1       3.075   7.526  17.988  0.00  0.00    +0.000 C 
ATOM     10  H   UNL     1       2.412   5.393  20.394  0.00  0.00    +0.000 HD
ENDROOT
BRANCH   3  11
ATOM     11  N   UNL     1       7.222   5.034  16.486  0.00  0.00    +0.000 N 
ATOM     12  O   UNL     1       8.070   4.212  16.856  0.00  0.00    +0.000 OA
ATOM     13  O   UNL     1       7.325   5.748  15.478  0.00  0.00    +0.000 OA
ENDBRANCH   3  11
BRANCH   1  15
ATOM     14  O   UNL     1       2.935   2.991  20.266  0.00  0.00    +0.000 OA
ATOM     15  C   UNL     1       4.030   3.073  19.740  0.00  0.00    +0.000 C 
BRANCH  15  16
ATOM     16  O   UNL     1       5.012   2.162  19.904  0.00  0.00    +0.000 OA
ATOM     17  H   UNL     1       5.764   2.288  19.279  0.00  0.00    +0.000 HD
ENDBRANCH  15  16
ENDBRANCH   1  15
TORSDOF 3
ENDMDL
MODEL 8
REMARK VINA RESULT:      -6.5      2.692      5.218
REMARK  Name = 
REMARK  3 active torsions:
REMARK  status: ('A' for Active; 'I' for Inactive)
REMARK    1  A    between atoms: C_2  and  O_3
REMARK    2  A    between atoms: C_2  and  C_4
REMARK    3  A    between atoms: C_6  and  N_7
REMARK                            x       y       z     vdW  Elec       q    Type
REMARK                         _______ _______ _______ _____ _____    ______ ____
ROOT
ATOM      1  C   UNL     1       3.799   3.957  17.249  0.00  0.00    +0.000 A 
ATOM      2  C   UNL     1       4.887   3.832  16.371  0.00  0.00    +0.000 A 
ATOM      3  C   UNL     1       5.549   4.984  15.904  0.00  0.00    +0.000 A 
ATOM      4  C   UNL     1       5.152   6.265  16.317  0.00  0.00    +0.000 A 
ATOM      5  C   UNL     1       4.090   6.360  17.203  0.00  0.00    +0.000 A 
ATOM      6  C   UNL     1       3.421   5.229  17.675  0.00  0.00    +0.000 A 
ATOM      7  N   UNL     1       2.300   5.560  18.491  0.00  0.00    +0.000 N 
ATOM      8  C   UNL     1       2.552   6.981  18.840  0.00  0.00    +0.000 C 
ATOM      9  C   UNL     1       3.460   7.591  17.759  0.00  0.00    +0.000 C 
ATOM     10  H   UNL     1       2.258   4.968  19.327  0.00  0.00    +0.000 HD
ENDROOT
BRANCH   3  11
ATOM     11  N   UNL     1       6.656   4.845  14.948  0.00  0.00    +0.000 N 
ATOM     12  O   UNL     1       6.528   4.021  14.033  0.00  0.00    +0.000 OA
ATOM     13  O   UNL     1       7.649   5.568  15.112  0.00  0.00    +0.000 OA
ENDBRANCH   3  11
BRANCH   1  15
ATOM     14  O   UNL     1       3.707   1.726  18.048  0.00  0.00    +0.000 OA
ATOM     15  C   UNL     1       3.108   2.725  17.694  0.00  0.00    +0.000 C 
BRANCH  15  16
ATOM     16  O   UNL     1       1.762   2.811  17.632  0.00  0.00    +0.000 OA
ATOM     17  H   UNL     1       1.400   2.556  16.752  0.00  0.00    +0.000 HD
ENDBRANCH  15  16
ENDBRANCH   1  15
TORSDOF 3
ENDMDL
MODEL 9
REMARK VINA RESULT:      -6.4      1.072      1.461
REMARK  Name = 
REMARK  3 active torsions:
REMARK  status: ('A' for Active; 'I' for Inactive)
REMARK    1  A    between atoms: C_2  and  O_3
REMARK    2  A    between atoms: C_2  and  C_4
REMARK    3  A    between atoms: C_6  and  N_7
REMARK                            x       y       z     vdW  Elec       q    Type
REMARK                         _______ _______ _______ _____ _____    ______ ____
ROOT
ATOM      1  C   UNL     1       6.500   5.886  17.474  0.00  0.00    +0.000 A 
ATOM      2  C   UNL     1       5.514   5.526  18.405  0.00  0.00    +0.000 A 
ATOM      3  C   UNL     1       4.468   4.663  18.022  0.00  0.00    +0.000 A 
ATOM      4  C   UNL     1       4.403   4.136  16.723  0.00  0.00    +0.000 A 
ATOM      5  C   UNL     1       5.403   4.489  15.830  0.00  0.00    +0.000 A 
ATOM      6  C   UNL     1       6.446   5.344  16.191  0.00  0.00    +0.000 A 
ATOM      7  N   UNL     1       7.302   5.654  15.094  0.00  0.00    +0.000 N 
ATOM      8  C   UNL     1       6.964   4.602  14.103  0.00  0.00    +0.000 C 
ATOM      9  C   UNL     1       5.541   4.098  14.398  0.00  0.00    +0.000 C 
ATOM     10  H   UNL     1       8.289   5.611  15.367  0.00  0.00    +0.000 HD
ENDROOT
BRANCH   3  11
ATOM     11  N   UNL     1       3.414   4.330  18.990  0.00  0.00    +0.000 N 
ATOM     12  O   UNL     1       3.337   5.015  20.017  0.00  0.00    +0.000 OA
ATOM     13  O   UNL     1       2.661   3.385  18.714  0.00  0.00    +0.000 OA
ENDBRANCH   3  11
BRANCH   1  15
ATOM     14  O   UNL     1       8.198   6.668  18.935  0.00  0.00    +0.000 OA
ATOM     15  C   UNL     1       7.567   6.819  17.905  0.00  0.00    +0.000 C 
BRANCH  15  16
ATOM     16  O   UNL     1       7.739   7.863  17.065  0.00  0.00    +0.000 OA
ATOM     17  H   UNL     1       7.958   8.702  17.533  0.00  0.00    +0.000 HD
ENDBRANCH  15  16
ENDBRANCH   1  15
TORSDOF 3
ENDMDL
