MODEL 1
REMARK VINA RESULT:      -9.9      0.000      0.000
REMARK  Name = 
REMARK  7 active torsions:
REMARK  status: ('A' for Active; 'I' for Inactive)
REMARK    1  A    between atoms: C_2  and  C_4
REMARK    2  A    between atoms: C_10  and  C_11
REMARK    3  A    between atoms: C_11  and  C_12
REMARK    4  A    between atoms: C_11  and  C_16
REMARK    5  A    between atoms: C_12  and  C_13
REMARK    6  A    between atoms: N_18  and  C_19
REMARK    7  A    between atoms: C_22  and  N_23
REMARK                            x       y       z     vdW  Elec       q    Type
REMARK                         _______ _______ _______ _____ _____    ______ ____
ROOT
ATOM      1  C   UNL     1       4.302   4.493  17.359  0.00  0.00    +0.000 C 
ENDROOT
BRANCH   1   8
ATOM      2  C   UNL     1       5.779   3.648  12.909  0.00  0.00    +0.000 A 
ATOM      3  C   UNL     1       6.998   4.261  12.633  0.00  0.00    +0.000 A 
ATOM      4  C   UNL     1       7.655   5.026  13.606  0.00  0.00    +0.000 A 
ATOM      5  C   UNL     1       7.048   5.151  14.862  0.00  0.00    +0.000 A 
ATOM      6  N   UNL     1       7.509   5.775  15.998  0.00  0.00    +0.000 N 
ATOM      7  C   UNL     1       6.620   5.605  17.024  0.00  0.00    +0.000 A 
ATOM      8  C   UNL     1       5.507   4.935  16.545  0.00  0.00    +0.000 A 
ATOM      9  C   UNL     1       5.807   4.592  15.170  0.00  0.00    +0.000 A 
ATOM     10  C   UNL     1       5.160   3.827  14.164  0.00  0.00    +0.000 A 
ATOM     11  H   UNL     1       8.409   6.228  16.072  0.00  0.00    +0.000 HD
BRANCH   2  13
ATOM     12  N   UNL     1       4.074   3.122  11.275  0.00  0.00    +0.000 NA
ATOM     13  C   UNL     1       5.167   2.763  11.863  0.00  0.00    +0.000 C 
ATOM     14  N   UNL     1       5.780   1.599  11.500  0.00  0.00    +0.000 N 
ATOM     15  H   UNL     1       3.786   2.398  10.615  0.00  0.00    +0.000 HD
ATOM     16  H   UNL     1       5.527   1.238  10.585  0.00  0.00    +0.000 HD
ATOM     17  H   UNL     1       6.782   1.557  11.650  0.00  0.00    +0.000 HD
ENDBRANCH   2  13
ENDBRANCH   1   8
BRANCH   1  18
ATOM     18  C   UNL     1       3.228   5.578  17.659  0.00  0.00    +0.000 C 
ATOM     19  O   UNL     1       2.050   5.221  17.577  0.00  0.00    +0.000 OA
ATOM     20  N   UNL     1       3.605   6.873  18.042  0.00  0.00    +0.000 N 
ATOM     21  H   UNL     1       4.594   7.080  18.087  0.00  0.00    +0.000 HD
BRANCH  20  22
ATOM     22  C   UNL     1       2.702   7.938  18.438  0.00  0.00    +0.000 A 
ATOM     23  C   UNL     1       2.427   9.015  17.622  0.00  0.00    +0.000 A 
ATOM     24  C   UNL     1       1.389   9.898  17.924  0.00  0.00    +0.000 A 
ATOM     25  C   UNL     1       0.538   9.733  19.042  0.00  0.00    +0.000 A 
ATOM     26  C   UNL     1       0.948   8.806  20.004  0.00  0.00    +0.000 A 
ATOM     27  C   UNL     1       2.021   7.901  19.679  0.00  0.00    +0.000 A 
BRANCH  25  28
ATOM     28  N   UNL     1      -0.721  10.434  18.984  0.00  0.00    +0.000 N 
ATOM     29  C   UNL     1      -0.929  11.464  19.897  0.00  0.00    +0.000 A 
ATOM     30  N   UNL     1      -2.156  11.885  19.967  0.00  0.00    +0.000 NA
ATOM     31  C   UNL     1      -2.719  11.372  18.847  0.00  0.00    +0.000 A 
ATOM     32  C   UNL     1      -3.988  11.717  18.362  0.00  0.00    +0.000 A 
ATOM     33  C   UNL     1      -4.355  11.292  17.097  0.00  0.00    +0.000 A 
ATOM     34  C   UNL     1      -3.493  10.456  16.372  0.00  0.00    +0.000 A 
ATOM     35  C   UNL     1      -2.251  10.016  16.887  0.00  0.00    +0.000 A 
ATOM     36  C   UNL     1      -1.840  10.524  18.138  0.00  0.00    +0.000 A 
ENDBRANCH  25  28
ENDBRANCH  20  22
ENDBRANCH   1  18
BRANCH   1  37
ATOM     37  C   UNL     1       4.743   3.648  18.588  0.00  0.00    +0.000 C 
BRANCH  37  38
ATOM     38  C   UNL     1       3.673   2.786  19.209  0.00  0.00    +0.000 C 
ATOM     39  C   UNL     1       3.867   2.168  20.581  0.00  0.00    +0.000 C 
ATOM     40  C   UNL     1       2.907   3.308  20.401  0.00  0.00    +0.000 C 
ENDBRANCH  37  38
ENDBRANCH   1  37
TORSDOF 7
ENDMDL
MODEL 2
REMARK VINA RESULT:      -9.9      1.509      2.357
REMARK  Name = 
REMARK  7 active torsions:
REMARK  status: ('A' for Active; 'I' for Inactive)
REMARK    1  A    between atoms: C_2  and  C_4
REMARK    2  A    between atoms: C_10  and  C_11
REMARK    3  A    between atoms: C_11  and  C_12
REMARK    4  A    between atoms: C_11  and  C_16
REMARK    5  A    between atoms: C_12  and  C_13
REMARK    6  A    between atoms: N_18  and  C_19
REMARK    7  A    between atoms: C_22  and  N_23
REMARK                            x       y       z     vdW  Elec       q    Type
REMARK                         _______ _______ _______ _____ _____    ______ ____
ROOT
ATOM      1  C   UNL     1       4.243   4.832  17.006  0.00  0.00    +0.000 C 
ENDROOT
BRANCH   1   8
ATOM      2  C   UNL     1       5.845   3.610  12.689  0.00  0.00    +0.000 A 
ATOM      3  C   UNL     1       7.088   4.173  12.409  0.00  0.00    +0.000 A 
ATOM      4  C   UNL     1       7.731   4.996  13.342  0.00  0.00    +0.000 A 
ATOM      5  C   UNL     1       7.086   5.232  14.564  0.00  0.00    +0.000 A 
ATOM      6  N   UNL     1       7.524   5.933  15.663  0.00  0.00    +0.000 N 
ATOM      7  C   UNL     1       6.598   5.863  16.668  0.00  0.00    +0.000 A 
ATOM      8  C   UNL     1       5.485   5.182  16.203  0.00  0.00    +0.000 A 
ATOM      9  C   UNL     1       5.822   4.727  14.870  0.00  0.00    +0.000 A 
ATOM     10  C   UNL     1       5.190   3.900  13.904  0.00  0.00    +0.000 A 
ATOM     11  H   UNL     1       8.433   6.371  15.733  0.00  0.00    +0.000 HD
BRANCH   2  13
ATOM     12  N   UNL     1       5.841   1.543  11.433  0.00  0.00    +0.000 NA
ATOM     13  C   UNL     1       5.247   2.660  11.694  0.00  0.00    +0.000 C 
ATOM     14  N   UNL     1       4.056   2.950  11.093  0.00  0.00    +0.000 N 
ATOM     15  H   UNL     1       5.314   1.032  10.722  0.00  0.00    +0.000 HD
ATOM     16  H   UNL     1       3.547   2.153  10.722  0.00  0.00    +0.000 HD
ATOM     17  H   UNL     1       3.442   3.577  11.600  0.00  0.00    +0.000 HD
ENDBRANCH   2  13
ENDBRANCH   1   8
BRANCH   1  18
ATOM     18  C   UNL     1       3.706   5.927  17.971  0.00  0.00    +0.000 C 
ATOM     19  O   UNL     1       4.192   5.945  19.105  0.00  0.00    +0.000 OA
ATOM     20  N   UNL     1       2.752   6.860  17.539  0.00  0.00    +0.000 N 
ATOM     21  H   UNL     1       2.409   6.774  16.591  0.00  0.00    +0.000 HD
BRANCH  20  22
ATOM     22  C   UNL     1       2.248   7.979  18.312  0.00  0.00    +0.000 A 
ATOM     23  C   UNL     1       2.117   9.245  17.779  0.00  0.00    +0.000 A 
ATOM     24  C   UNL     1       1.421  10.242  18.463  0.00  0.00    +0.000 A 
ATOM     25  C   UNL     1       0.779  10.022  19.705  0.00  0.00    +0.000 A 
ATOM     26  C   UNL     1       1.103   8.837  20.370  0.00  0.00    +0.000 A 
ATOM     27  C   UNL     1       1.824   7.815  19.652  0.00  0.00    +0.000 A 
BRANCH  25  28
ATOM     28  N   UNL     1      -0.242  10.975  20.064  0.00  0.00    +0.000 N 
ATOM     29  C   UNL     1      -0.924  11.610  19.029  0.00  0.00    +0.000 A 
ATOM     30  N   UNL     1      -1.643  12.627  19.400  0.00  0.00    +0.000 NA
ATOM     31  C   UNL     1      -1.721  12.472  20.744  0.00  0.00    +0.000 A 
ATOM     32  C   UNL     1      -2.567  13.209  21.583  0.00  0.00    +0.000 A 
ATOM     33  C   UNL     1      -2.715  12.805  22.899  0.00  0.00    +0.000 A 
ATOM     34  C   UNL     1      -1.950  11.733  23.382  0.00  0.00    +0.000 A 
ATOM     35  C   UNL     1      -1.017  11.041  22.576  0.00  0.00    +0.000 A 
ATOM     36  C   UNL     1      -0.935  11.396  21.212  0.00  0.00    +0.000 A 
ENDBRANCH  25  28
ENDBRANCH  20  22
ENDBRANCH   1  18
BRANCH   1  37
ATOM     37  C   UNL     1       4.368   3.412  17.628  0.00  0.00    +0.000 C 
BRANCH  37  38
ATOM     38  C   UNL     1       3.070   2.674  17.845  0.00  0.00    +0.000 C 
ATOM     39  C   UNL     1       3.023   1.407  18.677  0.00  0.00    +0.000 C 
ATOM     40  C   UNL     1       2.441   2.680  19.218  0.00  0.00    +0.000 C 
ENDBRANCH  37  38
ENDBRANCH   1  37
TORSDOF 7
ENDMDL
MODEL 3
REMARK VINA RESULT:      -9.8      1.848      2.206
REMARK  Name = 
REMARK  7 active torsions:
REMARK  status: ('A' for Active; 'I' for Inactive)
REMARK    1  A    between atoms: C_2  and  C_4
REMARK    2  A    between atoms: C_10  and  C_11
REMARK    3  A    between atoms: C_11  and  C_12
REMARK    4  A    between atoms: C_11  and  C_16
REMARK    5  A    between atoms: C_12  and  C_13
REMARK    6  A    between atoms: N_18  and  C_19
REMARK    7  A    between atoms: C_22  and  N_23
REMARK                            x       y       z     vdW  Elec       q    Type
REMARK                         _______ _______ _______ _____ _____    ______ ____
ROOT
ATOM      1  C   UNL     1       4.002   4.800  17.124  0.00  0.00    +0.000 C 
ENDROOT
BRANCH   1   8
ATOM      2  C   UNL     1       5.779   3.654  12.855  0.00  0.00    +0.000 A 
ATOM      3  C   UNL     1       7.035   4.216  12.639  0.00  0.00    +0.000 A 
ATOM      4  C   UNL     1       7.642   5.018  13.614  0.00  0.00    +0.000 A 
ATOM      5  C   UNL     1       6.947   5.233  14.812  0.00  0.00    +0.000 A 
ATOM      6  N   UNL     1       7.341   5.910  15.941  0.00  0.00    +0.000 N 
ATOM      7  C   UNL     1       6.374   5.826  16.905  0.00  0.00    +0.000 A 
ATOM      8  C   UNL     1       5.278   5.160  16.381  0.00  0.00    +0.000 A 
ATOM      9  C   UNL     1       5.669   4.728  15.055  0.00  0.00    +0.000 A 
ATOM     10  C   UNL     1       5.075   3.924  14.047  0.00  0.00    +0.000 A 
ATOM     11  H   UNL     1       8.248   6.342  16.059  0.00  0.00    +0.000 HD
BRANCH   2  13
ATOM     12  N   UNL     1       4.123   3.031  11.206  0.00  0.00    +0.000 NA
ATOM     13  C   UNL     1       5.219   2.726  11.818  0.00  0.00    +0.000 C 
ATOM     14  N   UNL     1       5.882   1.580  11.487  0.00  0.00    +0.000 N 
ATOM     15  H   UNL     1       3.874   2.284  10.555  0.00  0.00    +0.000 HD
ATOM     16  H   UNL     1       5.659   1.192  10.575  0.00  0.00    +0.000 HD
ATOM     17  H   UNL     1       6.882   1.580  11.653  0.00  0.00    +0.000 HD
ENDBRANCH   2  13
ENDBRANCH   1   8
BRANCH   1  18
ATOM     18  C   UNL     1       3.560   5.769  18.258  0.00  0.00    +0.000 C 
ATOM     19  O   UNL     1       4.167   5.674  19.329  0.00  0.00    +0.000 OA
ATOM     20  N   UNL     1       2.552   6.719  18.038  0.00  0.00    +0.000 N 
ATOM     21  H   UNL     1       2.109   6.729  17.129  0.00  0.00    +0.000 HD
BRANCH  20  22
ATOM     22  C   UNL     1       2.122   7.733  18.982  0.00  0.00    +0.000 A 
ATOM     23  C   UNL     1       1.802   9.017  18.591  0.00  0.00    +0.000 A 
ATOM     24  C   UNL     1       1.175   9.900  19.471  0.00  0.00    +0.000 A 
ATOM     25  C   UNL     1       0.795   9.538  20.785  0.00  0.00    +0.000 A 
ATOM     26  C   UNL     1       1.323   8.343  21.278  0.00  0.00    +0.000 A 
ATOM     27  C   UNL     1       1.969   7.440  20.358  0.00  0.00    +0.000 A 
BRANCH  25  28
ATOM     28  N   UNL     1      -0.207  10.372  21.403  0.00  0.00    +0.000 N 
ATOM     29  C   UNL     1      -0.347  10.294  22.786  0.00  0.00    +0.000 A 
ATOM     30  N   UNL     1      -1.417  10.865  23.254  0.00  0.00    +0.000 NA
ATOM     31  C   UNL     1      -1.831  11.633  22.217  0.00  0.00    +0.000 A 
ATOM     32  C   UNL     1      -2.838  12.605  22.297  0.00  0.00    +0.000 A 
ATOM     33  C   UNL     1      -3.012  13.471  21.231  0.00  0.00    +0.000 A 
ATOM     34  C   UNL     1      -2.247  13.298  20.069  0.00  0.00    +0.000 A 
ATOM     35  C   UNL     1      -1.296  12.259  19.932  0.00  0.00    +0.000 A 
ATOM     36  C   UNL     1      -1.056  11.436  21.053  0.00  0.00    +0.000 A 
ENDBRANCH  25  28
ENDBRANCH  20  22
ENDBRANCH   1  18
BRANCH   1  37
ATOM     37  C   UNL     1       3.989   3.292  17.506  0.00  0.00    +0.000 C 
BRANCH  37  38
ATOM     38  C   UNL     1       2.636   2.628  17.511  0.00  0.00    +0.000 C 
ATOM     39  C   UNL     1       2.022   2.117  18.801  0.00  0.00    +0.000 C 
ATOM     40  C   UNL     1       1.466   3.346  18.142  0.00  0.00    +0.000 C 
ENDBRANCH  37  38
ENDBRANCH   1  37
TORSDOF 7
ENDMDL
MODEL 4
REMARK VINA RESULT:      -9.6      2.061      2.693
REMARK  Name = 
REMARK  7 active torsions:
REMARK  status: ('A' for Active; 'I' for Inactive)
REMARK    1  A    between atoms: C_2  and  C_4
REMARK    2  A    between atoms: C_10  and  C_11
REMARK    3  A    between atoms: C_11  and  C_12
REMARK    4  A    between atoms: C_11  and  C_16
REMARK    5  A    between atoms: C_12  and  C_13
REMARK    6  A    between atoms: N_18  and  C_19
REMARK    7  A    between atoms: C_22  and  N_23
REMARK                            x       y       z     vdW  Elec       q    Type
REMARK                         _______ _______ _______ _____ _____    ______ ____
ROOT
ATOM      1  C   UNL     1       4.137   4.371  17.429  0.00  0.00    +0.000 C 
ENDROOT
BRANCH   1   8
ATOM      2  C   UNL     1       5.823   3.706  13.024  0.00  0.00    +0.000 A 
ATOM      3  C   UNL     1       7.019   4.386  12.809  0.00  0.00    +0.000 A 
ATOM      4  C   UNL     1       7.599   5.159  13.823  0.00  0.00    +0.000 A 
ATOM      5  C   UNL     1       6.939   5.224  15.058  0.00  0.00    +0.000 A 
ATOM      6  N   UNL     1       7.324   5.843  16.223  0.00  0.00    +0.000 N 
ATOM      7  C   UNL     1       6.407   5.604  17.211  0.00  0.00    +0.000 A 
ATOM      8  C   UNL     1       5.348   4.891  16.674  0.00  0.00    +0.000 A 
ATOM      9  C   UNL     1       5.717   4.597  15.304  0.00  0.00    +0.000 A 
ATOM     10  C   UNL     1       5.149   3.824  14.257  0.00  0.00    +0.000 A 
ATOM     11  H   UNL     1       8.196   6.339  16.343  0.00  0.00    +0.000 HD
BRANCH   2  13
ATOM     12  N   UNL     1       5.937   1.740  11.619  0.00  0.00    +0.000 NA
ATOM     13  C   UNL     1       5.297   2.816  11.936  0.00  0.00    +0.000 C 
ATOM     14  N   UNL     1       4.123   3.116  11.307  0.00  0.00    +0.000 N 
ATOM     15  H   UNL     1       5.457   1.269  10.850  0.00  0.00    +0.000 HD
ATOM     16  H   UNL     1       3.656   2.334  10.857  0.00  0.00    +0.000 HD
ATOM     17  H   UNL     1       3.469   3.684  11.832  0.00  0.00    +0.000 HD
ENDBRANCH   2  13
ENDBRANCH   1   8
BRANCH   1  18
ATOM     18  C   UNL     1       3.022   5.405  17.756  0.00  0.00    +0.000 C 
ATOM     19  O   UNL     1       1.859   5.035  17.572  0.00  0.00    +0.000 OA
ATOM     20  N   UNL     1       3.344   6.669  18.272  0.00  0.00    +0.000 N 
ATOM     21  H   UNL     1       4.324   6.888  18.395  0.00  0.00    +0.000 HD
BRANCH  20  22
ATOM     22  C   UNL     1       2.395   7.677  18.703  0.00  0.00    +0.000 A 
ATOM     23  C   UNL     1       1.906   7.729  19.992  0.00  0.00    +0.000 A 
ATOM     24  C   UNL     1       1.180   8.834  20.441  0.00  0.00    +0.000 A 
ATOM     25  C   UNL     1       0.934   9.972  19.637  0.00  0.00    +0.000 A 
ATOM     26  C   UNL     1       1.200   9.838  18.272  0.00  0.00    +0.000 A 
ATOM     27  C   UNL     1       1.949   8.692  17.822  0.00  0.00    +0.000 A 
BRANCH  25  28
ATOM     28  N   UNL     1       0.576  11.177  20.344  0.00  0.00    +0.000 N 
ATOM     29  C   UNL     1       0.243  11.059  21.691  0.00  0.00    +0.000 A 
ATOM     30  N   UNL     1      -0.308  12.117  22.206  0.00  0.00    +0.000 NA
ATOM     31  C   UNL     1      -0.032  13.080  21.293  0.00  0.00    +0.000 A 
ATOM     32  C   UNL     1      -0.241  14.451  21.492  0.00  0.00    +0.000 A 
ATOM     33  C   UNL     1       0.285  15.344  20.574  0.00  0.00    +0.000 A 
ATOM     34  C   UNL     1       0.927  14.856  19.427  0.00  0.00    +0.000 A 
ATOM     35  C   UNL     1       1.058  13.474  19.159  0.00  0.00    +0.000 A 
ATOM     36  C   UNL     1       0.603  12.567  20.140  0.00  0.00    +0.000 A 
ENDBRANCH  25  28
ENDBRANCH  20  22
ENDBRANCH   1  18
BRANCH   1  37
ATOM     37  C   UNL     1       4.572   3.475  18.625  0.00  0.00    +0.000 C 
BRANCH  37  38
ATOM     38  C   UNL     1       3.873   2.143  18.735  0.00  0.00    +0.000 C 
ATOM     39  C   UNL     1       2.473   2.042  19.310  0.00  0.00    +0.000 C 
ATOM     40  C   UNL     1       2.694   1.854  17.837  0.00  0.00    +0.000 C 
ENDBRANCH  37  38
ENDBRANCH   1  37
TORSDOF 7
ENDMDL
MODEL 5
REMARK VINA RESULT:      -9.6      1.186      2.061
REMARK  Name = 
REMARK  7 active torsions:
REMARK  status: ('A' for Active; 'I' for Inactive)
REMARK    1  A    between atoms: C_2  and  C_4
REMARK    2  A    between atoms: C_10  and  C_11
REMARK    3  A    between atoms: C_11  and  C_12
REMARK    4  A    between atoms: C_11  and  C_16
REMARK    5  A    between atoms: C_12  and  C_13
REMARK    6  A    between atoms: N_18  and  C_19
REMARK    7  A    between atoms: C_22  and  N_23
REMARK                            x       y       z     vdW  Elec       q    Type
REMARK                         _______ _______ _______ _____ _____    ______ ____
ROOT
ATOM      1  C   UNL     1       3.745   4.262  17.064  0.00  0.00    +0.000 C 
ENDROOT
BRANCH   1   8
ATOM      2  C   UNL     1       5.735   3.517  12.800  0.00  0.00    +0.000 A 
ATOM      3  C   UNL     1       6.977   4.135  12.684  0.00  0.00    +0.000 A 
ATOM      4  C   UNL     1       7.515   4.876  13.744  0.00  0.00    +0.000 A 
ATOM      5  C   UNL     1       6.764   4.973  14.923  0.00  0.00    +0.000 A 
ATOM      6  N   UNL     1       7.087   5.571  16.119  0.00  0.00    +0.000 N 
ATOM      7  C   UNL     1       6.085   5.378  17.030  0.00  0.00    +0.000 A 
ATOM      8  C   UNL     1       5.036   4.721  16.408  0.00  0.00    +0.000 A 
ATOM      9  C   UNL     1       5.496   4.409  15.070  0.00  0.00    +0.000 A 
ATOM     10  C   UNL     1       4.973   3.668  13.978  0.00  0.00    +0.000 A 
ATOM     11  H   UNL     1       7.972   6.021  16.309  0.00  0.00    +0.000 HD
BRANCH   2  13
ATOM     12  N   UNL     1       4.192   2.994  11.013  0.00  0.00    +0.000 NA
ATOM     13  C   UNL     1       5.251   2.657  11.671  0.00  0.00    +0.000 C 
ATOM     14  N   UNL     1       5.948   1.541  11.306  0.00  0.00    +0.000 N 
ATOM     15  H   UNL     1       3.992   2.290  10.300  0.00  0.00    +0.000 HD
ATOM     16  H   UNL     1       5.786   1.214  10.358  0.00  0.00    +0.000 HD
ATOM     17  H   UNL     1       6.935   1.538  11.535  0.00  0.00    +0.000 HD
ENDBRANCH   2  13
ENDBRANCH   1   8
BRANCH   1  18
ATOM     18  C   UNL     1       2.848   5.370  17.686  0.00  0.00    +0.000 C 
ATOM     19  O   UNL     1       1.725   5.022  18.061  0.00  0.00    +0.000 OA
ATOM     20  N   UNL     1       3.328   6.679  17.843  0.00  0.00    +0.000 N 
ATOM     21  H   UNL     1       4.262   6.878  17.511  0.00  0.00    +0.000 HD
BRANCH  20  22
ATOM     22  C   UNL     1       2.625   7.769  18.493  0.00  0.00    +0.000 A 
ATOM     23  C   UNL     1       2.365   8.964  17.855  0.00  0.00    +0.000 A 
ATOM     24  C   UNL     1       1.494   9.901  18.414  0.00  0.00    +0.000 A 
ATOM     25  C   UNL     1       0.801   9.681  19.627  0.00  0.00    +0.000 A 
ATOM     26  C   UNL     1       1.233   8.602  20.403  0.00  0.00    +0.000 A 
ATOM     27  C   UNL     1       2.133   7.643  19.814  0.00  0.00    +0.000 A 
BRANCH  25  28
ATOM     28  N   UNL     1      -0.361  10.507  19.847  0.00  0.00    +0.000 N 
ATOM     29  C   UNL     1      -1.247  10.668  18.786  0.00  0.00    +0.000 A 
ATOM     30  N   UNL     1      -2.127  11.610  18.955  0.00  0.00    +0.000 NA
ATOM     31  C   UNL     1      -2.055  11.859  20.284  0.00  0.00    +0.000 A 
ATOM     32  C   UNL     1      -2.960  12.659  20.996  0.00  0.00    +0.000 A 
ATOM     33  C   UNL     1      -2.906  12.655  22.379  0.00  0.00    +0.000 A 
ATOM     34  C   UNL     1      -1.896  11.931  23.029  0.00  0.00    +0.000 A 
ATOM     35  C   UNL     1      -0.913  11.199  22.323  0.00  0.00    +0.000 A 
ATOM     36  C   UNL     1      -1.024  11.130  20.918  0.00  0.00    +0.000 A 
ENDBRANCH  25  28
ENDBRANCH  20  22
ENDBRANCH   1  18
BRANCH   1  37
ATOM     37  C   UNL     1       3.995   3.030  17.980  0.00  0.00    +0.000 C 
BRANCH  37  38
ATOM     38  C   UNL     1       4.245   3.333  19.435  0.00  0.00    +0.000 C 
ATOM     39  C   UNL     1       3.229   2.955  20.497  0.00  0.00    +0.000 C 
ATOM     40  C   UNL     1       4.518   2.194  20.388  0.00  0.00    +0.000 C 
ENDBRANCH  37  38
ENDBRANCH   1  37
TORSDOF 7
ENDMDL
MODEL 6
REMARK VINA RESULT:      -9.2      2.495      3.613
REMARK  Name = 
REMARK  7 active torsions:
REMARK  status: ('A' for Active; 'I' for Inactive)
REMARK    1  A    between atoms: C_2  and  C_4
REMARK    2  A    between atoms: C_10  and  C_11
REMARK    3  A    between atoms: C_11  and  C_12
REMARK    4  A    between atoms: C_11  and  C_16
REMARK    5  A    between atoms: C_12  and  C_13
REMARK    6  A    between atoms: N_18  and  C_19
REMARK    7  A    between atoms: C_22  and  N_23
REMARK                            x       y       z     vdW  Elec       q    Type
REMARK                         _______ _______ _______ _____ _____    ______ ____
ROOT
ATOM      1  C   UNL     1       2.804   5.956  18.096  0.00  0.00    +0.000 C 
ENDROOT
BRANCH   1   8
ATOM      2  C   UNL     1       6.580   4.770  15.445  0.00  0.00    +0.000 A 
ATOM      3  C   UNL     1       7.702   4.490  16.221  0.00  0.00    +0.000 A 
ATOM      4  C   UNL     1       7.648   4.570  17.619  0.00  0.00    +0.000 A 
ATOM      5  C   UNL     1       6.431   4.938  18.208  0.00  0.00    +0.000 A 
ATOM      6  N   UNL     1       6.094   5.022  19.539  0.00  0.00    +0.000 N 
ATOM      7  C   UNL     1       4.776   5.364  19.672  0.00  0.00    +0.000 A 
ATOM      8  C   UNL     1       4.246   5.602  18.414  0.00  0.00    +0.000 A 
ATOM      9  C   UNL     1       5.294   5.272  17.470  0.00  0.00    +0.000 A 
ATOM     10  C   UNL     1       5.379   5.188  16.055  0.00  0.00    +0.000 A 
ATOM     11  H   UNL     1       6.718   4.790  20.299  0.00  0.00    +0.000 HD
BRANCH   2  13
ATOM     12  N   UNL     1       7.422   5.349  13.252  0.00  0.00    +0.000 NA
ATOM     13  C   UNL     1       6.667   4.576  13.960  0.00  0.00    +0.000 C 
ATOM     14  N   UNL     1       5.984   3.559  13.356  0.00  0.00    +0.000 N 
ATOM     15  H   UNL     1       7.345   5.094  12.266  0.00  0.00    +0.000 HD
ATOM     16  H   UNL     1       6.343   3.267  12.452  0.00  0.00    +0.000 HD
ATOM     17  H   UNL     1       5.763   2.762  13.942  0.00  0.00    +0.000 HD
ENDBRANCH   2  13
ENDBRANCH   1   8
BRANCH   1  18
ATOM     18  C   UNL     1       2.341   7.393  18.470  0.00  0.00    +0.000 C 
ATOM     19  O   UNL     1       2.535   8.270  17.623  0.00  0.00    +0.000 OA
ATOM     20  N   UNL     1       1.701   7.646  19.691  0.00  0.00    +0.000 N 
ATOM     21  H   UNL     1       1.579   6.869  20.327  0.00  0.00    +0.000 HD
BRANCH  20  22
ATOM     22  C   UNL     1       1.141   8.918  20.109  0.00  0.00    +0.000 A 
ATOM     23  C   UNL     1       0.684   9.856  19.208  0.00  0.00    +0.000 A 
ATOM     24  C   UNL     1      -0.055  10.961  19.634  0.00  0.00    +0.000 A 
ATOM     25  C   UNL     1      -0.413  11.173  20.986  0.00  0.00    +0.000 A 
ATOM     26  C   UNL     1       0.240  10.382  21.934  0.00  0.00    +0.000 A 
ATOM     27  C   UNL     1       1.001   9.244  21.480  0.00  0.00    +0.000 A 
BRANCH  25  28
ATOM     28  N   UNL     1      -1.514  12.078  21.211  0.00  0.00    +0.000 N 
ATOM     29  C   UNL     1      -2.002  12.784  20.116  0.00  0.00    +0.000 A 
ATOM     30  N   UNL     1      -2.811  13.756  20.416  0.00  0.00    +0.000 NA
ATOM     31  C   UNL     1      -3.144  13.490  21.702  0.00  0.00    +0.000 A 
ATOM     32  C   UNL     1      -4.159  14.142  22.414  0.00  0.00    +0.000 A 
ATOM     33  C   UNL     1      -4.546  13.629  23.641  0.00  0.00    +0.000 A 
ATOM     34  C   UNL     1      -3.856  12.534  24.180  0.00  0.00    +0.000 A 
ATOM     35  C   UNL     1      -2.762  11.925  23.520  0.00  0.00    +0.000 A 
ATOM     36  C   UNL     1      -2.429  12.392  22.230  0.00  0.00    +0.000 A 
ENDBRANCH  25  28
ENDBRANCH  20  22
ENDBRANCH   1  18
BRANCH   1  37
ATOM     37  C   UNL     1       1.841   4.819  18.546  0.00  0.00    +0.000 C 
BRANCH  37  38
ATOM     38  C   UNL     1       1.916   3.542  17.747  0.00  0.00    +0.000 C 
ATOM     39  C   UNL     1       2.855   2.422  18.154  0.00  0.00    +0.000 C 
ATOM     40  C   UNL     1       1.375   2.267  18.347  0.00  0.00    +0.000 C 
ENDBRANCH  37  38
ENDBRANCH   1  37
TORSDOF 7
ENDMDL
MODEL 7
REMARK VINA RESULT:      -9.2      2.533      3.862
REMARK  Name = 
REMARK  7 active torsions:
REMARK  status: ('A' for Active; 'I' for Inactive)
REMARK    1  A    between atoms: C_2  and  C_4
REMARK    2  A    between atoms: C_10  and  C_11
REMARK    3  A    between atoms: C_11  and  C_12
REMARK    4  A    between atoms: C_11  and  C_16
REMARK    5  A    between atoms: C_12  and  C_13
REMARK    6  A    between atoms: N_18  and  C_19
REMARK    7  A    between atoms: C_22  and  N_23
REMARK                            x       y       z     vdW  Elec       q    Type
REMARK                         _______ _______ _______ _____ _____    ______ ____
ROOT
ATOM      1  C   UNL     1       2.710   6.153  17.825  0.00  0.00    +0.000 C 
ENDROOT
BRANCH   1   8
ATOM      2  C   UNL     1       6.590   4.783  15.424  0.00  0.00    +0.000 A 
ATOM      3  C   UNL     1       7.644   4.452  16.271  0.00  0.00    +0.000 A 
ATOM      4  C   UNL     1       7.503   4.538  17.663  0.00  0.00    +0.000 A 
ATOM      5  C   UNL     1       6.270   4.965  18.172  0.00  0.00    +0.000 A 
ATOM      6  N   UNL     1       5.852   5.068  19.478  0.00  0.00    +0.000 N 
ATOM      7  C   UNL     1       4.545   5.472  19.525  0.00  0.00    +0.000 A 
ATOM      8  C   UNL     1       4.110   5.731  18.236  0.00  0.00    +0.000 A 
ATOM      9  C   UNL     1       5.201   5.350  17.362  0.00  0.00    +0.000 A 
ATOM     10  C   UNL     1       5.372   5.258  15.955  0.00  0.00    +0.000 A 
ATOM     11  H   UNL     1       6.413   4.809  20.277  0.00  0.00    +0.000 HD
BRANCH   2  13
ATOM     12  N   UNL     1       7.511   5.387  13.271  0.00  0.00    +0.000 NA
ATOM     13  C   UNL     1       6.763   4.580  13.948  0.00  0.00    +0.000 C 
ATOM     14  N   UNL     1       6.169   3.523  13.322  0.00  0.00    +0.000 N 
ATOM     15  H   UNL     1       7.499   5.120  12.285  0.00  0.00    +0.000 HD
ATOM     16  H   UNL     1       6.589   3.242  12.441  0.00  0.00    +0.000 HD
ATOM     17  H   UNL     1       5.962   2.719  13.905  0.00  0.00    +0.000 HD
ENDBRANCH   2  13
ENDBRANCH   1   8
BRANCH   1  18
ATOM     18  C   UNL     1       2.109   7.385  18.560  0.00  0.00    +0.000 C 
ATOM     19  O   UNL     1       2.142   7.357  19.794  0.00  0.00    +0.000 OA
ATOM     20  N   UNL     1       1.602   8.475  17.838  0.00  0.00    +0.000 N 
ATOM     21  H   UNL     1       1.617   8.415  16.828  0.00  0.00    +0.000 HD
BRANCH  20  22
ATOM     22  C   UNL     1       1.107   9.714  18.407  0.00  0.00    +0.000 A 
ATOM     23  C   UNL     1      -0.169   9.834  18.917  0.00  0.00    +0.000 A 
ATOM     24  C   UNL     1      -0.542  10.954  19.661  0.00  0.00    +0.000 A 
ATOM     25  C   UNL     1       0.353  12.005  19.973  0.00  0.00    +0.000 A 
ATOM     26  C   UNL     1       1.559  12.023  19.269  0.00  0.00    +0.000 A 
ATOM     27  C   UNL     1       1.932  10.860  18.503  0.00  0.00    +0.000 A 
BRANCH  25  28
ATOM     28  N   UNL     1      -0.025  12.845  21.083  0.00  0.00    +0.000 N 
ATOM     29  C   UNL     1       0.772  13.955  21.352  0.00  0.00    +0.000 A 
ATOM     30  N   UNL     1       0.538  14.524  22.497  0.00  0.00    +0.000 NA
ATOM     31  C   UNL     1      -0.660  14.003  22.857  0.00  0.00    +0.000 A 
ATOM     32  C   UNL     1      -1.438  14.461  23.929  0.00  0.00    +0.000 A 
ATOM     33  C   UNL     1      -2.736  13.994  24.056  0.00  0.00    +0.000 A 
ATOM     34  C   UNL     1      -3.205  13.012  23.172  0.00  0.00    +0.000 A 
ATOM     35  C   UNL     1      -2.400  12.465  22.146  0.00  0.00    +0.000 A 
ATOM     36  C   UNL     1      -1.110  13.007  21.962  0.00  0.00    +0.000 A 
ENDBRANCH  25  28
ENDBRANCH  20  22
ENDBRANCH   1  18
BRANCH   1  37
ATOM     37  C   UNL     1       1.765   4.920  17.730  0.00  0.00    +0.000 C 
BRANCH  37  38
ATOM     38  C   UNL     1       2.175   3.715  18.540  0.00  0.00    +0.000 C 
ATOM     39  C   UNL     1       1.251   2.521  18.683  0.00  0.00    +0.000 C 
ATOM     40  C   UNL     1       2.480   2.420  17.827  0.00  0.00    +0.000 C 
ENDBRANCH  37  38
ENDBRANCH   1  37
TORSDOF 7
ENDMDL
MODEL 8
REMARK VINA RESULT:      -9.2      2.122      2.900
REMARK  Name = 
REMARK  7 active torsions:
REMARK  status: ('A' for Active; 'I' for Inactive)
REMARK    1  A    between atoms: C_2  and  C_4
REMARK    2  A    between atoms: C_10  and  C_11
REMARK    3  A    between atoms: C_11  and  C_12
REMARK    4  A    between atoms: C_11  and  C_16
REMARK    5  A    between atoms: C_12  and  C_13
REMARK    6  A    between atoms: N_18  and  C_19
REMARK    7  A    between atoms: C_22  and  N_23
REMARK                            x       y       z     vdW  Elec       q    Type
REMARK                         _______ _______ _______ _____ _____    ______ ____
ROOT
ATOM      1  C   UNL     1       4.456   5.175  17.006  0.00  0.00    +0.000 C 
ENDROOT
BRANCH   1   8
ATOM      2  C   UNL     1       5.836   3.652  12.709  0.00  0.00    +0.000 A 
ATOM      3  C   UNL     1       7.122   4.078  12.386  0.00  0.00    +0.000 A 
ATOM      4  C   UNL     1       7.863   4.866  13.277  0.00  0.00    +0.000 A 
ATOM      5  C   UNL     1       7.271   5.206  14.500  0.00  0.00    +0.000 A 
ATOM      6  N   UNL     1       7.800   5.898  15.565  0.00  0.00    +0.000 N 
ATOM      7  C   UNL     1       6.893   5.955  16.589  0.00  0.00    +0.000 A 
ATOM      8  C   UNL     1       5.709   5.372  16.169  0.00  0.00    +0.000 A 
ATOM      9  C   UNL     1       5.970   4.840  14.848  0.00  0.00    +0.000 A 
ATOM     10  C   UNL     1       5.239   4.047  13.924  0.00  0.00    +0.000 A 
ATOM     11  H   UNL     1       8.748   6.245  15.603  0.00  0.00    +0.000 HD
BRANCH   2  13
ATOM     12  N   UNL     1       4.002   3.092  11.235  0.00  0.00    +0.000 NA
ATOM     13  C   UNL     1       5.125   2.732  11.761  0.00  0.00    +0.000 C 
ATOM     14  N   UNL     1       5.679   1.532  11.418  0.00  0.00    +0.000 N 
ATOM     15  H   UNL     1       3.647   2.343  10.638  0.00  0.00    +0.000 HD
ATOM     16  H   UNL     1       5.350   1.131  10.544  0.00  0.00    +0.000 HD
ATOM     17  H   UNL     1       6.688   1.468  11.497  0.00  0.00    +0.000 HD
ENDBRANCH   2  13
ENDBRANCH   1   8
BRANCH   1  18
ATOM     18  C   UNL     1       3.698   6.463  17.440  0.00  0.00    +0.000 C 
ATOM     19  O   UNL     1       3.853   7.458  16.727  0.00  0.00    +0.000 OA
ATOM     20  N   UNL     1       2.856   6.456  18.562  0.00  0.00    +0.000 N 
ATOM     21  H   UNL     1       2.785   5.596  19.089  0.00  0.00    +0.000 HD
BRANCH  20  22
ATOM     22  C   UNL     1       2.027   7.560  19.007  0.00  0.00    +0.000 A 
ATOM     23  C   UNL     1       1.720   7.763  20.337  0.00  0.00    +0.000 A 
ATOM     24  C   UNL     1       1.121   8.950  20.761  0.00  0.00    +0.000 A 
ATOM     25  C   UNL     1       0.827  10.021  19.885  0.00  0.00    +0.000 A 
ATOM     26  C   UNL     1       0.900   9.745  18.518  0.00  0.00    +0.000 A 
ATOM     27  C   UNL     1       1.521   8.515  18.093  0.00  0.00    +0.000 A 
BRANCH  25  28
ATOM     28  N   UNL     1       0.632  11.308  20.508  0.00  0.00    +0.000 N 
ATOM     29  C   UNL     1       1.252  12.408  19.922  0.00  0.00    +0.000 A 
ATOM     30  N   UNL     1       1.252  13.482  20.654  0.00  0.00    +0.000 NA
ATOM     31  C   UNL     1       0.324  13.206  21.602  0.00  0.00    +0.000 A 
ATOM     32  C   UNL     1      -0.189  14.139  22.512  0.00  0.00    +0.000 A 
ATOM     33  C   UNL     1      -1.287  13.787  23.278  0.00  0.00    +0.000 A 
ATOM     34  C   UNL     1      -1.798  12.484  23.194  0.00  0.00    +0.000 A 
ATOM     35  C   UNL     1      -1.230  11.498  22.354  0.00  0.00    +0.000 A 
ATOM     36  C   UNL     1      -0.169  11.885  21.508  0.00  0.00    +0.000 A 
ENDBRANCH  25  28
ENDBRANCH  20  22
ENDBRANCH   1  18
BRANCH   1  37
ATOM     37  C   UNL     1       4.707   4.146  18.146  0.00  0.00    +0.000 C 
BRANCH  37  38
ATOM     38  C   UNL     1       3.938   2.853  18.043  0.00  0.00    +0.000 C 
ATOM     39  C   UNL     1       2.751   2.577  18.945  0.00  0.00    +0.000 C 
ATOM     40  C   UNL     1       2.533   2.875  17.490  0.00  0.00    +0.000 C 
ENDBRANCH  37  38
ENDBRANCH   1  37
TORSDOF 7
ENDMDL
MODEL 9
REMARK VINA RESULT:      -9.1      2.121      2.856
REMARK  Name = 
REMARK  7 active torsions:
REMARK  status: ('A' for Active; 'I' for Inactive)
REMARK    1  A    between atoms: C_2  and  C_4
REMARK    2  A    between atoms: C_10  and  C_11
REMARK    3  A    between atoms: C_11  and  C_12
REMARK    4  A    between atoms: C_11  and  C_16
REMARK    5  A    between atoms: C_12  and  C_13
REMARK    6  A    between atoms: N_18  and  C_19
REMARK    7  A    between atoms: C_22  and  N_23
REMARK                            x       y       z     vdW  Elec       q    Type
REMARK                         _______ _______ _______ _____ _____    ______ ____
ROOT
ATOM      1  C   UNL     1       3.733   4.416  17.919  0.00  0.00    +0.000 C 
ENDROOT
BRANCH   1   8
ATOM      2  C   UNL     1       5.876   3.929  13.692  0.00  0.00    +0.000 A 
ATOM      3  C   UNL     1       7.165   4.455  13.691  0.00  0.00    +0.000 A 
ATOM      4  C   UNL     1       7.702   5.047  14.843  0.00  0.00    +0.000 A 
ATOM      5  C   UNL     1       6.901   5.088  15.992  0.00  0.00    +0.000 A 
ATOM      6  N   UNL     1       7.207   5.541  17.254  0.00  0.00    +0.000 N 
ATOM      7  C   UNL     1       6.148   5.341  18.097  0.00  0.00    +0.000 A 
ATOM      8  C   UNL     1       5.086   4.832  17.368  0.00  0.00    +0.000 A 
ATOM      9  C   UNL     1       5.589   4.615  16.027  0.00  0.00    +0.000 A 
ATOM     10  C   UNL     1       5.069   4.026  14.844  0.00  0.00    +0.000 A 
ATOM     11  H   UNL     1       8.112   5.899  17.526  0.00  0.00    +0.000 HD
BRANCH   2  13
ATOM     12  N   UNL     1       4.266   3.569  11.923  0.00  0.00    +0.000 NA
ATOM     13  C   UNL     1       5.388   3.223  12.462  0.00  0.00    +0.000 C 
ATOM     14  N   UNL     1       6.142   2.243  11.884  0.00  0.00    +0.000 N 
ATOM     15  H   UNL     1       4.075   2.974  11.115  0.00  0.00    +0.000 HD
ATOM     16  H   UNL     1       5.945   2.059  10.904  0.00  0.00    +0.000 HD
ATOM     17  H   UNL     1       7.140   2.288  12.058  0.00  0.00    +0.000 HD
ENDBRANCH   2  13
ENDBRANCH   1   8
BRANCH   1  18
ATOM     18  C   UNL     1       2.695   5.551  18.149  0.00  0.00    +0.000 C 
ATOM     19  O   UNL     1       1.562   5.359  17.699  0.00  0.00    +0.000 OA
ATOM     20  N   UNL     1       3.041   6.704  18.869  0.00  0.00    +0.000 N 
ATOM     21  H   UNL     1       3.992   6.779  19.205  0.00  0.00    +0.000 HD
BRANCH  20  22
ATOM     22  C   UNL     1       2.139   7.782  19.229  0.00  0.00    +0.000 A 
ATOM     23  C   UNL     1       1.610   7.910  20.496  0.00  0.00    +0.000 A 
ATOM     24  C   UNL     1       0.937   9.072  20.879  0.00  0.00    +0.000 A 
ATOM     25  C   UNL     1       0.788  10.192  20.027  0.00  0.00    +0.000 A 
ATOM     26  C   UNL     1       1.093   9.992  18.679  0.00  0.00    +0.000 A 
ATOM     27  C   UNL     1       1.787   8.788  18.297  0.00  0.00    +0.000 A 
BRANCH  25  28
ATOM     28  N   UNL     1       0.479  11.441  20.679  0.00  0.00    +0.000 N 
ATOM     29  C   UNL     1       1.042  12.600  20.150  0.00  0.00    +0.000 A 
ATOM     30  N   UNL     1       0.939  13.647  20.913  0.00  0.00    +0.000 NA
ATOM     31  C   UNL     1      -0.002  13.277  21.815  0.00  0.00    +0.000 A 
ATOM     32  C   UNL     1      -0.613  14.144  22.731  0.00  0.00    +0.000 A 
ATOM     33  C   UNL     1      -1.711  13.692  23.443  0.00  0.00    +0.000 A 
ATOM     34  C   UNL     1      -2.126  12.360  23.301  0.00  0.00    +0.000 A 
ATOM     35  C   UNL     1      -1.459  11.443  22.456  0.00  0.00    +0.000 A 
ATOM     36  C   UNL     1      -0.397  11.929  21.663  0.00  0.00    +0.000 A 
ENDBRANCH  25  28
ENDBRANCH  20  22
ENDBRANCH   1  18
BRANCH   1  37
ATOM     37  C   UNL     1       3.898   3.427  19.108  0.00  0.00    +0.000 C 
BRANCH  37  38
ATOM     38  C   UNL     1       2.648   3.139  19.901  0.00  0.00    +0.000 C 
ATOM     39  C   UNL     1       2.728   2.578  21.308  0.00  0.00    +0.000 C 
ATOM     40  C   UNL     1       2.316   4.005  21.092  0.00  0.00    +0.000 C 
ENDBRANCH  37  38
ENDBRANCH   1  37
TORSDOF 7
ENDMDL
