MODEL 1
REMARK VINA RESULT:      -7.8      0.000      0.000
REMARK  Name = 
REMARK  6 active torsions:
REMARK  status: ('A' for Active; 'I' for Inactive)
REMARK    1  A    between atoms: C_1  and  N_2
REMARK    2  A    between atoms: N_2  and  C_3
REMARK    3  A    between atoms: C_9  and  N_10
REMARK    4  A    between atoms: N_10  and  C_11
REMARK    5  A    between atoms: N_17  and  C_18
REMARK    6  A    between atoms: N_17  and  C_19
REMARK                            x       y       z     vdW  Elec       q    Type
REMARK                         _______ _______ _______ _____ _____    ______ ____
ROOT
ATOM      1  N   UNL     1       3.653   4.396  19.449  0.00  0.00    +0.000 N 
ATOM      2  H   UNL     1       3.812   3.475  19.848  0.00  0.00    +0.000 HD
ENDROOT
BRANCH   1   3
ATOM      3  C   UNL     1       4.596   4.664  18.446  0.00  0.00    +0.000 A 
ATOM      4  C   UNL     1       5.625   5.584  18.742  0.00  0.00    +0.000 A 
ATOM      5  C   UNL     1       6.602   5.953  17.799  0.00  0.00    +0.000 A 
ATOM      6  C   UNL     1       6.509   5.402  16.520  0.00  0.00    +0.000 A 
ATOM      7  N   UNL     1       7.294   5.558  15.411  0.00  0.00    +0.000 NA
ATOM      8  C   UNL     1       6.717   4.799  14.499  0.00  0.00    +0.000 A 
ATOM      9  N   UNL     1       7.102   4.598  13.222  0.00  0.00    +0.000 N 
ATOM     10  C   UNL     1       8.312   5.230  12.741  0.00  0.00    +0.000 C 
ATOM     11  C   UNL     1       6.410   3.691  12.331  0.00  0.00    +0.000 C 
ATOM     12  O   UNL     1       5.591   4.153  14.939  0.00  0.00    +0.000 OA
ATOM     13  C   UNL     1       5.469   4.542  16.238  0.00  0.00    +0.000 A 
ATOM     14  C   UNL     1       4.490   4.154  17.145  0.00  0.00    +0.000 A 
ENDBRANCH   1   3
BRANCH   1  23
ATOM     15  C   UNL     1       0.093  10.573  20.838  0.00  0.00    +0.000 C 
ATOM     16  N   UNL     1       0.860   9.337  20.984  0.00  0.00    +0.000 N 
ATOM     17  C   UNL     1       1.426   9.116  22.301  0.00  0.00    +0.000 C 
ATOM     18  C   UNL     1       1.247   8.736  19.797  0.00  0.00    +0.000 C 
ATOM     19  O   UNL     1       0.990   9.296  18.721  0.00  0.00    +0.000 OA
ATOM     20  N   UNL     1       1.914   7.525  19.804  0.00  0.00    +0.000 N 
ATOM     21  C   UNL     1       2.545   7.093  18.550  0.00  0.00    +0.000 C 
ATOM     22  C   UNL     1       2.025   5.730  18.110  0.00  0.00    +0.000 C 
ATOM     23  C   UNL     1       2.225   4.673  19.199  0.00  0.00    +0.000 C 
ATOM     24  C   UNL     1       1.572   5.161  20.492  0.00  0.00    +0.000 C 
ATOM     25  C   UNL     1       2.038   6.561  20.890  0.00  0.00    +0.000 C 
ENDBRANCH   1  23
TORSDOF 2
ENDMDL
MODEL 2
REMARK VINA RESULT:      -7.4      3.867      6.520
REMARK  Name = 
REMARK  6 active torsions:
REMARK  status: ('A' for Active; 'I' for Inactive)
REMARK    1  A    between atoms: C_1  and  N_2
REMARK    2  A    between atoms: N_2  and  C_3
REMARK    3  A    between atoms: C_9  and  N_10
REMARK    4  A    between atoms: N_10  and  C_11
REMARK    5  A    between atoms: N_17  and  C_18
REMARK    6  A    between atoms: N_17  and  C_19
REMARK                            x       y       z     vdW  Elec       q    Type
REMARK                         _______ _______ _______ _____ _____    ______ ____
ROOT
ATOM      1  N   UNL     1       0.765  10.775  18.578  0.00  0.00    +0.000 N 
ATOM      2  H   UNL     1       1.356  11.278  17.923  0.00  0.00    +0.000 HD
ENDROOT
BRANCH   1   3
ATOM      3  C   UNL     1       1.300   9.506  18.846  0.00  0.00    +0.000 A 
ATOM      4  C   UNL     1       1.107   8.973  20.139  0.00  0.00    +0.000 A 
ATOM      5  C   UNL     1       1.631   7.727  20.527  0.00  0.00    +0.000 A 
ATOM      6  C   UNL     1       2.396   7.026  19.594  0.00  0.00    +0.000 A 
ATOM      7  N   UNL     1       3.022   5.812  19.668  0.00  0.00    +0.000 NA
ATOM      8  C   UNL     1       3.593   5.671  18.487  0.00  0.00    +0.000 A 
ATOM      9  N   UNL     1       4.336   4.638  18.043  0.00  0.00    +0.000 N 
ATOM     10  C   UNL     1       4.536   3.489  18.902  0.00  0.00    +0.000 C 
ATOM     11  C   UNL     1       4.865   4.577  16.697  0.00  0.00    +0.000 C 
ATOM     12  O   UNL     1       3.386   6.726  17.636  0.00  0.00    +0.000 OA
ATOM     13  C   UNL     1       2.612   7.586  18.352  0.00  0.00    +0.000 A 
ATOM     14  C   UNL     1       2.107   8.812  17.935  0.00  0.00    +0.000 A 
ENDBRANCH   1   3
BRANCH   1  23
ATOM     15  C   UNL     1       1.338  17.996  19.119  0.00  0.00    +0.000 C 
ATOM     16  N   UNL     1       1.650  16.572  19.007  0.00  0.00    +0.000 N 
ATOM     17  C   UNL     1       3.043  16.266  18.742  0.00  0.00    +0.000 C 
ATOM     18  C   UNL     1       0.560  15.740  18.807  0.00  0.00    +0.000 C 
ATOM     19  O   UNL     1      -0.567  16.238  18.671  0.00  0.00    +0.000 OA
ATOM     20  N   UNL     1       0.720  14.368  18.759  0.00  0.00    +0.000 N 
ATOM     21  C   UNL     1      -0.411  13.573  18.259  0.00  0.00    +0.000 C 
ATOM     22  C   UNL     1      -0.854  12.537  19.285  0.00  0.00    +0.000 C 
ATOM     23  C   UNL     1       0.302  11.621  19.696  0.00  0.00    +0.000 C 
ATOM     24  C   UNL     1       1.464  12.480  20.193  0.00  0.00    +0.000 C 
ATOM     25  C   UNL     1       1.857  13.568  19.194  0.00  0.00    +0.000 C 
ENDBRANCH   1  23
TORSDOF 2
ENDMDL
MODEL 3
REMARK VINA RESULT:      -7.2      2.420      4.618
REMARK  Name = 
REMARK  6 active torsions:
REMARK  status: ('A' for Active; 'I' for Inactive)
REMARK    1  A    between atoms: C_1  and  N_2
REMARK    2  A    between atoms: N_2  and  C_3
REMARK    3  A    between atoms: C_9  and  N_10
REMARK    4  A    between atoms: N_10  and  C_11
REMARK    5  A    between atoms: N_17  and  C_18
REMARK    6  A    between atoms: N_17  and  C_19
REMARK                            x       y       z     vdW  Elec       q    Type
REMARK                         _______ _______ _______ _____ _____    ______ ____
ROOT
ATOM      1  N   UNL     1       0.889   7.637  21.091  0.00  0.00    +0.000 N 
ATOM      2  H   UNL     1      -0.047   7.705  20.704  0.00  0.00    +0.000 HD
ENDROOT
BRANCH   1   3
ATOM      3  C   UNL     1       1.672   6.758  20.329  0.00  0.00    +0.000 A 
ATOM      4  C   UNL     1       1.830   5.439  20.805  0.00  0.00    +0.000 A 
ATOM      5  C   UNL     1       2.622   4.485  20.140  0.00  0.00    +0.000 A 
ATOM      6  C   UNL     1       3.294   4.892  18.986  0.00  0.00    +0.000 A 
ATOM      7  N   UNL     1       4.117   4.210  18.133  0.00  0.00    +0.000 NA
ATOM      8  C   UNL     1       4.458   5.108  17.229  0.00  0.00    +0.000 A 
ATOM      9  N   UNL     1       5.262   4.944  16.158  0.00  0.00    +0.000 N 
ATOM     10  C   UNL     1       5.817   3.635  15.885  0.00  0.00    +0.000 C 
ATOM     11  C   UNL     1       5.516   6.001  15.203  0.00  0.00    +0.000 C 
ATOM     12  O   UNL     1       3.913   6.349  17.438  0.00  0.00    +0.000 OA
ATOM     13  C   UNL     1       3.163   6.198  18.563  0.00  0.00    +0.000 A 
ATOM     14  C   UNL     1       2.388   7.164  19.195  0.00  0.00    +0.000 A 
ENDBRANCH   1   3
BRANCH   1  23
ATOM     15  C   UNL     1      -2.752  13.886  21.763  0.00  0.00    +0.000 C 
ATOM     16  N   UNL     1      -2.148  12.671  21.221  0.00  0.00    +0.000 N 
ATOM     17  C   UNL     1      -2.551  12.332  19.869  0.00  0.00    +0.000 C 
ATOM     18  C   UNL     1      -1.575  11.825  22.157  0.00  0.00    +0.000 C 
ATOM     19  O   UNL     1      -1.665  12.104  23.363  0.00  0.00    +0.000 OA
ATOM     20  N   UNL     1      -0.909  10.681  21.761  0.00  0.00    +0.000 N 
ATOM     21  C   UNL     1      -0.585   9.692  22.799  0.00  0.00    +0.000 C 
ATOM     22  C   UNL     1       0.911   9.411  22.846  0.00  0.00    +0.000 C 
ATOM     23  C   UNL     1       1.441   8.948  21.486  0.00  0.00    +0.000 C 
ATOM     24  C   UNL     1       1.073   9.989  20.429  0.00  0.00    +0.000 C 
ATOM     25  C   UNL     1      -0.418  10.327  20.435  0.00  0.00    +0.000 C 
ENDBRANCH   1  23
TORSDOF 2
ENDMDL
MODEL 4
REMARK VINA RESULT:      -7.1      3.701      5.970
REMARK  Name = 
REMARK  6 active torsions:
REMARK  status: ('A' for Active; 'I' for Inactive)
REMARK    1  A    between atoms: C_1  and  N_2
REMARK    2  A    between atoms: N_2  and  C_3
REMARK    3  A    between atoms: C_9  and  N_10
REMARK    4  A    between atoms: N_10  and  C_11
REMARK    5  A    between atoms: N_17  and  C_18
REMARK    6  A    between atoms: N_17  and  C_19
REMARK                            x       y       z     vdW  Elec       q    Type
REMARK                         _______ _______ _______ _____ _____    ______ ____
ROOT
ATOM      1  N   UNL     1       1.309   9.701  18.836  0.00  0.00    +0.000 N 
ATOM      2  H   UNL     1       1.973  10.467  18.780  0.00  0.00    +0.000 HD
ENDROOT
BRANCH   1   3
ATOM      3  C   UNL     1       1.981   8.469  18.842  0.00  0.00    +0.000 A 
ATOM      4  C   UNL     1       2.911   8.226  17.808  0.00  0.00    +0.000 A 
ATOM      5  C   UNL     1       3.614   7.013  17.696  0.00  0.00    +0.000 A 
ATOM      6  C   UNL     1       3.340   6.015  18.633  0.00  0.00    +0.000 A 
ATOM      7  N   UNL     1       3.853   4.757  18.788  0.00  0.00    +0.000 NA
ATOM      8  C   UNL     1       3.213   4.276  19.837  0.00  0.00    +0.000 A 
ATOM      9  N   UNL     1       3.353   3.063  20.410  0.00  0.00    +0.000 N 
ATOM     10  C   UNL     1       4.340   2.143  19.886  0.00  0.00    +0.000 C 
ATOM     11  C   UNL     1       2.626   2.672  21.599  0.00  0.00    +0.000 C 
ATOM     12  O   UNL     1       2.300   5.142  20.381  0.00  0.00    +0.000 OA
ATOM     13  C   UNL     1       2.394   6.256  19.606  0.00  0.00    +0.000 A 
ATOM     14  C   UNL     1       1.683   7.443  19.748  0.00  0.00    +0.000 A 
ENDBRANCH   1   3
BRANCH   1  23
ATOM     15  C   UNL     1      -0.465  16.061  21.863  0.00  0.00    +0.000 C 
ATOM     16  N   UNL     1       0.261  14.858  21.459  0.00  0.00    +0.000 N 
ATOM     17  C   UNL     1       1.674  14.852  21.786  0.00  0.00    +0.000 C 
ATOM     18  C   UNL     1      -0.383  14.064  20.523  0.00  0.00    +0.000 C 
ATOM     19  O   UNL     1      -1.465  14.441  20.049  0.00  0.00    +0.000 OA
ATOM     20  N   UNL     1       0.170  12.865  20.117  0.00  0.00    +0.000 N 
ATOM     21  C   UNL     1      -0.406  12.223  18.926  0.00  0.00    +0.000 C 
ATOM     22  C   UNL     1      -0.889  10.812  19.237  0.00  0.00    +0.000 C 
ATOM     23  C   UNL     1       0.233   9.948  19.817  0.00  0.00    +0.000 C 
ATOM     24  C   UNL     1       0.820  10.651  21.041  0.00  0.00    +0.000 C 
ATOM     25  C   UNL     1       1.233  12.092  20.746  0.00  0.00    +0.000 C 
ENDBRANCH   1  23
TORSDOF 2
ENDMDL
MODEL 5
REMARK VINA RESULT:      -7.1      4.134      6.483
REMARK  Name = 
REMARK  6 active torsions:
REMARK  status: ('A' for Active; 'I' for Inactive)
REMARK    1  A    between atoms: C_1  and  N_2
REMARK    2  A    between atoms: N_2  and  C_3
REMARK    3  A    between atoms: C_9  and  N_10
REMARK    4  A    between atoms: N_10  and  C_11
REMARK    5  A    between atoms: N_17  and  C_18
REMARK    6  A    between atoms: N_17  and  C_19
REMARK                            x       y       z     vdW  Elec       q    Type
REMARK                         _______ _______ _______ _____ _____    ______ ____
ROOT
ATOM      1  N   UNL     1       0.896   9.882  20.207  0.00  0.00    +0.000 N 
ATOM      2  H   UNL     1       0.129   9.736  20.858  0.00  0.00    +0.000 HD
ENDROOT
BRANCH   1   3
ATOM      3  C   UNL     1       1.482   8.657  19.857  0.00  0.00    +0.000 A 
ATOM      4  C   UNL     1       2.043   8.543  18.567  0.00  0.00    +0.000 A 
ATOM      5  C   UNL     1       2.624   7.351  18.099  0.00  0.00    +0.000 A 
ATOM      6  C   UNL     1       2.602   6.243  18.946  0.00  0.00    +0.000 A 
ATOM      7  N   UNL     1       3.081   4.972  18.784  0.00  0.00    +0.000 NA
ATOM      8  C   UNL     1       2.769   4.364  19.912  0.00  0.00    +0.000 A 
ATOM      9  N   UNL     1       3.021   3.086  20.263  0.00  0.00    +0.000 N 
ATOM     10  C   UNL     1       3.761   2.236  19.354  0.00  0.00    +0.000 C 
ATOM     11  C   UNL     1       2.673   2.549  21.562  0.00  0.00    +0.000 C 
ATOM     12  O   UNL     1       2.104   5.157  20.811  0.00  0.00    +0.000 OA
ATOM     13  C   UNL     1       2.008   6.362  20.185  0.00  0.00    +0.000 A 
ATOM     14  C   UNL     1       1.428   7.524  20.680  0.00  0.00    +0.000 A 
ENDBRANCH   1   3
BRANCH   1  23
ATOM     15  C   UNL     1      -3.193  15.847  20.893  0.00  0.00    +0.000 C 
ATOM     16  N   UNL     1      -2.740  14.457  20.860  0.00  0.00    +0.000 N 
ATOM     17  C   UNL     1      -3.683  13.489  21.389  0.00  0.00    +0.000 C 
ATOM     18  C   UNL     1      -1.377  14.282  20.679  0.00  0.00    +0.000 C 
ATOM     19  O   UNL     1      -0.639  15.277  20.625  0.00  0.00    +0.000 OA
ATOM     20  N   UNL     1      -0.839  13.015  20.558  0.00  0.00    +0.000 N 
ATOM     21  C   UNL     1       0.622  12.888  20.661  0.00  0.00    +0.000 C 
ATOM     22  C   UNL     1       1.208  12.229  19.419  0.00  0.00    +0.000 C 
ATOM     23  C   UNL     1       0.571  10.862  19.152  0.00  0.00    +0.000 C 
ATOM     24  C   UNL     1      -0.946  11.028  19.068  0.00  0.00    +0.000 C 
ATOM     25  C   UNL     1      -1.523  11.758  20.281  0.00  0.00    +0.000 C 
ENDBRANCH   1  23
TORSDOF 2
ENDMDL
MODEL 6
REMARK VINA RESULT:      -7.1      1.520      7.890
REMARK  Name = 
REMARK  6 active torsions:
REMARK  status: ('A' for Active; 'I' for Inactive)
REMARK    1  A    between atoms: C_1  and  N_2
REMARK    2  A    between atoms: N_2  and  C_3
REMARK    3  A    between atoms: C_9  and  N_10
REMARK    4  A    between atoms: N_10  and  C_11
REMARK    5  A    between atoms: N_17  and  C_18
REMARK    6  A    between atoms: N_17  and  C_19
REMARK                            x       y       z     vdW  Elec       q    Type
REMARK                         _______ _______ _______ _____ _____    ______ ____
ROOT
ATOM      1  N   UNL     1       2.566   5.144  18.548  0.00  0.00    +0.000 N 
ATOM      2  H   UNL     1       1.838   4.441  18.636  0.00  0.00    +0.000 HD
ENDROOT
BRANCH   1   3
ATOM      3  C   UNL     1       2.184   6.329  19.194  0.00  0.00    +0.000 A 
ATOM      4  C   UNL     1       1.793   6.240  20.548  0.00  0.00    +0.000 A 
ATOM      5  C   UNL     1       1.357   7.358  21.283  0.00  0.00    +0.000 A 
ATOM      6  C   UNL     1       1.285   8.583  20.618  0.00  0.00    +0.000 A 
ATOM      7  N   UNL     1       0.913   9.825  21.051  0.00  0.00    +0.000 NA
ATOM      8  C   UNL     1       1.038  10.589  19.984  0.00  0.00    +0.000 A 
ATOM      9  N   UNL     1       0.795  11.912  19.877  0.00  0.00    +0.000 N 
ATOM     10  C   UNL     1       0.385  12.653  21.052  0.00  0.00    +0.000 C 
ATOM     11  C   UNL     1       1.025  12.653  18.655  0.00  0.00    +0.000 C 
ATOM     12  O   UNL     1       1.465   9.923  18.865  0.00  0.00    +0.000 OA
ATOM     13  C   UNL     1       1.627   8.638  19.283  0.00  0.00    +0.000 A 
ATOM     14  C   UNL     1       2.064   7.556  18.528  0.00  0.00    +0.000 A 
ENDBRANCH   1   3
BRANCH   1  23
ATOM     15  C   UNL     1       7.990   4.812  13.728  0.00  0.00    +0.000 C 
ATOM     16  N   UNL     1       6.712   4.622  14.410  0.00  0.00    +0.000 N 
ATOM     17  C   UNL     1       5.686   3.961  13.625  0.00  0.00    +0.000 C 
ATOM     18  C   UNL     1       6.525   5.394  15.545  0.00  0.00    +0.000 C 
ATOM     19  O   UNL     1       7.392   6.221  15.867  0.00  0.00    +0.000 OA
ATOM     20  N   UNL     1       5.387   5.251  16.317  0.00  0.00    +0.000 N 
ATOM     21  C   UNL     1       5.118   6.287  17.324  0.00  0.00    +0.000 C 
ATOM     22  C   UNL     1       4.996   5.684  18.718  0.00  0.00    +0.000 C 
ATOM     23  C   UNL     1       3.919   4.597  18.770  0.00  0.00    +0.000 C 
ATOM     24  C   UNL     1       4.220   3.547  17.700  0.00  0.00    +0.000 C 
ATOM     25  C   UNL     1       4.418   4.162  16.316  0.00  0.00    +0.000 C 
ENDBRANCH   1  23
TORSDOF 2
ENDMDL
MODEL 7
REMARK VINA RESULT:      -7.0      3.820      6.288
REMARK  Name = 
REMARK  6 active torsions:
REMARK  status: ('A' for Active; 'I' for Inactive)
REMARK    1  A    between atoms: C_1  and  N_2
REMARK    2  A    between atoms: N_2  and  C_3
REMARK    3  A    between atoms: C_9  and  N_10
REMARK    4  A    between atoms: N_10  and  C_11
REMARK    5  A    between atoms: N_17  and  C_18
REMARK    6  A    between atoms: N_17  and  C_19
REMARK                            x       y       z     vdW  Elec       q    Type
REMARK                         _______ _______ _______ _____ _____    ______ ____
ROOT
ATOM      1  N   UNL     1       1.221   9.925  19.138  0.00  0.00    +0.000 N 
ATOM      2  H   UNL     1       1.713  10.614  18.576  0.00  0.00    +0.000 HD
ENDROOT
BRANCH   1   3
ATOM      3  C   UNL     1       1.852   8.676  19.045  0.00  0.00    +0.000 A 
ATOM      4  C   UNL     1       2.662   8.434  17.914  0.00  0.00    +0.000 A 
ATOM      5  C   UNL     1       3.312   7.205  17.700  0.00  0.00    +0.000 A 
ATOM      6  C   UNL     1       3.107   6.191  18.638  0.00  0.00    +0.000 A 
ATOM      7  N   UNL     1       3.595   4.916  18.710  0.00  0.00    +0.000 NA
ATOM      8  C   UNL     1       3.054   4.426  19.809  0.00  0.00    +0.000 A 
ATOM      9  N   UNL     1       3.217   3.195  20.336  0.00  0.00    +0.000 N 
ATOM     10  C   UNL     1       4.115   2.262  19.690  0.00  0.00    +0.000 C 
ATOM     11  C   UNL     1       2.607   2.794  21.587  0.00  0.00    +0.000 C 
ATOM     12  O   UNL     1       2.230   5.302  20.466  0.00  0.00    +0.000 OA
ATOM     13  C   UNL     1       2.276   6.434  19.711  0.00  0.00    +0.000 A 
ATOM     14  C   UNL     1       1.620   7.635  19.953  0.00  0.00    +0.000 A 
ENDBRANCH   1   3
BRANCH   1  23
ATOM     15  C   UNL     1      -2.153  16.204  20.540  0.00  0.00    +0.000 C 
ATOM     16  N   UNL     1      -1.173  15.208  20.110  0.00  0.00    +0.000 N 
ATOM     17  C   UNL     1      -0.067  15.728  19.329  0.00  0.00    +0.000 C 
ATOM     18  C   UNL     1      -1.597  13.890  20.181  0.00  0.00    +0.000 C 
ATOM     19  O   UNL     1      -2.763  13.645  20.527  0.00  0.00    +0.000 OA
ATOM     20  N   UNL     1      -0.737  12.854  19.870  0.00  0.00    +0.000 N 
ATOM     21  C   UNL     1      -1.323  11.520  19.684  0.00  0.00    +0.000 C 
ATOM     22  C   UNL     1      -0.695  10.503  20.629  0.00  0.00    +0.000 C 
ATOM     23  C   UNL     1       0.826  10.444  20.463  0.00  0.00    +0.000 C 
ATOM     24  C   UNL     1       1.400  11.849  20.645  0.00  0.00    +0.000 C 
ATOM     25  C   UNL     1       0.716  12.882  19.751  0.00  0.00    +0.000 C 
ENDBRANCH   1  23
TORSDOF 2
ENDMDL
MODEL 8
REMARK VINA RESULT:      -7.0      4.005      6.250
REMARK  Name = 
REMARK  6 active torsions:
REMARK  status: ('A' for Active; 'I' for Inactive)
REMARK    1  A    between atoms: C_1  and  N_2
REMARK    2  A    between atoms: N_2  and  C_3
REMARK    3  A    between atoms: C_9  and  N_10
REMARK    4  A    between atoms: N_10  and  C_11
REMARK    5  A    between atoms: N_17  and  C_18
REMARK    6  A    between atoms: N_17  and  C_19
REMARK                            x       y       z     vdW  Elec       q    Type
REMARK                         _______ _______ _______ _____ _____    ______ ____
ROOT
ATOM      1  N   UNL     1       0.971   9.931  19.831  0.00  0.00    +0.000 N 
ATOM      2  H   UNL     1       1.565  10.526  20.402  0.00  0.00    +0.000 HD
ENDROOT
BRANCH   1   3
ATOM      3  C   UNL     1       1.609   8.709  19.572  0.00  0.00    +0.000 A 
ATOM      4  C   UNL     1       2.306   8.579  18.351  0.00  0.00    +0.000 A 
ATOM      5  C   UNL     1       2.951   7.388  17.972  0.00  0.00    +0.000 A 
ATOM      6  C   UNL     1       2.855   6.296  18.836  0.00  0.00    +0.000 A 
ATOM      7  N   UNL     1       3.367   5.031  18.753  0.00  0.00    +0.000 NA
ATOM      8  C   UNL     1       2.946   4.440  19.854  0.00  0.00    +0.000 A 
ATOM      9  N   UNL     1       3.178   3.174  20.257  0.00  0.00    +0.000 N 
ATOM     10  C   UNL     1       4.022   2.318  19.450  0.00  0.00    +0.000 C 
ATOM     11  C   UNL     1       2.701   2.656  21.522  0.00  0.00    +0.000 C 
ATOM     12  O   UNL     1       2.177   5.239  20.660  0.00  0.00    +0.000 OA
ATOM     13  C   UNL     1       2.130   6.429  20.002  0.00  0.00    +0.000 A 
ATOM     14  C   UNL     1       1.484   7.591  20.408  0.00  0.00    +0.000 A 
ENDBRANCH   1   3
BRANCH   1  23
ATOM     15  C   UNL     1      -2.765  15.593  22.428  0.00  0.00    +0.000 C 
ATOM     16  N   UNL     1      -1.778  14.529  22.256  0.00  0.00    +0.000 N 
ATOM     17  C   UNL     1      -0.643  14.589  23.158  0.00  0.00    +0.000 C 
ATOM     18  C   UNL     1      -1.856  13.836  21.058  0.00  0.00    +0.000 C 
ATOM     19  O   UNL     1      -2.684  14.189  20.205  0.00  0.00    +0.000 OA
ATOM     20  N   UNL     1      -1.024  12.760  20.810  0.00  0.00    +0.000 N 
ATOM     21  C   UNL     1      -0.957  12.262  19.429  0.00  0.00    +0.000 C 
ATOM     22  C   UNL     1      -1.325  10.785  19.356  0.00  0.00    +0.000 C 
ATOM     23  C   UNL     1      -0.438   9.938  20.273  0.00  0.00    +0.000 C 
ATOM     24  C   UNL     1      -0.518  10.493  21.694  0.00  0.00    +0.000 C 
ATOM     25  C   UNL     1      -0.224  11.992  21.755  0.00  0.00    +0.000 C 
ENDBRANCH   1  23
TORSDOF 2
ENDMDL
MODEL 9
REMARK VINA RESULT:      -7.0      2.317      9.047
REMARK  Name = 
REMARK  6 active torsions:
REMARK  status: ('A' for Active; 'I' for Inactive)
REMARK    1  A    between atoms: C_1  and  N_2
REMARK    2  A    between atoms: N_2  and  C_3
REMARK    3  A    between atoms: C_9  and  N_10
REMARK    4  A    between atoms: N_10  and  C_11
REMARK    5  A    between atoms: N_17  and  C_18
REMARK    6  A    between atoms: N_17  and  C_19
REMARK                            x       y       z     vdW  Elec       q    Type
REMARK                         _______ _______ _______ _____ _____    ______ ____
ROOT
ATOM      1  N   UNL     1       2.296   7.398  20.464  0.00  0.00    +0.000 N 
ATOM      2  H   UNL     1       3.248   7.695  20.268  0.00  0.00    +0.000 HD
ENDROOT
BRANCH   1   3
ATOM      3  C   UNL     1       1.418   8.489  20.391  0.00  0.00    +0.000 A 
ATOM      4  C   UNL     1       1.414   9.249  19.201  0.00  0.00    +0.000 A 
ATOM      5  C   UNL     1       0.601  10.384  19.033  0.00  0.00    +0.000 A 
ATOM      6  C   UNL     1      -0.198  10.775  20.109  0.00  0.00    +0.000 A 
ATOM      7  N   UNL     1      -1.082  11.809  20.249  0.00  0.00    +0.000 NA
ATOM      8  C   UNL     1      -1.533  11.682  21.481  0.00  0.00    +0.000 A 
ATOM      9  N   UNL     1      -2.436  12.455  22.118  0.00  0.00    +0.000 N 
ATOM     10  C   UNL     1      -3.057  13.552  21.405  0.00  0.00    +0.000 C 
ATOM     11  C   UNL     1      -2.894  12.177  23.463  0.00  0.00    +0.000 C 
ATOM     12  O   UNL     1      -0.994  10.626  22.170  0.00  0.00    +0.000 OA
ATOM     13  C   UNL     1      -0.144  10.046  21.279  0.00  0.00    +0.000 A 
ATOM     14  C   UNL     1       0.645   8.920  21.478  0.00  0.00    +0.000 A 
ENDBRANCH   1   3
BRANCH   1  23
ATOM     15  C   UNL     1       6.171   3.900  15.413  0.00  0.00    +0.000 C 
ATOM     16  N   UNL     1       5.385   4.906  16.126  0.00  0.00    +0.000 N 
ATOM     17  C   UNL     1       5.329   6.208  15.489  0.00  0.00    +0.000 C 
ATOM     18  C   UNL     1       5.110   4.613  17.452  0.00  0.00    +0.000 C 
ATOM     19  O   UNL     1       5.586   3.586  17.958  0.00  0.00    +0.000 OA
ATOM     20  N   UNL     1       4.315   5.452  18.209  0.00  0.00    +0.000 N 
ATOM     21  C   UNL     1       4.303   5.243  19.664  0.00  0.00    +0.000 C 
ATOM     22  C   UNL     1       2.890   4.992  20.175  0.00  0.00    +0.000 C 
ATOM     23  C   UNL     1       1.942   6.132  19.793  0.00  0.00    +0.000 C 
ATOM     24  C   UNL     1       1.992   6.334  18.278  0.00  0.00    +0.000 C 
ATOM     25  C   UNL     1       3.418   6.509  17.758  0.00  0.00    +0.000 C 
ENDBRANCH   1  23
TORSDOF 2
ENDMDL
