MODEL 1
REMARK VINA RESULT:      -7.6      0.000      0.000
REMARK  Name = 
REMARK  8 active torsions:
REMARK  status: ('A' for Active; 'I' for Inactive)
REMARK    1  A    between atoms: C_1  and  C_2
REMARK    2  A    between atoms: C_4  and  C_5
REMARK    3  A    between atoms: C_6  and  C_7
REMARK    4  A    between atoms: C_7  and  C_9
REMARK    5  A    between atoms: C_9  and  S_10
REMARK    6  A    between atoms: S_10  and  C_11
REMARK    7  A    between atoms: C_14  and  C_15
REMARK    8  A    between atoms: C_24  and  C_25
REMARK                            x       y       z     vdW  Elec       q    Type
REMARK                         _______ _______ _______ _____ _____    ______ ____
ROOT
ATOM      1  S   UNL     1       2.509   6.692  19.157  0.00  0.00    +0.000 S 
ENDROOT
BRANCH   1   2
ATOM      2  C   UNL     1       1.697   8.055  19.841  0.00  0.00    +0.000 A 
ATOM      3  N   UNL     1       1.191   8.132  21.053  0.00  0.00    +0.000 NA
ATOM      4  N   UNL     1       0.640   9.398  21.168  0.00  0.00    +0.000 NA
ATOM      5  C   UNL     1       0.845  10.011  20.018  0.00  0.00    +0.000 A 
ATOM      6  O   UNL     1       1.521   9.212  19.130  0.00  0.00    +0.000 OA
BRANCH   5   7
ATOM      7  C   UNL     1       0.505  11.356  19.553  0.00  0.00    +0.000 A 
ATOM      8  C   UNL     1       1.280  12.452  19.992  0.00  0.00    +0.000 A 
ATOM      9  C   UNL     1       0.990  13.764  19.599  0.00  0.00    +0.000 A 
ATOM     10  C   UNL     1      -0.083  14.009  18.750  0.00  0.00    +0.000 A 
ATOM     11  C   UNL     1      -0.858  12.945  18.293  0.00  0.00    +0.000 A 
ATOM     12  C   UNL     1      -0.571  11.628  18.687  0.00  0.00    +0.000 A 
ATOM     13 BR   UNL     1      -1.687  10.278  17.945  0.00  0.00    +0.000 Br
ENDBRANCH   5   7
ENDBRANCH   1   2
BRANCH   1  14
ATOM     14  C   UNL     1       2.179   5.352  20.356  0.00  0.00    +0.000 C 
BRANCH  14  15
ATOM     15  C   UNL     1       3.094   4.159  20.060  0.00  0.00    +0.000 C 
ATOM     16  O   UNL     1       3.017   3.115  20.710  0.00  0.00    +0.000 OA
BRANCH  15  22
ATOM     17  C   UNL     1       7.061   4.527  15.755  0.00  0.00    +0.000 C 
ATOM     18  C   UNL     1       6.066   4.443  16.883  0.00  0.00    +0.000 A 
ATOM     19  C   UNL     1       4.796   3.915  16.629  0.00  0.00    +0.000 A 
ATOM     20  C   UNL     1       3.817   3.809  17.636  0.00  0.00    +0.000 A 
ATOM     21  C   UNL     1       2.489   3.218  17.236  0.00  0.00    +0.000 C 
ATOM     22  C   UNL     1       4.118   4.250  18.948  0.00  0.00    +0.000 A 
ATOM     23  C   UNL     1       5.399   4.780  19.198  0.00  0.00    +0.000 A 
ATOM     24  C   UNL     1       6.374   4.878  18.182  0.00  0.00    +0.000 A 
ATOM     25  C   UNL     1       7.732   5.448  18.498  0.00  0.00    +0.000 C 
ENDBRANCH  15  22
ENDBRANCH  14  15
ENDBRANCH   1  14
TORSDOF 5
ENDMDL
MODEL 2
REMARK VINA RESULT:      -7.6      6.077      9.143
REMARK  Name = 
REMARK  8 active torsions:
REMARK  status: ('A' for Active; 'I' for Inactive)
REMARK    1  A    between atoms: C_1  and  C_2
REMARK    2  A    between atoms: C_4  and  C_5
REMARK    3  A    between atoms: C_6  and  C_7
REMARK    4  A    between atoms: C_7  and  C_9
REMARK    5  A    between atoms: C_9  and  S_10
REMARK    6  A    between atoms: S_10  and  C_11
REMARK    7  A    between atoms: C_14  and  C_15
REMARK    8  A    between atoms: C_24  and  C_25
REMARK                            x       y       z     vdW  Elec       q    Type
REMARK                         _______ _______ _______ _____ _____    ______ ____
ROOT
ATOM      1  S   UNL     1       8.475   7.893  18.690  0.00  0.00    +0.000 S 
ENDROOT
BRANCH   1   2
ATOM      2  C   UNL     1       7.363   7.005  17.710  0.00  0.00    +0.000 A 
ATOM      3  N   UNL     1       7.465   6.791  16.416  0.00  0.00    +0.000 NA
ATOM      4  N   UNL     1       6.359   6.038  16.054  0.00  0.00    +0.000 NA
ATOM      5  C   UNL     1       5.653   5.843  17.152  0.00  0.00    +0.000 A 
ATOM      6  O   UNL     1       6.242   6.428  18.245  0.00  0.00    +0.000 OA
BRANCH   5   7
ATOM      7  C   UNL     1       4.405   5.119  17.396  0.00  0.00    +0.000 A 
ATOM      8  C   UNL     1       4.400   3.709  17.306  0.00  0.00    +0.000 A 
ATOM      9  C   UNL     1       3.233   2.962  17.508  0.00  0.00    +0.000 A 
ATOM     10  C   UNL     1       2.042   3.612  17.809  0.00  0.00    +0.000 A 
ATOM     11  C   UNL     1       2.021   5.001  17.914  0.00  0.00    +0.000 A 
ATOM     12  C   UNL     1       3.189   5.753  17.711  0.00  0.00    +0.000 A 
ATOM     13 BR   UNL     1       3.014   7.634  17.934  0.00  0.00    +0.000 Br
ENDBRANCH   5   7
ENDBRANCH   1   2
BRANCH   1  14
ATOM     14  C   UNL     1       8.393   9.584  18.001  0.00  0.00    +0.000 C 
BRANCH  14  15
ATOM     15  C   UNL     1       9.051  10.569  18.975  0.00  0.00    +0.000 C 
ATOM     16  O   UNL     1       9.298  10.250  20.139  0.00  0.00    +0.000 OA
BRANCH  15  22
ATOM     17  C   UNL     1      10.439  15.971  17.162  0.00  0.00    +0.000 C 
ATOM     18  C   UNL     1      10.051  14.594  17.633  0.00  0.00    +0.000 A 
ATOM     19  C   UNL     1      11.041  13.615  17.756  0.00  0.00    +0.000 A 
ATOM     20  C   UNL     1      10.747  12.307  18.188  0.00  0.00    +0.000 A 
ATOM     21  C   UNL     1      11.905  11.345  18.283  0.00  0.00    +0.000 C 
ATOM     22  C   UNL     1       9.411  11.964  18.510  0.00  0.00    +0.000 A 
ATOM     23  C   UNL     1       8.418  12.955  18.386  0.00  0.00    +0.000 A 
ATOM     24  C   UNL     1       8.724  14.264  17.954  0.00  0.00    +0.000 A 
ATOM     25  C   UNL     1       7.629  15.291  17.840  0.00  0.00    +0.000 C 
ENDBRANCH  15  22
ENDBRANCH  14  15
ENDBRANCH   1  14
TORSDOF 5
ENDMDL
MODEL 3
REMARK VINA RESULT:      -7.6      2.463      3.031
REMARK  Name = 
REMARK  8 active torsions:
REMARK  status: ('A' for Active; 'I' for Inactive)
REMARK    1  A    between atoms: C_1  and  C_2
REMARK    2  A    between atoms: C_4  and  C_5
REMARK    3  A    between atoms: C_6  and  C_7
REMARK    4  A    between atoms: C_7  and  C_9
REMARK    5  A    between atoms: C_9  and  S_10
REMARK    6  A    between atoms: S_10  and  C_11
REMARK    7  A    between atoms: C_14  and  C_15
REMARK    8  A    between atoms: C_24  and  C_25
REMARK                            x       y       z     vdW  Elec       q    Type
REMARK                         _______ _______ _______ _____ _____    ______ ____
ROOT
ATOM      1  S   UNL     1       1.237   8.745  20.359  0.00  0.00    +0.000 S 
ENDROOT
BRANCH   1   2
ATOM      2  C   UNL     1       0.368  10.076  19.683  0.00  0.00    +0.000 A 
ATOM      3  N   UNL     1       0.890  11.179  19.192  0.00  0.00    +0.000 NA
ATOM      4  N   UNL     1      -0.171  11.960  18.765  0.00  0.00    +0.000 NA
ATOM      5  C   UNL     1      -1.274  11.284  19.026  0.00  0.00    +0.000 A 
ATOM      6  O   UNL     1      -1.000  10.071  19.606  0.00  0.00    +0.000 OA
BRANCH   5   7
ATOM      7  C   UNL     1      -2.686  11.589  18.793  0.00  0.00    +0.000 A 
ATOM      8  C   UNL     1      -3.396  12.338  19.757  0.00  0.00    +0.000 A 
ATOM      9  C   UNL     1      -4.753  12.644  19.600  0.00  0.00    +0.000 A 
ATOM     10  C   UNL     1      -5.432  12.209  18.467  0.00  0.00    +0.000 A 
ATOM     11  C   UNL     1      -4.753  11.477  17.495  0.00  0.00    +0.000 A 
ATOM     12  C   UNL     1      -3.392  11.168  17.651  0.00  0.00    +0.000 A 
ATOM     13 BR   UNL     1      -2.592  10.204  16.219  0.00  0.00    +0.000 Br
ENDBRANCH   5   7
ENDBRANCH   1   2
BRANCH   1  14
ATOM     14  C   UNL     1       2.130   8.046  18.926  0.00  0.00    +0.000 C 
BRANCH  14  15
ATOM     15  C   UNL     1       2.609   6.629  19.259  0.00  0.00    +0.000 C 
ATOM     16  O   UNL     1       2.297   6.079  20.317  0.00  0.00    +0.000 OA
BRANCH  15  22
ATOM     17  C   UNL     1       5.998   3.729  15.451  0.00  0.00    +0.000 C 
ATOM     18  C   UNL     1       5.155   4.493  16.437  0.00  0.00    +0.000 A 
ATOM     19  C   UNL     1       3.846   4.068  16.683  0.00  0.00    +0.000 A 
ATOM     20  C   UNL     1       3.002   4.738  17.591  0.00  0.00    +0.000 A 
ATOM     21  C   UNL     1       1.614   4.177  17.770  0.00  0.00    +0.000 C 
ATOM     22  C   UNL     1       3.485   5.878  18.279  0.00  0.00    +0.000 A 
ATOM     23  C   UNL     1       4.804   6.301  18.028  0.00  0.00    +0.000 A 
ATOM     24  C   UNL     1       5.643   5.620  17.118  0.00  0.00    +0.000 A 
ATOM     25  C   UNL     1       7.049   6.108  16.886  0.00  0.00    +0.000 C 
ENDBRANCH  15  22
ENDBRANCH  14  15
ENDBRANCH   1  14
TORSDOF 5
ENDMDL
MODEL 4
REMARK VINA RESULT:      -7.6      4.406      6.036
REMARK  Name = 
REMARK  8 active torsions:
REMARK  status: ('A' for Active; 'I' for Inactive)
REMARK    1  A    between atoms: C_1  and  C_2
REMARK    2  A    between atoms: C_4  and  C_5
REMARK    3  A    between atoms: C_6  and  C_7
REMARK    4  A    between atoms: C_7  and  C_9
REMARK    5  A    between atoms: C_9  and  S_10
REMARK    6  A    between atoms: S_10  and  C_11
REMARK    7  A    between atoms: C_14  and  C_15
REMARK    8  A    between atoms: C_24  and  C_25
REMARK                            x       y       z     vdW  Elec       q    Type
REMARK                         _______ _______ _______ _____ _____    ______ ____
ROOT
ATOM      1  S   UNL     1       5.737   7.302  16.893  0.00  0.00    +0.000 S 
ENDROOT
BRANCH   1   2
ATOM      2  C   UNL     1       4.301   7.003  17.804  0.00  0.00    +0.000 A 
ATOM      3  N   UNL     1       3.318   7.853  18.010  0.00  0.00    +0.000 NA
ATOM      4  N   UNL     1       2.383   7.191  18.789  0.00  0.00    +0.000 NA
ATOM      5  C   UNL     1       2.857   5.979  19.010  0.00  0.00    +0.000 A 
ATOM      6  O   UNL     1       4.074   5.792  18.404  0.00  0.00    +0.000 OA
BRANCH   5   7
ATOM      7  C   UNL     1       2.316   4.837  19.748  0.00  0.00    +0.000 A 
ATOM      8  C   UNL     1       2.542   4.749  21.140  0.00  0.00    +0.000 A 
ATOM      9  C   UNL     1       2.067   3.671  21.896  0.00  0.00    +0.000 A 
ATOM     10  C   UNL     1       1.350   2.655  21.275  0.00  0.00    +0.000 A 
ATOM     11  C   UNL     1       1.104   2.722  19.905  0.00  0.00    +0.000 A 
ATOM     12  C   UNL     1       1.580   3.801  19.144  0.00  0.00    +0.000 A 
ATOM     13 BR   UNL     1       1.126   3.777  17.296  0.00  0.00    +0.000 Br
ENDBRANCH   5   7
ENDBRANCH   1   2
BRANCH   1  14
ATOM     14  C   UNL     1       7.053   6.539  17.906  0.00  0.00    +0.000 C 
BRANCH  14  15
ATOM     15  C   UNL     1       7.330   5.117  17.405  0.00  0.00    +0.000 C 
ATOM     16  O   UNL     1       7.955   4.307  18.090  0.00  0.00    +0.000 OA
BRANCH  15  22
ATOM     17  C   UNL     1       5.394   3.461  12.122  0.00  0.00    +0.000 C 
ATOM     18  C   UNL     1       5.918   3.900  13.464  0.00  0.00    +0.000 A 
ATOM     19  C   UNL     1       5.256   3.481  14.622  0.00  0.00    +0.000 A 
ATOM     20  C   UNL     1       5.691   3.857  15.907  0.00  0.00    +0.000 A 
ATOM     21  C   UNL     1       4.893   3.335  17.076  0.00  0.00    +0.000 C 
ATOM     22  C   UNL     1       6.831   4.686  16.042  0.00  0.00    +0.000 A 
ATOM     23  C   UNL     1       7.495   5.105  14.872  0.00  0.00    +0.000 A 
ATOM     24  C   UNL     1       7.052   4.719  13.588  0.00  0.00    +0.000 A 
ATOM     25  C   UNL     1       7.797   5.189  12.366  0.00  0.00    +0.000 C 
ENDBRANCH  15  22
ENDBRANCH  14  15
ENDBRANCH   1  14
TORSDOF 5
ENDMDL
MODEL 5
REMARK VINA RESULT:      -7.5      2.148      2.996
REMARK  Name = 
REMARK  8 active torsions:
REMARK  status: ('A' for Active; 'I' for Inactive)
REMARK    1  A    between atoms: C_1  and  C_2
REMARK    2  A    between atoms: C_4  and  C_5
REMARK    3  A    between atoms: C_6  and  C_7
REMARK    4  A    between atoms: C_7  and  C_9
REMARK    5  A    between atoms: C_9  and  S_10
REMARK    6  A    between atoms: S_10  and  C_11
REMARK    7  A    between atoms: C_14  and  C_15
REMARK    8  A    between atoms: C_24  and  C_25
REMARK                            x       y       z     vdW  Elec       q    Type
REMARK                         _______ _______ _______ _____ _____    ______ ____
ROOT
ATOM      1  S   UNL     1       1.483   4.191  20.599  0.00  0.00    +0.000 S 
ENDROOT
BRANCH   1   2
ATOM      2  C   UNL     1       1.622   5.908  20.475  0.00  0.00    +0.000 A 
ATOM      3  N   UNL     1       2.518   6.568  19.774  0.00  0.00    +0.000 NA
ATOM      4  N   UNL     1       2.255   7.915  19.968  0.00  0.00    +0.000 NA
ATOM      5  C   UNL     1       1.215   7.989  20.777  0.00  0.00    +0.000 A 
ATOM      6  O   UNL     1       0.759   6.745  21.133  0.00  0.00    +0.000 OA
BRANCH   5   7
ATOM      7  C   UNL     1       0.481   9.131  21.323  0.00  0.00    +0.000 A 
ATOM      8  C   UNL     1       0.034   9.083  22.662  0.00  0.00    +0.000 A 
ATOM      9  C   UNL     1      -0.691  10.136  23.234  0.00  0.00    +0.000 A 
ATOM     10  C   UNL     1      -0.982  11.265  22.478  0.00  0.00    +0.000 A 
ATOM     11  C   UNL     1      -0.543  11.343  21.158  0.00  0.00    +0.000 A 
ATOM     12  C   UNL     1       0.182  10.288  20.581  0.00  0.00    +0.000 A 
ATOM     13 BR   UNL     1       0.752  10.558  18.786  0.00  0.00    +0.000 Br
ENDBRANCH   5   7
ENDBRANCH   1   2
BRANCH   1  14
ATOM     14  C   UNL     1       1.091   3.670  18.892  0.00  0.00    +0.000 C 
BRANCH  14  15
ATOM     15  C   UNL     1       2.324   3.022  18.255  0.00  0.00    +0.000 C 
ATOM     16  O   UNL     1       2.292   1.868  17.824  0.00  0.00    +0.000 OA
BRANCH  15  22
ATOM     17  C   UNL     1       7.335   6.040  17.821  0.00  0.00    +0.000 C 
ATOM     18  C   UNL     1       6.035   5.285  17.908  0.00  0.00    +0.000 A 
ATOM     19  C   UNL     1       5.883   4.307  18.897  0.00  0.00    +0.000 A 
ATOM     20  C   UNL     1       4.695   3.562  19.033  0.00  0.00    +0.000 A 
ATOM     21  C   UNL     1       4.655   2.541  20.141  0.00  0.00    +0.000 C 
ATOM     22  C   UNL     1       3.617   3.803  18.146  0.00  0.00    +0.000 A 
ATOM     23  C   UNL     1       3.775   4.789  17.153  0.00  0.00    +0.000 A 
ATOM     24  C   UNL     1       4.969   5.532  17.028  0.00  0.00    +0.000 A 
ATOM     25  C   UNL     1       5.091   6.580  15.952  0.00  0.00    +0.000 C 
ENDBRANCH  15  22
ENDBRANCH  14  15
ENDBRANCH   1  14
TORSDOF 5
ENDMDL
MODEL 6
REMARK VINA RESULT:      -7.5      2.323      2.999
REMARK  Name = 
REMARK  8 active torsions:
REMARK  status: ('A' for Active; 'I' for Inactive)
REMARK    1  A    between atoms: C_1  and  C_2
REMARK    2  A    between atoms: C_4  and  C_5
REMARK    3  A    between atoms: C_6  and  C_7
REMARK    4  A    between atoms: C_7  and  C_9
REMARK    5  A    between atoms: C_9  and  S_10
REMARK    6  A    between atoms: S_10  and  C_11
REMARK    7  A    between atoms: C_14  and  C_15
REMARK    8  A    between atoms: C_24  and  C_25
REMARK                            x       y       z     vdW  Elec       q    Type
REMARK                         _______ _______ _______ _____ _____    ______ ____
ROOT
ATOM      1  S   UNL     1       1.476   8.539  20.796  0.00  0.00    +0.000 S 
ENDROOT
BRANCH   1   2
ATOM      2  C   UNL     1       0.286   9.694  20.313  0.00  0.00    +0.000 A 
ATOM      3  N   UNL     1       0.000  10.822  20.926  0.00  0.00    +0.000 NA
ATOM      4  N   UNL     1      -1.010  11.424  20.193  0.00  0.00    +0.000 NA
ATOM      5  C   UNL     1      -1.277  10.622  19.180  0.00  0.00    +0.000 A 
ATOM      6  O   UNL     1      -0.481   9.504  19.193  0.00  0.00    +0.000 OA
BRANCH   5   7
ATOM      7  C   UNL     1      -2.229  10.729  18.073  0.00  0.00    +0.000 A 
ATOM      8  C   UNL     1      -1.958  10.048  16.866  0.00  0.00    +0.000 A 
ATOM      9  C   UNL     1      -2.821  10.129  15.766  0.00  0.00    +0.000 A 
ATOM     10  C   UNL     1      -3.979  10.892  15.851  0.00  0.00    +0.000 A 
ATOM     11  C   UNL     1      -4.276  11.566  17.034  0.00  0.00    +0.000 A 
ATOM     12  C   UNL     1      -3.412  11.488  18.139  0.00  0.00    +0.000 A 
ATOM     13 BR   UNL     1      -3.973  12.423  19.698  0.00  0.00    +0.000 Br
ENDBRANCH   5   7
ENDBRANCH   1   2
BRANCH   1  14
ATOM     14  C   UNL     1       2.012   7.791  19.217  0.00  0.00    +0.000 C 
BRANCH  14  15
ATOM     15  C   UNL     1       2.546   6.378  19.472  0.00  0.00    +0.000 C 
ATOM     16  O   UNL     1       2.262   5.761  20.500  0.00  0.00    +0.000 OA
BRANCH  15  22
ATOM     17  C   UNL     1       6.020   3.815  15.502  0.00  0.00    +0.000 C 
ATOM     18  C   UNL     1       5.154   4.493  16.530  0.00  0.00    +0.000 A 
ATOM     19  C   UNL     1       3.866   4.000  16.765  0.00  0.00    +0.000 A 
ATOM     20  C   UNL     1       3.003   4.588  17.710  0.00  0.00    +0.000 A 
ATOM     21  C   UNL     1       1.643   3.959  17.873  0.00  0.00    +0.000 C 
ATOM     22  C   UNL     1       3.443   5.713  18.449  0.00  0.00    +0.000 A 
ATOM     23  C   UNL     1       4.741   6.205  18.209  0.00  0.00    +0.000 A 
ATOM     24  C   UNL     1       5.599   5.606  17.261  0.00  0.00    +0.000 A 
ATOM     25  C   UNL     1       6.980   6.165  17.043  0.00  0.00    +0.000 C 
ENDBRANCH  15  22
ENDBRANCH  14  15
ENDBRANCH   1  14
TORSDOF 5
ENDMDL
MODEL 7
REMARK VINA RESULT:      -7.5      6.098      7.432
REMARK  Name = 
REMARK  8 active torsions:
REMARK  status: ('A' for Active; 'I' for Inactive)
REMARK    1  A    between atoms: C_1  and  C_2
REMARK    2  A    between atoms: C_4  and  C_5
REMARK    3  A    between atoms: C_6  and  C_7
REMARK    4  A    between atoms: C_7  and  C_9
REMARK    5  A    between atoms: C_9  and  S_10
REMARK    6  A    between atoms: S_10  and  C_11
REMARK    7  A    between atoms: C_14  and  C_15
REMARK    8  A    between atoms: C_24  and  C_25
REMARK                            x       y       z     vdW  Elec       q    Type
REMARK                         _______ _______ _______ _____ _____    ______ ____
ROOT
ATOM      1  S   UNL     1       7.647   8.062  17.434  0.00  0.00    +0.000 S 
ENDROOT
BRANCH   1   2
ATOM      2  C   UNL     1       8.524   9.303  18.257  0.00  0.00    +0.000 A 
ATOM      3  N   UNL     1       8.932   9.269  19.507  0.00  0.00    +0.000 NA
ATOM      4  N   UNL     1       9.587  10.468  19.738  0.00  0.00    +0.000 NA
ATOM      5  C   UNL     1       9.535  11.156  18.613  0.00  0.00    +0.000 A 
ATOM      6  O   UNL     1       8.876  10.467  17.627  0.00  0.00    +0.000 OA
BRANCH   5   7
ATOM      7  C   UNL     1      10.058  12.474  18.248  0.00  0.00    +0.000 A 
ATOM      8  C   UNL     1      10.972  12.577  17.177  0.00  0.00    +0.000 A 
ATOM      9  C   UNL     1      11.523  13.806  16.795  0.00  0.00    +0.000 A 
ATOM     10  C   UNL     1      11.166  14.964  17.475  0.00  0.00    +0.000 A 
ATOM     11  C   UNL     1      10.258  14.892  18.529  0.00  0.00    +0.000 A 
ATOM     12  C   UNL     1       9.705  13.660  18.917  0.00  0.00    +0.000 A 
ATOM     13 BR   UNL     1       8.445  13.728  20.341  0.00  0.00    +0.000 Br
ENDBRANCH   5   7
ENDBRANCH   1   2
BRANCH   1  14
ATOM     14  C   UNL     1       7.782   6.627  18.557  0.00  0.00    +0.000 C 
BRANCH  14  15
ATOM     15  C   UNL     1       7.225   5.378  17.865  0.00  0.00    +0.000 C 
ATOM     16  O   UNL     1       7.940   4.662  17.162  0.00  0.00    +0.000 OA
BRANCH  15  22
ATOM     17  C   UNL     1       1.585   3.917  18.538  0.00  0.00    +0.000 C 
ATOM     18  C   UNL     1       3.040   4.277  18.395  0.00  0.00    +0.000 A 
ATOM     19  C   UNL     1       3.432   5.112  17.344  0.00  0.00    +0.000 A 
ATOM     20  C   UNL     1       4.777   5.485  17.150  0.00  0.00    +0.000 A 
ATOM     21  C   UNL     1       5.069   6.393  15.982  0.00  0.00    +0.000 C 
ATOM     22  C   UNL     1       5.768   5.004  18.040  0.00  0.00    +0.000 A 
ATOM     23  C   UNL     1       5.367   4.165  19.097  0.00  0.00    +0.000 A 
ATOM     24  C   UNL     1       4.016   3.799  19.284  0.00  0.00    +0.000 A 
ATOM     25  C   UNL     1       3.635   2.902  20.432  0.00  0.00    +0.000 C 
ENDBRANCH  15  22
ENDBRANCH  14  15
ENDBRANCH   1  14
TORSDOF 5
ENDMDL
MODEL 8
REMARK VINA RESULT:      -7.5      2.968      9.306
REMARK  Name = 
REMARK  8 active torsions:
REMARK  status: ('A' for Active; 'I' for Inactive)
REMARK    1  A    between atoms: C_1  and  C_2
REMARK    2  A    between atoms: C_4  and  C_5
REMARK    3  A    between atoms: C_6  and  C_7
REMARK    4  A    between atoms: C_7  and  C_9
REMARK    5  A    between atoms: C_9  and  S_10
REMARK    6  A    between atoms: S_10  and  C_11
REMARK    7  A    between atoms: C_14  and  C_15
REMARK    8  A    between atoms: C_24  and  C_25
REMARK                            x       y       z     vdW  Elec       q    Type
REMARK                         _______ _______ _______ _____ _____    ______ ____
ROOT
ATOM      1  S   UNL     1       1.624   9.799  18.160  0.00  0.00    +0.000 S 
ENDROOT
BRANCH   1   2
ATOM      2  C   UNL     1       1.891   8.253  18.885  0.00  0.00    +0.000 A 
ATOM      3  N   UNL     1       1.877   7.984  20.172  0.00  0.00    +0.000 NA
ATOM      4  N   UNL     1       2.138   6.629  20.293  0.00  0.00    +0.000 NA
ATOM      5  C   UNL     1       2.296   6.159  19.070  0.00  0.00    +0.000 A 
ATOM      6  O   UNL     1       2.145   7.142  18.125  0.00  0.00    +0.000 OA
BRANCH   5   7
ATOM      7  C   UNL     1       2.576   4.813  18.569  0.00  0.00    +0.000 A 
ATOM      8  C   UNL     1       1.571   3.824  18.657  0.00  0.00    +0.000 A 
ATOM      9  C   UNL     1       1.787   2.513  18.214  0.00  0.00    +0.000 A 
ATOM     10  C   UNL     1       3.016   2.163  17.668  0.00  0.00    +0.000 A 
ATOM     11  C   UNL     1       4.022   3.121  17.560  0.00  0.00    +0.000 A 
ATOM     12  C   UNL     1       3.809   4.436  18.005  0.00  0.00    +0.000 A 
ATOM     13 BR   UNL     1       5.258   5.643  17.750  0.00  0.00    +0.000 Br
ENDBRANCH   5   7
ENDBRANCH   1   2
BRANCH   1  14
ATOM     14  C   UNL     1       0.758  10.739  19.466  0.00  0.00    +0.000 C 
BRANCH  14  15
ATOM     15  C   UNL     1       0.004  11.917  18.838  0.00  0.00    +0.000 C 
ATOM     16  O   UNL     1       0.573  12.980  18.586  0.00  0.00    +0.000 OA
BRANCH  15  22
ATOM     17  C   UNL     1      -5.703  11.419  17.581  0.00  0.00    +0.000 C 
ATOM     18  C   UNL     1      -4.230  11.531  17.875  0.00  0.00    +0.000 A 
ATOM     19  C   UNL     1      -3.822  12.023  19.118  0.00  0.00    +0.000 A 
ATOM     20  C   UNL     1      -2.461  12.157  19.457  0.00  0.00    +0.000 A 
ATOM     21  C   UNL     1      -2.152  12.696  20.830  0.00  0.00    +0.000 C 
ATOM     22  C   UNL     1      -1.470  11.785  18.516  0.00  0.00    +0.000 A 
ATOM     23  C   UNL     1      -1.887  11.289  17.266  0.00  0.00    +0.000 A 
ATOM     24  C   UNL     1      -3.254  11.156  16.938  0.00  0.00    +0.000 A 
ATOM     25  C   UNL     1      -3.652  10.617  15.589  0.00  0.00    +0.000 C 
ENDBRANCH  15  22
ENDBRANCH  14  15
ENDBRANCH   1  14
TORSDOF 5
ENDMDL
MODEL 9
REMARK VINA RESULT:      -7.4      2.061      3.185
REMARK  Name = 
REMARK  8 active torsions:
REMARK  status: ('A' for Active; 'I' for Inactive)
REMARK    1  A    between atoms: C_1  and  C_2
REMARK    2  A    between atoms: C_4  and  C_5
REMARK    3  A    between atoms: C_6  and  C_7
REMARK    4  A    between atoms: C_7  and  C_9
REMARK    5  A    between atoms: C_9  and  S_10
REMARK    6  A    between atoms: S_10  and  C_11
REMARK    7  A    between atoms: C_14  and  C_15
REMARK    8  A    between atoms: C_24  and  C_25
REMARK                            x       y       z     vdW  Elec       q    Type
REMARK                         _______ _______ _______ _____ _____    ______ ____
ROOT
ATOM      1  S   UNL     1       2.413   4.439  20.449  0.00  0.00    +0.000 S 
ENDROOT
BRANCH   1   2
ATOM      2  C   UNL     1       2.108   6.119  20.187  0.00  0.00    +0.000 A 
ATOM      3  N   UNL     1       2.594   6.856  19.212  0.00  0.00    +0.000 NA
ATOM      4  N   UNL     1       2.088   8.132  19.395  0.00  0.00    +0.000 NA
ATOM      5  C   UNL     1       1.326   8.092  20.472  0.00  0.00    +0.000 A 
ATOM      6  O   UNL     1       1.290   6.835  21.021  0.00  0.00    +0.000 OA
BRANCH   5   7
ATOM      7  C   UNL     1       0.527   9.118  21.143  0.00  0.00    +0.000 A 
ATOM      8  C   UNL     1       0.461   9.124  22.554  0.00  0.00    +0.000 A 
ATOM      9  C   UNL     1      -0.303  10.067  23.251  0.00  0.00    +0.000 A 
ATOM     10  C   UNL     1      -1.018  11.031  22.550  0.00  0.00    +0.000 A 
ATOM     11  C   UNL     1      -0.963  11.054  21.158  0.00  0.00    +0.000 A 
ATOM     12  C   UNL     1      -0.198  10.108  20.455  0.00  0.00    +0.000 A 
ATOM     13 BR   UNL     1      -0.183  10.296  18.562  0.00  0.00    +0.000 Br
ENDBRANCH   5   7
ENDBRANCH   1   2
BRANCH   1  14
ATOM     14  C   UNL     1       2.914   3.833  18.799  0.00  0.00    +0.000 C 
BRANCH  14  15
ATOM     15  C   UNL     1       4.428   3.593  18.777  0.00  0.00    +0.000 C 
ATOM     16  O   UNL     1       4.995   2.995  19.693  0.00  0.00    +0.000 OA
BRANCH  15  22
ATOM     17  C   UNL     1       7.639   5.523  14.265  0.00  0.00    +0.000 C 
ATOM     18  C   UNL     1       6.793   5.013  15.401  0.00  0.00    +0.000 A 
ATOM     19  C   UNL     1       7.100   5.409  16.707  0.00  0.00    +0.000 A 
ATOM     20  C   UNL     1       6.352   4.967  17.816  0.00  0.00    +0.000 A 
ATOM     21  C   UNL     1       6.782   5.470  19.171  0.00  0.00    +0.000 C 
ATOM     22  C   UNL     1       5.255   4.094  17.612  0.00  0.00    +0.000 A 
ATOM     23  C   UNL     1       4.950   3.699  16.296  0.00  0.00    +0.000 A 
ATOM     24  C   UNL     1       5.705   4.151  15.191  0.00  0.00    +0.000 A 
ATOM     25  C   UNL     1       5.338   3.704  13.800  0.00  0.00    +0.000 C 
ENDBRANCH  15  22
ENDBRANCH  14  15
ENDBRANCH   1  14
TORSDOF 5
ENDMDL
