MODEL 1
REMARK VINA RESULT:      -7.2      0.000      0.000
REMARK  Name = 
REMARK  14 active torsions:
REMARK  status: ('A' for Active; 'I' for Inactive)
REMARK    1  A    between atoms: C_1  and  C_2
REMARK    2  A    between atoms: C_2  and  O_3
REMARK    3  A    between atoms: O_3  and  C_4
REMARK    4  A    between atoms: C_4  and  C_6
REMARK    5  A    between atoms: C_6  and  C_7
REMARK    6  A    between atoms: C_7  and  C_8
REMARK    7  A    between atoms: C_8  and  O_9
REMARK    8  A    between atoms: O_9  and  C_10
REMARK    9  A    between atoms: C_13  and  C_14
REMARK   10  A    between atoms: C_14  and  C_16
REMARK   11  A    between atoms: C_17  and  C_18
REMARK   12  A    between atoms: C_22  and  O_23
REMARK   13  A    between atoms: C_25  and  O_26
REMARK   14  A    between atoms: O_26  and  C_27
REMARK                            x       y       z     vdW  Elec       q    Type
REMARK                         _______ _______ _______ _____ _____    ______ ____
ROOT
ATOM      1  C   UNL     1       3.319   7.105  18.344  0.00  0.00    +0.000 A 
ATOM      2  C   UNL     1       2.624   7.002  19.552  0.00  0.00    +0.000 A 
ATOM      3  C   UNL     1       1.674   7.956  19.901  0.00  0.00    +0.000 A 
ATOM      4  C   UNL     1       1.389   9.022  19.046  0.00  0.00    +0.000 A 
ATOM      5  C   UNL     1       2.064   9.127  17.824  0.00  0.00    +0.000 A 
ATOM      6  C   UNL     1       3.032   8.168  17.480  0.00  0.00    +0.000 A 
ENDROOT
BRANCH   4   7
ATOM      7  C   UNL     1       0.395  10.009  19.526  0.00  0.00    +0.000 C 
ATOM      8  O   UNL     1       0.653  10.692  20.514  0.00  0.00    +0.000 OA
BRANCH   7   9
ATOM      9  C   UNL     1      -0.934  10.049  18.869  0.00  0.00    +0.000 C 
ATOM     10  C   UNL     1      -1.430  11.256  18.550  0.00  0.00    +0.000 C 
BRANCH  10  11
ATOM     11  C   UNL     1      -2.825  11.434  18.142  0.00  0.00    +0.000 A 
ATOM     12  C   UNL     1      -3.731  11.891  19.112  0.00  0.00    +0.000 A 
ATOM     13  C   UNL     1      -5.059  12.154  18.771  0.00  0.00    +0.000 A 
ATOM     14 BR   UNL     1      -6.254  12.784  20.097  0.00  0.00    +0.000 Br
ATOM     15  C   UNL     1      -5.488  11.968  17.457  0.00  0.00    +0.000 A 
ATOM     16  C   UNL     1      -4.599  11.505  16.493  0.00  0.00    +0.000 A 
ATOM     17  C   UNL     1      -3.271  11.222  16.822  0.00  0.00    +0.000 A 
BRANCH  15  18
ATOM     18  O   UNL     1      -6.763  12.235  17.053  0.00  0.00    +0.000 OA
ATOM     19  H   UNL     1      -6.778  13.144  16.697  0.00  0.00    +0.000 HD
ENDBRANCH  15  18
BRANCH  17  20
ATOM     20  O   UNL     1      -2.523  10.833  15.742  0.00  0.00    +0.000 OA
ATOM     21  C   UNL     1      -3.181  10.153  14.680  0.00  0.00    +0.000 C 
ENDBRANCH  17  20
ENDBRANCH  10  11
ENDBRANCH   7   9
ENDBRANCH   4   7
BRANCH   1  22
ATOM     22  O   UNL     1       4.294   6.233  17.930  0.00  0.00    +0.000 OA
BRANCH  22  23
ATOM     23  C   UNL     1       4.555   5.154  18.833  0.00  0.00    +0.000 C 
BRANCH  23  24
ATOM     24  C   UNL     1       4.760   3.853  18.080  0.00  0.00    +0.000 C 
BRANCH  24  25
ATOM     25  C   UNL     1       3.768   2.774  18.497  0.00  0.00    +0.000 C 
BRANCH  25  26
ATOM     26  C   UNL     1       3.988   2.401  19.940  0.00  0.00    +0.000 C 
ATOM     27  O   UNL     1       5.061   2.064  20.423  0.00  0.00    +0.000 OA
BRANCH  26  28
ATOM     28  O   UNL     1       2.795   2.393  20.592  0.00  0.00    +0.000 OA
BRANCH  28  30
ATOM     29  C   UNL     1       0.989   3.945  20.488  0.00  0.00    +0.000 C 
ATOM     30  C   UNL     1       1.677   2.788  19.786  0.00  0.00    +0.000 C 
ENDBRANCH  28  30
ENDBRANCH  26  28
ENDBRANCH  25  26
ENDBRANCH  24  25
ENDBRANCH  23  24
ENDBRANCH  22  23
ENDBRANCH   1  22
TORSDOF 12
ENDMDL
MODEL 2
REMARK VINA RESULT:      -7.1      1.706      2.800
REMARK  Name = 
REMARK  14 active torsions:
REMARK  status: ('A' for Active; 'I' for Inactive)
REMARK    1  A    between atoms: C_1  and  C_2
REMARK    2  A    between atoms: C_2  and  O_3
REMARK    3  A    between atoms: O_3  and  C_4
REMARK    4  A    between atoms: C_4  and  C_6
REMARK    5  A    between atoms: C_6  and  C_7
REMARK    6  A    between atoms: C_7  and  C_8
REMARK    7  A    between atoms: C_8  and  O_9
REMARK    8  A    between atoms: O_9  and  C_10
REMARK    9  A    between atoms: C_13  and  C_14
REMARK   10  A    between atoms: C_14  and  C_16
REMARK   11  A    between atoms: C_17  and  C_18
REMARK   12  A    between atoms: C_22  and  O_23
REMARK   13  A    between atoms: C_25  and  O_26
REMARK   14  A    between atoms: O_26  and  C_27
REMARK                            x       y       z     vdW  Elec       q    Type
REMARK                         _______ _______ _______ _____ _____    ______ ____
ROOT
ATOM      1  C   UNL     1       2.692   6.839  18.744  0.00  0.00    +0.000 A 
ATOM      2  C   UNL     1       2.071   7.134  19.959  0.00  0.00    +0.000 A 
ATOM      3  C   UNL     1       1.419   8.350  20.140  0.00  0.00    +0.000 A 
ATOM      4  C   UNL     1       1.362   9.286  19.105  0.00  0.00    +0.000 A 
ATOM      5  C   UNL     1       1.963   8.995  17.875  0.00  0.00    +0.000 A 
ATOM      6  C   UNL     1       2.631   7.771  17.701  0.00  0.00    +0.000 A 
ENDROOT
BRANCH   4   7
ATOM      7  C   UNL     1       0.683  10.566  19.409  0.00  0.00    +0.000 C 
ATOM      8  O   UNL     1       1.337  11.503  19.861  0.00  0.00    +0.000 OA
BRANCH   7   9
ATOM      9  C   UNL     1      -0.793  10.634  19.273  0.00  0.00    +0.000 C 
ATOM     10  C   UNL     1      -1.301  10.596  18.031  0.00  0.00    +0.000 C 
BRANCH  10  11
ATOM     11  C   UNL     1      -2.705  10.913  17.762  0.00  0.00    +0.000 A 
ATOM     12  C   UNL     1      -3.389  11.685  18.714  0.00  0.00    +0.000 A 
ATOM     13  C   UNL     1      -4.707  12.088  18.485  0.00  0.00    +0.000 A 
ATOM     14 BR   UNL     1      -5.598  13.141  19.780  0.00  0.00    +0.000 Br
ATOM     15  C   UNL     1      -5.346  11.725  17.299  0.00  0.00    +0.000 A 
ATOM     16  C   UNL     1      -4.679  10.951  16.356  0.00  0.00    +0.000 A 
ATOM     17  C   UNL     1      -3.366  10.527  16.578  0.00  0.00    +0.000 A 
BRANCH  15  18
ATOM     18  O   UNL     1      -6.620  12.111  17.002  0.00  0.00    +0.000 OA
ATOM     19  H   UNL     1      -7.017  11.419  16.439  0.00  0.00    +0.000 HD
ENDBRANCH  15  18
BRANCH  17  20
ATOM     20  O   UNL     1      -2.844   9.825  15.524  0.00  0.00    +0.000 OA
ATOM     21  C   UNL     1      -3.319  10.126  14.217  0.00  0.00    +0.000 C 
ENDBRANCH  17  20
ENDBRANCH  10  11
ENDBRANCH   7   9
ENDBRANCH   4   7
BRANCH   1  22
ATOM     22  O   UNL     1       3.386   5.683  18.484  0.00  0.00    +0.000 OA
BRANCH  22  23
ATOM     23  C   UNL     1       4.293   5.285  19.516  0.00  0.00    +0.000 C 
BRANCH  23  24
ATOM     24  C   UNL     1       5.381   4.383  18.965  0.00  0.00    +0.000 C 
BRANCH  24  25
ATOM     25  C   UNL     1       5.367   4.313  17.442  0.00  0.00    +0.000 C 
BRANCH  25  26
ATOM     26  C   UNL     1       6.697   4.759  16.893  0.00  0.00    +0.000 C 
ATOM     27  O   UNL     1       7.786   4.337  17.259  0.00  0.00    +0.000 OA
BRANCH  26  28
ATOM     28  O   UNL     1       6.504   5.776  16.011  0.00  0.00    +0.000 OA
BRANCH  28  30
ATOM     29  C   UNL     1       6.379   4.485  14.011  0.00  0.00    +0.000 C 
ATOM     30  C   UNL     1       5.636   5.452  14.916  0.00  0.00    +0.000 C 
ENDBRANCH  28  30
ENDBRANCH  26  28
ENDBRANCH  25  26
ENDBRANCH  24  25
ENDBRANCH  23  24
ENDBRANCH  22  23
ENDBRANCH   1  22
TORSDOF 12
ENDMDL
MODEL 3
REMARK VINA RESULT:      -7.0      1.286      1.850
REMARK  Name = 
REMARK  14 active torsions:
REMARK  status: ('A' for Active; 'I' for Inactive)
REMARK    1  A    between atoms: C_1  and  C_2
REMARK    2  A    between atoms: C_2  and  O_3
REMARK    3  A    between atoms: O_3  and  C_4
REMARK    4  A    between atoms: C_4  and  C_6
REMARK    5  A    between atoms: C_6  and  C_7
REMARK    6  A    between atoms: C_7  and  C_8
REMARK    7  A    between atoms: C_8  and  O_9
REMARK    8  A    between atoms: O_9  and  C_10
REMARK    9  A    between atoms: C_13  and  C_14
REMARK   10  A    between atoms: C_14  and  C_16
REMARK   11  A    between atoms: C_17  and  C_18
REMARK   12  A    between atoms: C_22  and  O_23
REMARK   13  A    between atoms: C_25  and  O_26
REMARK   14  A    between atoms: O_26  and  C_27
REMARK                            x       y       z     vdW  Elec       q    Type
REMARK                         _______ _______ _______ _____ _____    ______ ____
ROOT
ATOM      1  C   UNL     1       2.298   6.643  19.815  0.00  0.00    +0.000 A 
ATOM      2  C   UNL     1       1.611   7.480  20.697  0.00  0.00    +0.000 A 
ATOM      3  C   UNL     1       1.197   8.745  20.291  0.00  0.00    +0.000 A 
ATOM      4  C   UNL     1       1.449   9.192  18.993  0.00  0.00    +0.000 A 
ATOM      5  C   UNL     1       2.121   8.356  18.092  0.00  0.00    +0.000 A 
ATOM      6  C   UNL     1       2.547   7.084  18.510  0.00  0.00    +0.000 A 
ENDROOT
BRANCH   4   7
ATOM      7  C   UNL     1       1.009  10.568  18.670  0.00  0.00    +0.000 C 
ATOM      8  O   UNL     1       1.839  11.395  18.302  0.00  0.00    +0.000 OA
BRANCH   7   9
ATOM      9  C   UNL     1      -0.406  10.935  18.923  0.00  0.00    +0.000 C 
ATOM     10  C   UNL     1      -1.334  10.425  18.098  0.00  0.00    +0.000 C 
BRANCH  10  11
ATOM     11  C   UNL     1      -2.713  10.917  18.090  0.00  0.00    +0.000 A 
ATOM     12  C   UNL     1      -3.091  11.803  19.111  0.00  0.00    +0.000 A 
ATOM     13  C   UNL     1      -4.368  12.369  19.119  0.00  0.00    +0.000 A 
ATOM     14 BR   UNL     1      -4.844  13.573  20.500  0.00  0.00    +0.000 Br
ATOM     15  C   UNL     1      -5.272  12.056  18.104  0.00  0.00    +0.000 A 
ATOM     16  C   UNL     1      -4.909  11.171  17.096  0.00  0.00    +0.000 A 
ATOM     17  C   UNL     1      -3.640  10.584  17.082  0.00  0.00    +0.000 A 
BRANCH  15  18
ATOM     18  O   UNL     1      -6.522  12.598  18.039  0.00  0.00    +0.000 OA
ATOM     19  H   UNL     1      -7.116  12.044  18.580  0.00  0.00    +0.000 HD
ENDBRANCH  15  18
BRANCH  17  20
ATOM     20  O   UNL     1      -3.431   9.785  15.989  0.00  0.00    +0.000 OA
ATOM     21  C   UNL     1      -3.047  10.406  14.768  0.00  0.00    +0.000 C 
ENDBRANCH  17  20
ENDBRANCH  10  11
ENDBRANCH   7   9
ENDBRANCH   4   7
BRANCH   1  22
ATOM     22  O   UNL     1       2.773   5.396  20.135  0.00  0.00    +0.000 OA
BRANCH  22  23
ATOM     23  C   UNL     1       2.082   4.749  21.208  0.00  0.00    +0.000 C 
BRANCH  23  24
ATOM     24  C   UNL     1       1.766   3.307  20.860  0.00  0.00    +0.000 C 
BRANCH  24  25
ATOM     25  C   UNL     1       2.891   2.353  21.245  0.00  0.00    +0.000 C 
BRANCH  25  26
ATOM     26  C   UNL     1       3.865   2.217  20.104  0.00  0.00    +0.000 C 
ATOM     27  O   UNL     1       5.059   2.473  20.165  0.00  0.00    +0.000 OA
BRANCH  26  28
ATOM     28  O   UNL     1       3.190   1.871  18.974  0.00  0.00    +0.000 OA
BRANCH  28  30
ATOM     29  C   UNL     1       2.566   3.409  17.263  0.00  0.00    +0.000 C 
ATOM     30  C   UNL     1       3.671   2.505  17.780  0.00  0.00    +0.000 C 
ENDBRANCH  28  30
ENDBRANCH  26  28
ENDBRANCH  25  26
ENDBRANCH  24  25
ENDBRANCH  23  24
ENDBRANCH  22  23
ENDBRANCH   1  22
TORSDOF 12
ENDMDL
MODEL 4
REMARK VINA RESULT:      -7.0      1.823      3.191
REMARK  Name = 
REMARK  14 active torsions:
REMARK  status: ('A' for Active; 'I' for Inactive)
REMARK    1  A    between atoms: C_1  and  C_2
REMARK    2  A    between atoms: C_2  and  O_3
REMARK    3  A    between atoms: O_3  and  C_4
REMARK    4  A    between atoms: C_4  and  C_6
REMARK    5  A    between atoms: C_6  and  C_7
REMARK    6  A    between atoms: C_7  and  C_8
REMARK    7  A    between atoms: C_8  and  O_9
REMARK    8  A    between atoms: O_9  and  C_10
REMARK    9  A    between atoms: C_13  and  C_14
REMARK   10  A    between atoms: C_14  and  C_16
REMARK   11  A    between atoms: C_17  and  C_18
REMARK   12  A    between atoms: C_22  and  O_23
REMARK   13  A    between atoms: C_25  and  O_26
REMARK   14  A    between atoms: O_26  and  C_27
REMARK                            x       y       z     vdW  Elec       q    Type
REMARK                         _______ _______ _______ _____ _____    ______ ____
ROOT
ATOM      1  C   UNL     1       3.079   6.394  19.258  0.00  0.00    +0.000 A 
ATOM      2  C   UNL     1       2.215   6.984  20.183  0.00  0.00    +0.000 A 
ATOM      3  C   UNL     1       1.577   8.185  19.886  0.00  0.00    +0.000 A 
ATOM      4  C   UNL     1       1.780   8.810  18.654  0.00  0.00    +0.000 A 
ATOM      5  C   UNL     1       2.629   8.221  17.711  0.00  0.00    +0.000 A 
ATOM      6  C   UNL     1       3.279   7.014  18.019  0.00  0.00    +0.000 A 
ENDROOT
BRANCH   4   7
ATOM      7  C   UNL     1       1.093  10.106  18.450  0.00  0.00    +0.000 C 
ATOM      8  O   UNL     1       1.727  11.151  18.573  0.00  0.00    +0.000 OA
BRANCH   7   9
ATOM      9  C   UNL     1      -0.374  10.100  18.225  0.00  0.00    +0.000 C 
ATOM     10  C   UNL     1      -1.023  11.269  18.347  0.00  0.00    +0.000 C 
BRANCH  10  11
ATOM     11  C   UNL     1      -2.484  11.338  18.404  0.00  0.00    +0.000 A 
ATOM     12  C   UNL     1      -3.058  12.112  19.424  0.00  0.00    +0.000 A 
ATOM     13  C   UNL     1      -4.442  12.282  19.491  0.00  0.00    +0.000 A 
ATOM     14 BR   UNL     1      -5.185  13.345  20.870  0.00  0.00    +0.000 Br
ATOM     15  C   UNL     1      -5.261  11.683  18.534  0.00  0.00    +0.000 A 
ATOM     16  C   UNL     1      -4.702  10.905  17.526  0.00  0.00    +0.000 A 
ATOM     17  C   UNL     1      -3.319  10.713  17.456  0.00  0.00    +0.000 A 
BRANCH  15  18
ATOM     18  O   UNL     1      -6.617  11.835  18.525  0.00  0.00    +0.000 OA
ATOM     19  H   UNL     1      -6.976  11.348  19.291  0.00  0.00    +0.000 HD
ENDBRANCH  15  18
BRANCH  17  20
ATOM     20  O   UNL     1      -2.937   9.970  16.370  0.00  0.00    +0.000 OA
ATOM     21  C   UNL     1      -3.034  10.565  15.082  0.00  0.00    +0.000 C 
ENDBRANCH  17  20
ENDBRANCH  10  11
ENDBRANCH   7   9
ENDBRANCH   4   7
BRANCH   1  22
ATOM     22  O   UNL     1       3.775   5.231  19.474  0.00  0.00    +0.000 OA
BRANCH  22  23
ATOM     23  C   UNL     1       4.799   4.959  18.512  0.00  0.00    +0.000 C 
BRANCH  23  24
ATOM     24  C   UNL     1       6.150   5.439  19.007  0.00  0.00    +0.000 C 
BRANCH  24  25
ATOM     25  C   UNL     1       7.258   5.221  17.983  0.00  0.00    +0.000 C 
BRANCH  25  26
ATOM     26  C   UNL     1       7.268   6.350  16.985  0.00  0.00    +0.000 C 
ATOM     27  O   UNL     1       7.191   7.537  17.267  0.00  0.00    +0.000 OA
BRANCH  26  28
ATOM     28  O   UNL     1       7.265   5.838  15.725  0.00  0.00    +0.000 OA
BRANCH  28  30
ATOM     29  C   UNL     1       5.986   4.235  14.509  0.00  0.00    +0.000 C 
ATOM     30  C   UNL     1       6.963   4.438  15.654  0.00  0.00    +0.000 C 
ENDBRANCH  28  30
ENDBRANCH  26  28
ENDBRANCH  25  26
ENDBRANCH  24  25
ENDBRANCH  23  24
ENDBRANCH  22  23
ENDBRANCH   1  22
TORSDOF 12
ENDMDL
MODEL 5
REMARK VINA RESULT:      -7.0      1.668      3.175
REMARK  Name = 
REMARK  14 active torsions:
REMARK  status: ('A' for Active; 'I' for Inactive)
REMARK    1  A    between atoms: C_1  and  C_2
REMARK    2  A    between atoms: C_2  and  O_3
REMARK    3  A    between atoms: O_3  and  C_4
REMARK    4  A    between atoms: C_4  and  C_6
REMARK    5  A    between atoms: C_6  and  C_7
REMARK    6  A    between atoms: C_7  and  C_8
REMARK    7  A    between atoms: C_8  and  O_9
REMARK    8  A    between atoms: O_9  and  C_10
REMARK    9  A    between atoms: C_13  and  C_14
REMARK   10  A    between atoms: C_14  and  C_16
REMARK   11  A    between atoms: C_17  and  C_18
REMARK   12  A    between atoms: C_22  and  O_23
REMARK   13  A    between atoms: C_25  and  O_26
REMARK   14  A    between atoms: O_26  and  C_27
REMARK                            x       y       z     vdW  Elec       q    Type
REMARK                         _______ _______ _______ _____ _____    ______ ____
ROOT
ATOM      1  C   UNL     1       2.808   6.738  19.132  0.00  0.00    +0.000 A 
ATOM      2  C   UNL     1       2.760   7.609  18.042  0.00  0.00    +0.000 A 
ATOM      3  C   UNL     1       2.025   8.788  18.113  0.00  0.00    +0.000 A 
ATOM      4  C   UNL     1       1.337   9.126  19.279  0.00  0.00    +0.000 A 
ATOM      5  C   UNL     1       1.391   8.271  20.386  0.00  0.00    +0.000 A 
ATOM      6  C   UNL     1       2.125   7.076  20.306  0.00  0.00    +0.000 A 
ENDROOT
BRANCH   4   7
ATOM      7  C   UNL     1       0.548  10.379  19.242  0.00  0.00    +0.000 C 
ATOM      8  O   UNL     1       0.974  11.377  19.817  0.00  0.00    +0.000 OA
BRANCH   7   9
ATOM      9  C   UNL     1      -0.796  10.349  18.614  0.00  0.00    +0.000 C 
ATOM     10  C   UNL     1      -1.440  11.519  18.475  0.00  0.00    +0.000 C 
BRANCH  10  11
ATOM     11  C   UNL     1      -2.857  11.581  18.114  0.00  0.00    +0.000 A 
ATOM     12  C   UNL     1      -3.763  11.981  19.110  0.00  0.00    +0.000 A 
ATOM     13  C   UNL     1      -5.119  12.135  18.812  0.00  0.00    +0.000 A 
ATOM     14 BR   UNL     1      -6.314  12.689  20.172  0.00  0.00    +0.000 Br
ATOM     15  C   UNL     1      -5.576  11.896  17.517  0.00  0.00    +0.000 A 
ATOM     16  C   UNL     1      -4.687  11.489  16.528  0.00  0.00    +0.000 A 
ATOM     17  C   UNL     1      -3.330  11.315  16.813  0.00  0.00    +0.000 A 
BRANCH  15  18
ATOM     18  O   UNL     1      -6.881  12.057  17.155  0.00  0.00    +0.000 OA
ATOM     19  H   UNL     1      -7.125  11.309  16.576  0.00  0.00    +0.000 HD
ENDBRANCH  15  18
BRANCH  17  20
ATOM     20  O   UNL     1      -2.591  10.969  15.713  0.00  0.00    +0.000 OA
ATOM     21  C   UNL     1      -3.202  10.148  14.725  0.00  0.00    +0.000 C 
ENDBRANCH  17  20
ENDBRANCH  10  11
ENDBRANCH   7   9
ENDBRANCH   4   7
BRANCH   1  22
ATOM     22  O   UNL     1       3.477   5.540  19.144  0.00  0.00    +0.000 OA
BRANCH  22  23
ATOM     23  C   UNL     1       2.937   4.544  18.270  0.00  0.00    +0.000 C 
BRANCH  23  24
ATOM     24  C   UNL     1       3.679   4.523  16.946  0.00  0.00    +0.000 C 
BRANCH  24  25
ATOM     25  C   UNL     1       5.169   4.801  17.106  0.00  0.00    +0.000 C 
BRANCH  25  26
ATOM     26  C   UNL     1       5.659   5.654  15.965  0.00  0.00    +0.000 C 
ATOM     27  O   UNL     1       5.097   6.656  15.545  0.00  0.00    +0.000 OA
BRANCH  26  28
ATOM     28  O   UNL     1       6.758   5.076  15.409  0.00  0.00    +0.000 OA
BRANCH  28  30
ATOM     29  C   UNL     1       6.065   3.954  13.424  0.00  0.00    +0.000 C 
ATOM     30  C   UNL     1       6.527   3.772  14.859  0.00  0.00    +0.000 C 
ENDBRANCH  28  30
ENDBRANCH  26  28
ENDBRANCH  25  26
ENDBRANCH  24  25
ENDBRANCH  23  24
ENDBRANCH  22  23
ENDBRANCH   1  22
TORSDOF 12
ENDMDL
MODEL 6
REMARK VINA RESULT:      -7.0      1.760      2.772
REMARK  Name = 
REMARK  14 active torsions:
REMARK  status: ('A' for Active; 'I' for Inactive)
REMARK    1  A    between atoms: C_1  and  C_2
REMARK    2  A    between atoms: C_2  and  O_3
REMARK    3  A    between atoms: O_3  and  C_4
REMARK    4  A    between atoms: C_4  and  C_6
REMARK    5  A    between atoms: C_6  and  C_7
REMARK    6  A    between atoms: C_7  and  C_8
REMARK    7  A    between atoms: C_8  and  O_9
REMARK    8  A    between atoms: O_9  and  C_10
REMARK    9  A    between atoms: C_13  and  C_14
REMARK   10  A    between atoms: C_14  and  C_16
REMARK   11  A    between atoms: C_17  and  C_18
REMARK   12  A    between atoms: C_22  and  O_23
REMARK   13  A    between atoms: C_25  and  O_26
REMARK   14  A    between atoms: O_26  and  C_27
REMARK                            x       y       z     vdW  Elec       q    Type
REMARK                         _______ _______ _______ _____ _____    ______ ____
ROOT
ATOM      1  C   UNL     1       3.010   7.153  18.775  0.00  0.00    +0.000 A 
ATOM      2  C   UNL     1       2.302   7.182  19.978  0.00  0.00    +0.000 A 
ATOM      3  C   UNL     1       1.382   8.195  20.231  0.00  0.00    +0.000 A 
ATOM      4  C   UNL     1       1.143   9.190  19.281  0.00  0.00    +0.000 A 
ATOM      5  C   UNL     1       1.832   9.163  18.063  0.00  0.00    +0.000 A 
ATOM      6  C   UNL     1       2.768   8.144  17.817  0.00  0.00    +0.000 A 
ENDROOT
BRANCH   4   7
ATOM      7  C   UNL     1       0.181  10.249  19.660  0.00  0.00    +0.000 C 
ATOM      8  O   UNL     1       0.364  10.889  20.692  0.00  0.00    +0.000 OA
BRANCH   7   9
ATOM      9  C   UNL     1      -1.045  10.416  18.841  0.00  0.00    +0.000 C 
ATOM     10  C   UNL     1      -1.801  11.501  19.074  0.00  0.00    +0.000 C 
BRANCH  10  11
ATOM     11  C   UNL     1      -3.149  11.636  18.518  0.00  0.00    +0.000 A 
ATOM     12  C   UNL     1      -4.152  12.135  19.363  0.00  0.00    +0.000 A 
ATOM     13  C   UNL     1      -5.441  12.360  18.875  0.00  0.00    +0.000 A 
ATOM     14 BR   UNL     1      -6.770  13.048  20.035  0.00  0.00    +0.000 Br
ATOM     15  C   UNL     1      -5.733  12.092  17.537  0.00  0.00    +0.000 A 
ATOM     16  C   UNL     1      -4.747  11.588  16.696  0.00  0.00    +0.000 A 
ATOM     17  C   UNL     1      -3.457  11.342  17.174  0.00  0.00    +0.000 A 
BRANCH  15  18
ATOM     18  O   UNL     1      -6.963  12.318  16.992  0.00  0.00    +0.000 OA
ATOM     19  H   UNL     1      -7.632  12.107  17.670  0.00  0.00    +0.000 HD
ENDBRANCH  15  18
BRANCH  17  20
ATOM     20  O   UNL     1      -2.600  10.902  16.200  0.00  0.00    +0.000 OA
ATOM     21  C   UNL     1      -3.147  10.547  14.935  0.00  0.00    +0.000 C 
ENDBRANCH  17  20
ENDBRANCH  10  11
ENDBRANCH   7   9
ENDBRANCH   4   7
BRANCH   1  22
ATOM     22  O   UNL     1       3.957   6.214  18.451  0.00  0.00    +0.000 OA
BRANCH  22  23
ATOM     23  C   UNL     1       3.432   4.934  18.087  0.00  0.00    +0.000 C 
BRANCH  23  24
ATOM     24  C   UNL     1       4.063   4.433  16.801  0.00  0.00    +0.000 C 
BRANCH  24  25
ATOM     25  C   UNL     1       5.205   5.323  16.326  0.00  0.00    +0.000 C 
BRANCH  25  26
ATOM     26  C   UNL     1       6.397   4.479  15.958  0.00  0.00    +0.000 C 
ATOM     27  O   UNL     1       6.374   3.528  15.188  0.00  0.00    +0.000 OA
BRANCH  26  28
ATOM     28  O   UNL     1       7.472   4.869  16.695  0.00  0.00    +0.000 OA
BRANCH  28  30
ATOM     29  C   UNL     1       7.807   5.834  18.848  0.00  0.00    +0.000 C 
ATOM     30  C   UNL     1       7.267   6.072  17.449  0.00  0.00    +0.000 C 
ENDBRANCH  28  30
ENDBRANCH  26  28
ENDBRANCH  25  26
ENDBRANCH  24  25
ENDBRANCH  23  24
ENDBRANCH  22  23
ENDBRANCH   1  22
TORSDOF 12
ENDMDL
MODEL 7
REMARK VINA RESULT:      -6.9      2.028      4.104
REMARK  Name = 
REMARK  14 active torsions:
REMARK  status: ('A' for Active; 'I' for Inactive)
REMARK    1  A    between atoms: C_1  and  C_2
REMARK    2  A    between atoms: C_2  and  O_3
REMARK    3  A    between atoms: O_3  and  C_4
REMARK    4  A    between atoms: C_4  and  C_6
REMARK    5  A    between atoms: C_6  and  C_7
REMARK    6  A    between atoms: C_7  and  C_8
REMARK    7  A    between atoms: C_8  and  O_9
REMARK    8  A    between atoms: O_9  and  C_10
REMARK    9  A    between atoms: C_13  and  C_14
REMARK   10  A    between atoms: C_14  and  C_16
REMARK   11  A    between atoms: C_17  and  C_18
REMARK   12  A    between atoms: C_22  and  O_23
REMARK   13  A    between atoms: C_25  and  O_26
REMARK   14  A    between atoms: O_26  and  C_27
REMARK                            x       y       z     vdW  Elec       q    Type
REMARK                         _______ _______ _______ _____ _____    ______ ____
ROOT
ATOM      1  C   UNL     1       1.518   4.267  19.672  0.00  0.00    +0.000 A 
ATOM      2  C   UNL     1       1.491   4.475  18.292  0.00  0.00    +0.000 A 
ATOM      3  C   UNL     1       1.868   5.703  17.756  0.00  0.00    +0.000 A 
ATOM      4  C   UNL     1       2.291   6.741  18.589  0.00  0.00    +0.000 A 
ATOM      5  C   UNL     1       2.340   6.540  19.973  0.00  0.00    +0.000 A 
ATOM      6  C   UNL     1       1.948   5.303  20.510  0.00  0.00    +0.000 A 
ENDROOT
BRANCH   4   7
ATOM      7  C   UNL     1       2.628   8.022  17.928  0.00  0.00    +0.000 C 
ATOM      8  O   UNL     1       3.803   8.284  17.685  0.00  0.00    +0.000 OA
BRANCH   7   9
ATOM      9  C   UNL     1       1.541   9.005  17.696  0.00  0.00    +0.000 C 
ATOM     10  C   UNL     1       0.975   9.567  18.776  0.00  0.00    +0.000 C 
BRANCH  10  11
ATOM     11  C   UNL     1      -0.264  10.342  18.682  0.00  0.00    +0.000 A 
ATOM     12  C   UNL     1      -1.072  10.138  17.553  0.00  0.00    +0.000 A 
ATOM     13  C   UNL     1      -2.303  10.788  17.437  0.00  0.00    +0.000 A 
ATOM     14 BR   UNL     1      -3.378  10.482  15.910  0.00  0.00    +0.000 Br
ATOM     15  C   UNL     1      -2.735  11.641  18.453  0.00  0.00    +0.000 A 
ATOM     16  C   UNL     1      -1.936  11.856  19.570  0.00  0.00    +0.000 A 
ATOM     17  C   UNL     1      -0.694  11.226  19.692  0.00  0.00    +0.000 A 
BRANCH  15  18
ATOM     18  O   UNL     1      -3.939  12.281  18.414  0.00  0.00    +0.000 OA
ATOM     19  H   UNL     1      -4.218  12.335  17.481  0.00  0.00    +0.000 HD
ENDBRANCH  15  18
BRANCH  17  20
ATOM     20  O   UNL     1      -0.067  11.505  20.878  0.00  0.00    +0.000 OA
ATOM     21  C   UNL     1      -0.522  10.839  22.050  0.00  0.00    +0.000 C 
ENDBRANCH  17  20
ENDBRANCH  10  11
ENDBRANCH   7   9
ENDBRANCH   4   7
BRANCH   1  22
ATOM     22  O   UNL     1       1.135   3.104  20.293  0.00  0.00    +0.000 OA
BRANCH  22  23
ATOM     23  C   UNL     1       2.215   2.262  20.705  0.00  0.00    +0.000 C 
BRANCH  23  24
ATOM     24  C   UNL     1       3.196   2.042  19.569  0.00  0.00    +0.000 C 
BRANCH  24  25
ATOM     25  C   UNL     1       4.565   2.651  19.852  0.00  0.00    +0.000 C 
BRANCH  25  26
ATOM     26  C   UNL     1       4.888   3.697  18.817  0.00  0.00    +0.000 C 
ATOM     27  O   UNL     1       4.756   3.555  17.610  0.00  0.00    +0.000 OA
BRANCH  26  28
ATOM     28  O   UNL     1       5.448   4.777  19.426  0.00  0.00    +0.000 OA
BRANCH  28  30
ATOM     29  C   UNL     1       7.600   5.634  18.867  0.00  0.00    +0.000 C 
ATOM     30  C   UNL     1       6.119   5.677  18.535  0.00  0.00    +0.000 C 
ENDBRANCH  28  30
ENDBRANCH  26  28
ENDBRANCH  25  26
ENDBRANCH  24  25
ENDBRANCH  23  24
ENDBRANCH  22  23
ENDBRANCH   1  22
TORSDOF 12
ENDMDL
MODEL 8
REMARK VINA RESULT:      -6.9      1.948      3.270
REMARK  Name = 
REMARK  14 active torsions:
REMARK  status: ('A' for Active; 'I' for Inactive)
REMARK    1  A    between atoms: C_1  and  C_2
REMARK    2  A    between atoms: C_2  and  O_3
REMARK    3  A    between atoms: O_3  and  C_4
REMARK    4  A    between atoms: C_4  and  C_6
REMARK    5  A    between atoms: C_6  and  C_7
REMARK    6  A    between atoms: C_7  and  C_8
REMARK    7  A    between atoms: C_8  and  O_9
REMARK    8  A    between atoms: O_9  and  C_10
REMARK    9  A    between atoms: C_13  and  C_14
REMARK   10  A    between atoms: C_14  and  C_16
REMARK   11  A    between atoms: C_17  and  C_18
REMARK   12  A    between atoms: C_22  and  O_23
REMARK   13  A    between atoms: C_25  and  O_26
REMARK   14  A    between atoms: O_26  and  C_27
REMARK                            x       y       z     vdW  Elec       q    Type
REMARK                         _______ _______ _______ _____ _____    ______ ____
ROOT
ATOM      1  C   UNL     1       2.921   6.818  18.557  0.00  0.00    +0.000 A 
ATOM      2  C   UNL     1       2.640   7.901  17.721  0.00  0.00    +0.000 A 
ATOM      3  C   UNL     1       1.874   8.967  18.183  0.00  0.00    +0.000 A 
ATOM      4  C   UNL     1       1.388   8.978  19.491  0.00  0.00    +0.000 A 
ATOM      5  C   UNL     1       1.677   7.907  20.345  0.00  0.00    +0.000 A 
ATOM      6  C   UNL     1       2.441   6.828  19.871  0.00  0.00    +0.000 A 
ENDROOT
BRANCH   4   7
ATOM      7  C   UNL     1       0.546  10.134  19.875  0.00  0.00    +0.000 C 
ATOM      8  O   UNL     1       1.016  11.008  20.599  0.00  0.00    +0.000 OA
BRANCH   7   9
ATOM      9  C   UNL     1      -0.881  10.134  19.470  0.00  0.00    +0.000 C 
ATOM     10  C   UNL     1      -1.207  10.800  18.351  0.00  0.00    +0.000 C 
BRANCH  10  11
ATOM     11  C   UNL     1      -2.600  11.084  18.000  0.00  0.00    +0.000 A 
ATOM     12  C   UNL     1      -3.391  11.734  18.960  0.00  0.00    +0.000 A 
ATOM     13  C   UNL     1      -4.704  12.103  18.663  0.00  0.00    +0.000 A 
ATOM     14 BR   UNL     1      -5.742  12.991  19.973  0.00  0.00    +0.000 Br
ATOM     15  C   UNL     1      -5.233  11.829  17.401  0.00  0.00    +0.000 A 
ATOM     16  C   UNL     1      -4.459  11.176  16.448  0.00  0.00    +0.000 A 
ATOM     17  C   UNL     1      -3.149  10.787  16.736  0.00  0.00    +0.000 A 
BRANCH  15  18
ATOM     18  O   UNL     1      -6.497  12.190  17.039  0.00  0.00    +0.000 OA
ATOM     19  H   UNL     1      -7.076  12.071  17.816  0.00  0.00    +0.000 HD
ENDBRANCH  15  18
BRANCH  17  20
ATOM     20  O   UNL     1      -2.514  10.210  15.667  0.00  0.00    +0.000 OA
ATOM     21  C   UNL     1      -3.178  10.218  14.409  0.00  0.00    +0.000 C 
ENDBRANCH  17  20
ENDBRANCH  10  11
ENDBRANCH   7   9
ENDBRANCH   4   7
BRANCH   1  22
ATOM     22  O   UNL     1       3.638   5.710  18.181  0.00  0.00    +0.000 OA
BRANCH  22  23
ATOM     23  C   UNL     1       5.042   5.786  18.447  0.00  0.00    +0.000 C 
BRANCH  23  24
ATOM     24  C   UNL     1       5.767   6.520  17.335  0.00  0.00    +0.000 C 
BRANCH  24  25
ATOM     25  C   UNL     1       5.446   5.955  15.956  0.00  0.00    +0.000 C 
BRANCH  25  26
ATOM     26  C   UNL     1       6.021   4.569  15.820  0.00  0.00    +0.000 C 
ATOM     27  O   UNL     1       5.506   3.549  16.255  0.00  0.00    +0.000 OA
BRANCH  26  28
ATOM     28  O   UNL     1       7.248   4.645  15.238  0.00  0.00    +0.000 OA
BRANCH  28  30
ATOM     29  C   UNL     1       6.426   3.795  13.169  0.00  0.00    +0.000 C 
ATOM     30  C   UNL     1       7.220   4.908  13.829  0.00  0.00    +0.000 C 
ENDBRANCH  28  30
ENDBRANCH  26  28
ENDBRANCH  25  26
ENDBRANCH  24  25
ENDBRANCH  23  24
ENDBRANCH  22  23
ENDBRANCH   1  22
TORSDOF 12
ENDMDL
MODEL 9
REMARK VINA RESULT:      -6.8      2.014      4.079
REMARK  Name = 
REMARK  14 active torsions:
REMARK  status: ('A' for Active; 'I' for Inactive)
REMARK    1  A    between atoms: C_1  and  C_2
REMARK    2  A    between atoms: C_2  and  O_3
REMARK    3  A    between atoms: O_3  and  C_4
REMARK    4  A    between atoms: C_4  and  C_6
REMARK    5  A    between atoms: C_6  and  C_7
REMARK    6  A    between atoms: C_7  and  C_8
REMARK    7  A    between atoms: C_8  and  O_9
REMARK    8  A    between atoms: O_9  and  C_10
REMARK    9  A    between atoms: C_13  and  C_14
REMARK   10  A    between atoms: C_14  and  C_16
REMARK   11  A    between atoms: C_17  and  C_18
REMARK   12  A    between atoms: C_22  and  O_23
REMARK   13  A    between atoms: C_25  and  O_26
REMARK   14  A    between atoms: O_26  and  C_27
REMARK                            x       y       z     vdW  Elec       q    Type
REMARK                         _______ _______ _______ _____ _____    ______ ____
ROOT
ATOM      1  C   UNL     1       1.485   4.274  19.414  0.00  0.00    +0.000 A 
ATOM      2  C   UNL     1       1.375   4.607  18.063  0.00  0.00    +0.000 A 
ATOM      3  C   UNL     1       1.806   5.849  17.606  0.00  0.00    +0.000 A 
ATOM      4  C   UNL     1       2.368   6.774  18.487  0.00  0.00    +0.000 A 
ATOM      5  C   UNL     1       2.502   6.446  19.841  0.00  0.00    +0.000 A 
ATOM      6  C   UNL     1       2.054   5.196  20.300  0.00  0.00    +0.000 A 
ENDROOT
BRANCH   4   7
ATOM      7  C   UNL     1       2.755   8.083  17.914  0.00  0.00    +0.000 C 
ATOM      8  O   UNL     1       3.940   8.318  17.694  0.00  0.00    +0.000 OA
BRANCH   7   9
ATOM      9  C   UNL     1       1.705   9.117  17.740  0.00  0.00    +0.000 C 
ATOM     10  C   UNL     1       0.982   9.451  18.821  0.00  0.00    +0.000 C 
BRANCH  10  11
ATOM     11  C   UNL     1      -0.236  10.256  18.716  0.00  0.00    +0.000 A 
ATOM     12  C   UNL     1      -1.029  10.086  17.570  0.00  0.00    +0.000 A 
ATOM     13  C   UNL     1      -2.242  10.766  17.441  0.00  0.00    +0.000 A 
ATOM     14 BR   UNL     1      -3.296  10.504  15.891  0.00  0.00    +0.000 Br
ATOM     15  C   UNL     1      -2.672  11.616  18.460  0.00  0.00    +0.000 A 
ATOM     16  C   UNL     1      -1.887  11.799  19.593  0.00  0.00    +0.000 A 
ATOM     17  C   UNL     1      -0.664  11.138  19.729  0.00  0.00    +0.000 A 
BRANCH  15  18
ATOM     18  O   UNL     1      -3.860  12.285  18.408  0.00  0.00    +0.000 OA
ATOM     19  H   UNL     1      -3.962  12.640  17.505  0.00  0.00    +0.000 HD
ENDBRANCH  15  18
BRANCH  17  20
ATOM     20  O   UNL     1      -0.051  11.387  20.929  0.00  0.00    +0.000 OA
ATOM     21  C   UNL     1       0.021  12.735  21.379  0.00  0.00    +0.000 C 
ENDBRANCH  17  20
ENDBRANCH  10  11
ENDBRANCH   7   9
ENDBRANCH   4   7
BRANCH   1  22
ATOM     22  O   UNL     1       1.058   3.090  19.962  0.00  0.00    +0.000 OA
BRANCH  22  23
ATOM     23  C   UNL     1       1.549   1.917  19.307  0.00  0.00    +0.000 C 
BRANCH  23  24
ATOM     24  C   UNL     1       3.043   1.760  19.518  0.00  0.00    +0.000 C 
BRANCH  24  25
ATOM     25  C   UNL     1       3.841   1.977  18.238  0.00  0.00    +0.000 C 
BRANCH  25  26
ATOM     26  C   UNL     1       4.687   3.217  18.362  0.00  0.00    +0.000 C 
ATOM     27  O   UNL     1       5.252   3.584  19.383  0.00  0.00    +0.000 OA
BRANCH  26  28
ATOM     28  O   UNL     1       4.635   3.918  17.197  0.00  0.00    +0.000 OA
BRANCH  28  30
ATOM     29  C   UNL     1       5.348   5.705  15.790  0.00  0.00    +0.000 C 
ATOM     30  C   UNL     1       5.456   5.094  17.175  0.00  0.00    +0.000 C 
ENDBRANCH  28  30
ENDBRANCH  26  28
ENDBRANCH  25  26
ENDBRANCH  24  25
ENDBRANCH  23  24
ENDBRANCH  22  23
ENDBRANCH   1  22
TORSDOF 12
ENDMDL
