MODEL 1
REMARK VINA RESULT:      -7.7      0.000      0.000
REMARK  Name = 
REMARK  6 active torsions:
REMARK  status: ('A' for Active; 'I' for Inactive)
REMARK    1  A    between atoms: C_1  and  C_2
REMARK    2  A    between atoms: C_2  and  C_3
REMARK    3  A    between atoms: C_2  and  C_4
REMARK    4  A    between atoms: C_2  and  N_5
REMARK    5  A    between atoms: N_5  and  C_6
REMARK    6  A    between atoms: C_8  and  C_9
REMARK                            x       y       z     vdW  Elec       q    Type
REMARK                         _______ _______ _______ _____ _____    ______ ____
ROOT
ATOM      1  C   UNL     1       4.205   5.569  17.674  0.00  0.00    +0.000 A 
ATOM      2  C   UNL     1       3.532   6.751  17.973  0.00  0.00    +0.000 A 
ATOM      3  C   UNL     1       2.388   6.754  18.757  0.00  0.00    +0.000 A 
ATOM      4  N   UNL     1       1.777   5.607  19.110  0.00  0.00    +0.000 NA
ATOM      5  C   UNL     1       2.324   4.445  18.711  0.00  0.00    +0.000 A 
ATOM      6  C   UNL     1       1.692   3.253  19.027  0.00  0.00    +0.000 A 
ATOM      7  N   UNL     1       2.118   2.006  18.699  0.00  0.00    +0.000 NA
ATOM      8  C   UNL     1       3.263   1.942  18.001  0.00  0.00    +0.000 A 
ATOM      9  C   UNL     1       3.995   3.060  17.632  0.00  0.00    +0.000 A 
ATOM     10  C   UNL     1       3.536   4.352  17.987  0.00  0.00    +0.000 A 
ENDROOT
BRANCH   3  11
ATOM     11  C   UNL     1       1.834   8.009  19.296  0.00  0.00    +0.000 A 
ATOM     12  C   UNL     1       1.472   8.135  20.636  0.00  0.00    +0.000 A 
ATOM     13  C   UNL     1       0.955   9.343  21.076  0.00  0.00    +0.000 A 
ATOM     14  N   UNL     1       0.776  10.428  20.287  0.00  0.00    +0.000 NA
ATOM     15  C   UNL     1       1.139  10.313  19.004  0.00  0.00    +0.000 A 
ATOM     16  N   UNL     1       1.001  11.444  18.202  0.00  0.00    +0.000 N 
ATOM     17  C   UNL     1       1.674   9.146  18.481  0.00  0.00    +0.000 A 
ATOM     18  H   UNL     1       0.550  12.156  18.771  0.00  0.00    +0.000 HD
ATOM     19  H   UNL     1       0.476  11.250  17.357  0.00  0.00    +0.000 HD
ENDBRANCH   3  11
BRANCH   1  20
ATOM     20  N   UNL     1       5.463   5.600  17.036  0.00  0.00    +0.000 N 
ATOM     21  H   UNL     1       5.519   4.898  16.304  0.00  0.00    +0.000 HD
BRANCH  20  23
ATOM     22  C   UNL     1       6.590   5.467  19.300  0.00  0.00    +0.000 C 
ATOM     23  C   UNL     1       6.753   5.689  17.784  0.00  0.00    +0.000 C 
ATOM     24  C   UNL     1       7.472   7.009  17.458  0.00  0.00    +0.000 C 
ATOM     25  C   UNL     1       7.667   4.547  17.282  0.00  0.00    +0.000 C 
ENDBRANCH  20  23
ENDBRANCH   1  20
TORSDOF 3
ENDMDL
MODEL 2
REMARK VINA RESULT:      -7.7      1.475      3.931
REMARK  Name = 
REMARK  6 active torsions:
REMARK  status: ('A' for Active; 'I' for Inactive)
REMARK    1  A    between atoms: C_1  and  C_2
REMARK    2  A    between atoms: C_2  and  C_3
REMARK    3  A    between atoms: C_2  and  C_4
REMARK    4  A    between atoms: C_2  and  N_5
REMARK    5  A    between atoms: N_5  and  C_6
REMARK    6  A    between atoms: C_8  and  C_9
REMARK                            x       y       z     vdW  Elec       q    Type
REMARK                         _______ _______ _______ _____ _____    ______ ____
ROOT
ATOM      1  C   UNL     1       3.355   4.678  17.640  0.00  0.00    +0.000 A 
ATOM      2  C   UNL     1       2.657   5.689  18.296  0.00  0.00    +0.000 A 
ATOM      3  C   UNL     1       3.054   7.015  18.215  0.00  0.00    +0.000 A 
ATOM      4  N   UNL     1       4.229   7.361  17.654  0.00  0.00    +0.000 NA
ATOM      5  C   UNL     1       5.000   6.387  17.138  0.00  0.00    +0.000 A 
ATOM      6  C   UNL     1       6.231   6.713  16.591  0.00  0.00    +0.000 A 
ATOM      7  N   UNL     1       7.117   5.848  16.034  0.00  0.00    +0.000 NA
ATOM      8  C   UNL     1       6.748   4.558  16.020  0.00  0.00    +0.000 A 
ATOM      9  C   UNL     1       5.539   4.104  16.526  0.00  0.00    +0.000 A 
ATOM     10  C   UNL     1       4.627   5.023  17.100  0.00  0.00    +0.000 A 
ENDROOT
BRANCH   3  11
ATOM     11  C   UNL     1       2.177   8.106  18.674  0.00  0.00    +0.000 A 
ATOM     12  C   UNL     1       1.760   9.122  17.817  0.00  0.00    +0.000 A 
ATOM     13  C   UNL     1       0.937  10.119  18.316  0.00  0.00    +0.000 A 
ATOM     14  N   UNL     1       0.500  10.177  19.595  0.00  0.00    +0.000 NA
ATOM     15  C   UNL     1       0.885   9.192  20.415  0.00  0.00    +0.000 A 
ATOM     16  N   UNL     1       0.396   9.224  21.719  0.00  0.00    +0.000 N 
ATOM     17  C   UNL     1       1.699   8.150  19.998  0.00  0.00    +0.000 A 
ATOM     18  H   UNL     1      -0.131  10.088  21.815  0.00  0.00    +0.000 HD
ATOM     19  H   UNL     1       1.137   9.157  22.406  0.00  0.00    +0.000 HD
ENDBRANCH   3  11
BRANCH   1  20
ATOM     20  N   UNL     1       2.835   3.368  17.578  0.00  0.00    +0.000 N 
ATOM     21  H   UNL     1       1.915   3.360  17.148  0.00  0.00    +0.000 HD
BRANCH  20  23
ATOM     22  C   UNL     1       3.410   3.061  20.025  0.00  0.00    +0.000 C 
ATOM     23  C   UNL     1       2.891   2.415  18.726  0.00  0.00    +0.000 C 
ATOM     24  C   UNL     1       3.688   1.157  18.340  0.00  0.00    +0.000 C 
ATOM     25  C   UNL     1       1.446   1.954  19.026  0.00  0.00    +0.000 C 
ENDBRANCH  20  23
ENDBRANCH   1  20
TORSDOF 3
ENDMDL
MODEL 3
REMARK VINA RESULT:      -7.7      0.579      1.461
REMARK  Name = 
REMARK  6 active torsions:
REMARK  status: ('A' for Active; 'I' for Inactive)
REMARK    1  A    between atoms: C_1  and  C_2
REMARK    2  A    between atoms: C_2  and  C_3
REMARK    3  A    between atoms: C_2  and  C_4
REMARK    4  A    between atoms: C_2  and  N_5
REMARK    5  A    between atoms: N_5  and  C_6
REMARK    6  A    between atoms: C_8  and  C_9
REMARK                            x       y       z     vdW  Elec       q    Type
REMARK                         _______ _______ _______ _____ _____    ______ ____
ROOT
ATOM      1  C   UNL     1       4.214   5.665  17.682  0.00  0.00    +0.000 A 
ATOM      2  C   UNL     1       3.525   6.825  18.028  0.00  0.00    +0.000 A 
ATOM      3  C   UNL     1       2.396   6.784  18.833  0.00  0.00    +0.000 A 
ATOM      4  N   UNL     1       1.813   5.615  19.163  0.00  0.00    +0.000 NA
ATOM      5  C   UNL     1       2.374   4.475  18.720  0.00  0.00    +0.000 A 
ATOM      6  C   UNL     1       1.771   3.263  19.013  0.00  0.00    +0.000 A 
ATOM      7  N   UNL     1       2.214   2.035  18.640  0.00  0.00    +0.000 NA
ATOM      8  C   UNL     1       3.346   2.013  17.920  0.00  0.00    +0.000 A 
ATOM      9  C   UNL     1       4.050   3.155  17.570  0.00  0.00    +0.000 A 
ATOM     10  C   UNL     1       3.574   4.427  17.971  0.00  0.00    +0.000 A 
ENDROOT
BRANCH   3  11
ATOM     11  C   UNL     1       1.830   8.012  19.418  0.00  0.00    +0.000 A 
ATOM     12  C   UNL     1       1.572   9.142  18.644  0.00  0.00    +0.000 A 
ATOM     13  C   UNL     1       1.041  10.264  19.260  0.00  0.00    +0.000 A 
ATOM     14  N   UNL     1       0.748  10.343  20.578  0.00  0.00    +0.000 NA
ATOM     15  C   UNL     1       0.979   9.252  21.319  0.00  0.00    +0.000 A 
ATOM     16  N   UNL     1       0.632   9.316  22.667  0.00  0.00    +0.000 N 
ATOM     17  C   UNL     1       1.498   8.084  20.785  0.00  0.00    +0.000 A 
ATOM     18  H   UNL     1       0.321  10.268  22.847  0.00  0.00    +0.000 HD
ATOM     19  H   UNL     1       1.400   9.050  23.272  0.00  0.00    +0.000 HD
ENDBRANCH   3  11
BRANCH   1  20
ATOM     20  N   UNL     1       5.459   5.739  17.022  0.00  0.00    +0.000 N 
ATOM     21  H   UNL     1       5.490   5.107  16.228  0.00  0.00    +0.000 HD
BRANCH  20  23
ATOM     22  C   UNL     1       6.620   5.486  19.258  0.00  0.00    +0.000 C 
ATOM     23  C   UNL     1       6.765   5.742  17.746  0.00  0.00    +0.000 C 
ATOM     24  C   UNL     1       7.543   7.035  17.444  0.00  0.00    +0.000 C 
ATOM     25  C   UNL     1       7.612   4.572  17.195  0.00  0.00    +0.000 C 
ENDBRANCH  20  23
ENDBRANCH   1  20
TORSDOF 3
ENDMDL
MODEL 4
REMARK VINA RESULT:      -7.6      1.593      3.906
REMARK  Name = 
REMARK  6 active torsions:
REMARK  status: ('A' for Active; 'I' for Inactive)
REMARK    1  A    between atoms: C_1  and  C_2
REMARK    2  A    between atoms: C_2  and  C_3
REMARK    3  A    between atoms: C_2  and  C_4
REMARK    4  A    between atoms: C_2  and  N_5
REMARK    5  A    between atoms: N_5  and  C_6
REMARK    6  A    between atoms: C_8  and  C_9
REMARK                            x       y       z     vdW  Elec       q    Type
REMARK                         _______ _______ _______ _____ _____    ______ ____
ROOT
ATOM      1  C   UNL     1       3.576   5.098  18.906  0.00  0.00    +0.000 A 
ATOM      2  C   UNL     1       2.873   6.208  19.366  0.00  0.00    +0.000 A 
ATOM      3  C   UNL     1       2.790   7.373  18.618  0.00  0.00    +0.000 A 
ATOM      4  N   UNL     1       3.531   7.547  17.508  0.00  0.00    +0.000 NA
ATOM      5  C   UNL     1       4.336   6.543  17.115  0.00  0.00    +0.000 A 
ATOM      6  C   UNL     1       5.139   6.713  15.998  0.00  0.00    +0.000 A 
ATOM      7  N   UNL     1       5.997   5.799  15.479  0.00  0.00    +0.000 NA
ATOM      8  C   UNL     1       6.062   4.623  16.124  0.00  0.00    +0.000 A 
ATOM      9  C   UNL     1       5.304   4.325  17.246  0.00  0.00    +0.000 A 
ATOM     10  C   UNL     1       4.411   5.291  17.770  0.00  0.00    +0.000 A 
ENDROOT
BRANCH   3  11
ATOM     11  C   UNL     1       1.835   8.440  18.968  0.00  0.00    +0.000 A 
ATOM     12  C   UNL     1       1.359   9.339  18.016  0.00  0.00    +0.000 A 
ATOM     13  C   UNL     1       0.465  10.320  18.414  0.00  0.00    +0.000 A 
ATOM     14  N   UNL     1       0.011  10.469  19.680  0.00  0.00    +0.000 NA
ATOM     15  C   UNL     1       0.454   9.595  20.592  0.00  0.00    +0.000 A 
ATOM     16  N   UNL     1      -0.050   9.717  21.885  0.00  0.00    +0.000 N 
ATOM     17  C   UNL     1       1.341   8.577  20.280  0.00  0.00    +0.000 A 
ATOM     18  H   UNL     1      -0.636  10.548  21.896  0.00  0.00    +0.000 HD
ATOM     19  H   UNL     1       0.687   9.766  22.578  0.00  0.00    +0.000 HD
ENDBRANCH   3  11
BRANCH   1  20
ATOM     20  N   UNL     1       3.496   3.864  19.587  0.00  0.00    +0.000 N 
ATOM     21  H   UNL     1       4.406   3.416  19.639  0.00  0.00    +0.000 HD
BRANCH  20  23
ATOM     22  C   UNL     1       1.414   3.314  18.255  0.00  0.00    +0.000 C 
ATOM     23  C   UNL     1       2.424   2.857  19.325  0.00  0.00    +0.000 C 
ATOM     24  C   UNL     1       1.739   2.449  20.640  0.00  0.00    +0.000 C 
ATOM     25  C   UNL     1       3.101   1.587  18.759  0.00  0.00    +0.000 C 
ENDBRANCH  20  23
ENDBRANCH   1  20
TORSDOF 3
ENDMDL
MODEL 5
REMARK VINA RESULT:      -7.6      1.571      3.678
REMARK  Name = 
REMARK  6 active torsions:
REMARK  status: ('A' for Active; 'I' for Inactive)
REMARK    1  A    between atoms: C_1  and  C_2
REMARK    2  A    between atoms: C_2  and  C_3
REMARK    3  A    between atoms: C_2  and  C_4
REMARK    4  A    between atoms: C_2  and  N_5
REMARK    5  A    between atoms: N_5  and  C_6
REMARK    6  A    between atoms: C_8  and  C_9
REMARK                            x       y       z     vdW  Elec       q    Type
REMARK                         _______ _______ _______ _____ _____    ______ ____
ROOT
ATOM      1  C   UNL     1       3.456   5.192  19.008  0.00  0.00    +0.000 A 
ATOM      2  C   UNL     1       2.756   6.267  19.549  0.00  0.00    +0.000 A 
ATOM      3  C   UNL     1       2.623   7.464  18.862  0.00  0.00    +0.000 A 
ATOM      4  N   UNL     1       3.313   7.703  17.731  0.00  0.00    +0.000 NA
ATOM      5  C   UNL     1       4.116   6.733  17.258  0.00  0.00    +0.000 A 
ATOM      6  C   UNL     1       4.867   6.970  16.117  0.00  0.00    +0.000 A 
ATOM      7  N   UNL     1       5.717   6.096  15.520  0.00  0.00    +0.000 NA
ATOM      8  C   UNL     1       5.828   4.893  16.104  0.00  0.00    +0.000 A 
ATOM      9  C   UNL     1       5.124   4.529  17.242  0.00  0.00    +0.000 A 
ATOM     10  C   UNL     1       4.239   5.454  17.848  0.00  0.00    +0.000 A 
ENDROOT
BRANCH   3  11
ATOM     11  C   UNL     1       1.667   8.495  19.303  0.00  0.00    +0.000 A 
ATOM     12  C   UNL     1       1.224   8.569  20.622  0.00  0.00    +0.000 A 
ATOM     13  C   UNL     1       0.322   9.563  20.968  0.00  0.00    +0.000 A 
ATOM     14  N   UNL     1      -0.165  10.484  20.104  0.00  0.00    +0.000 NA
ATOM     15  C   UNL     1       0.273  10.424  18.841  0.00  0.00    +0.000 A 
ATOM     16  N   UNL     1      -0.191  11.402  17.962  0.00  0.00    +0.000 N 
ATOM     17  C   UNL     1       1.182   9.471  18.411  0.00  0.00    +0.000 A 
ATOM     18  H   UNL     1      -0.873  11.957  18.472  0.00  0.00    +0.000 HD
ATOM     19  H   UNL     1      -0.585  11.000  17.120  0.00  0.00    +0.000 HD
ENDBRANCH   3  11
BRANCH   1  20
ATOM     20  N   UNL     1       3.426   3.926  19.632  0.00  0.00    +0.000 N 
ATOM     21  H   UNL     1       4.351   3.509  19.658  0.00  0.00    +0.000 HD
BRANCH  20  23
ATOM     22  C   UNL     1       1.381   3.346  18.256  0.00  0.00    +0.000 C 
ATOM     23  C   UNL     1       2.389   2.895  19.330  0.00  0.00    +0.000 C 
ATOM     24  C   UNL     1       1.698   2.433  20.624  0.00  0.00    +0.000 C 
ATOM     25  C   UNL     1       3.111   1.660  18.744  0.00  0.00    +0.000 C 
ENDBRANCH  20  23
ENDBRANCH   1  20
TORSDOF 3
ENDMDL
MODEL 6
REMARK VINA RESULT:      -7.6      1.465      1.899
REMARK  Name = 
REMARK  6 active torsions:
REMARK  status: ('A' for Active; 'I' for Inactive)
REMARK    1  A    between atoms: C_1  and  C_2
REMARK    2  A    between atoms: C_2  and  C_3
REMARK    3  A    between atoms: C_2  and  C_4
REMARK    4  A    between atoms: C_2  and  N_5
REMARK    5  A    between atoms: N_5  and  C_6
REMARK    6  A    between atoms: C_8  and  C_9
REMARK                            x       y       z     vdW  Elec       q    Type
REMARK                         _______ _______ _______ _____ _____    ______ ____
ROOT
ATOM      1  C   UNL     1       4.049   5.181  18.625  0.00  0.00    +0.000 A 
ATOM      2  C   UNL     1       3.323   6.360  18.482  0.00  0.00    +0.000 A 
ATOM      3  C   UNL     1       2.394   6.760  19.431  0.00  0.00    +0.000 A 
ATOM      4  N   UNL     1       2.022   5.941  20.434  0.00  0.00    +0.000 NA
ATOM      5  C   UNL     1       2.601   4.730  20.517  0.00  0.00    +0.000 A 
ATOM      6  C   UNL     1       2.206   3.855  21.516  0.00  0.00    +0.000 A 
ATOM      7  N   UNL     1       2.694   2.607  21.730  0.00  0.00    +0.000 NA
ATOM      8  C   UNL     1       3.651   2.198  20.881  0.00  0.00    +0.000 A 
ATOM      9  C   UNL     1       4.140   2.981  19.847  0.00  0.00    +0.000 A 
ATOM     10  C   UNL     1       3.620   4.283  19.643  0.00  0.00    +0.000 A 
ENDROOT
BRANCH   3  11
ATOM     11  C   UNL     1       1.829   8.121  19.423  0.00  0.00    +0.000 A 
ATOM     12  C   UNL     1       1.847   8.915  18.278  0.00  0.00    +0.000 A 
ATOM     13  C   UNL     1       1.301  10.187  18.341  0.00  0.00    +0.000 A 
ATOM     14  N   UNL     1       0.740  10.722  19.450  0.00  0.00    +0.000 NA
ATOM     15  C   UNL     1       0.708   9.953  20.546  0.00  0.00    +0.000 A 
ATOM     16  N   UNL     1       0.087  10.484  21.675  0.00  0.00    +0.000 N 
ATOM     17  C   UNL     1       1.221   8.666  20.570  0.00  0.00    +0.000 A 
ATOM     18  H   UNL     1      -0.167  11.443  21.448  0.00  0.00    +0.000 HD
ATOM     19  H   UNL     1       0.681  10.436  22.494  0.00  0.00    +0.000 HD
ENDBRANCH   3  11
BRANCH   1  20
ATOM     20  N   UNL     1       5.117   4.883  17.753  0.00  0.00    +0.000 N 
ATOM     21  H   UNL     1       5.174   3.886  17.571  0.00  0.00    +0.000 HD
BRANCH  20  23
ATOM     22  C   UNL     1       6.950   5.539  19.371  0.00  0.00    +0.000 C 
ATOM     23  C   UNL     1       6.481   5.471  17.905  0.00  0.00    +0.000 C 
ATOM     24  C   UNL     1       6.558   6.837  17.202  0.00  0.00    +0.000 C 
ATOM     25  C   UNL     1       7.479   4.539  17.181  0.00  0.00    +0.000 C 
ENDBRANCH  20  23
ENDBRANCH   1  20
TORSDOF 3
ENDMDL
MODEL 7
REMARK VINA RESULT:      -7.5      1.458      3.642
REMARK  Name = 
REMARK  6 active torsions:
REMARK  status: ('A' for Active; 'I' for Inactive)
REMARK    1  A    between atoms: C_1  and  C_2
REMARK    2  A    between atoms: C_2  and  C_3
REMARK    3  A    between atoms: C_2  and  C_4
REMARK    4  A    between atoms: C_2  and  N_5
REMARK    5  A    between atoms: N_5  and  C_6
REMARK    6  A    between atoms: C_8  and  C_9
REMARK                            x       y       z     vdW  Elec       q    Type
REMARK                         _______ _______ _______ _____ _____    ______ ____
ROOT
ATOM      1  C   UNL     1       2.932   4.783  17.806  0.00  0.00    +0.000 A 
ATOM      2  C   UNL     1       2.356   5.800  18.563  0.00  0.00    +0.000 A 
ATOM      3  C   UNL     1       2.766   7.119  18.436  0.00  0.00    +0.000 A 
ATOM      4  N   UNL     1       3.856   7.447  17.717  0.00  0.00    +0.000 NA
ATOM      5  C   UNL     1       4.525   6.464  17.088  0.00  0.00    +0.000 A 
ATOM      6  C   UNL     1       5.672   6.771  16.374  0.00  0.00    +0.000 A 
ATOM      7  N   UNL     1       6.451   5.896  15.689  0.00  0.00    +0.000 NA
ATOM      8  C   UNL     1       6.057   4.613  15.718  0.00  0.00    +0.000 A 
ATOM      9  C   UNL     1       4.923   4.178  16.387  0.00  0.00    +0.000 A 
ATOM     10  C   UNL     1       4.121   5.108  17.093  0.00  0.00    +0.000 A 
ENDROOT
BRANCH   3  11
ATOM     11  C   UNL     1       1.986   8.222  19.025  0.00  0.00    +0.000 A 
ATOM     12  C   UNL     1       1.562   8.193  20.352  0.00  0.00    +0.000 A 
ATOM     13  C   UNL     1       0.829   9.263  20.841  0.00  0.00    +0.000 A 
ATOM     14  N   UNL     1       0.492  10.352  20.113  0.00  0.00    +0.000 NA
ATOM     15  C   UNL     1       0.914  10.389  18.842  0.00  0.00    +0.000 A 
ATOM     16  N   UNL     1       0.610  11.532  18.106  0.00  0.00    +0.000 N 
ATOM     17  C   UNL     1       1.660   9.368  18.275  0.00  0.00    +0.000 A 
ATOM     18  H   UNL     1       0.024  12.116  18.697  0.00  0.00    +0.000 HD
ATOM     19  H   UNL     1       0.156  11.309  17.228  0.00  0.00    +0.000 HD
ENDBRANCH   3  11
BRANCH   1  20
ATOM     20  N   UNL     1       2.381   3.484  17.808  0.00  0.00    +0.000 N 
ATOM     21  H   UNL     1       1.391   3.507  17.582  0.00  0.00    +0.000 HD
BRANCH  20  23
ATOM     22  C   UNL     1       3.282   3.110  20.144  0.00  0.00    +0.000 C 
ATOM     23  C   UNL     1       2.656   2.485  18.883  0.00  0.00    +0.000 C 
ATOM     24  C   UNL     1       3.493   1.319  18.330  0.00  0.00    +0.000 C 
ATOM     25  C   UNL     1       1.300   1.890  19.330  0.00  0.00    +0.000 C 
ENDBRANCH  20  23
ENDBRANCH   1  20
TORSDOF 3
ENDMDL
MODEL 8
REMARK VINA RESULT:      -7.4      1.338      1.351
REMARK  Name = 
REMARK  6 active torsions:
REMARK  status: ('A' for Active; 'I' for Inactive)
REMARK    1  A    between atoms: C_1  and  C_2
REMARK    2  A    between atoms: C_2  and  C_3
REMARK    3  A    between atoms: C_2  and  C_4
REMARK    4  A    between atoms: C_2  and  N_5
REMARK    5  A    between atoms: N_5  and  C_6
REMARK    6  A    between atoms: C_8  and  C_9
REMARK                            x       y       z     vdW  Elec       q    Type
REMARK                         _______ _______ _______ _____ _____    ______ ____
ROOT
ATOM      1  C   UNL     1       3.818   5.479  18.604  0.00  0.00    +0.000 A 
ATOM      2  C   UNL     1       3.075   6.655  18.674  0.00  0.00    +0.000 A 
ATOM      3  C   UNL     1       2.224   6.912  19.739  0.00  0.00    +0.000 A 
ATOM      4  N   UNL     1       1.940   5.965  20.653  0.00  0.00    +0.000 NA
ATOM      5  C   UNL     1       2.532   4.762  20.530  0.00  0.00    +0.000 A 
ATOM      6  C   UNL     1       2.225   3.759  21.435  0.00  0.00    +0.000 A 
ATOM      7  N   UNL     1       2.737   2.502  21.445  0.00  0.00    +0.000 NA
ATOM      8  C   UNL     1       3.623   2.222  20.476  0.00  0.00    +0.000 A 
ATOM      9  C   UNL     1       4.021   3.141  19.518  0.00  0.00    +0.000 A 
ATOM     10  C   UNL     1       3.479   4.449  19.527  0.00  0.00    +0.000 A 
ENDROOT
BRANCH   3  11
ATOM     11  C   UNL     1       1.652   8.253  19.953  0.00  0.00    +0.000 A 
ATOM     12  C   UNL     1       1.209   8.669  21.208  0.00  0.00    +0.000 A 
ATOM     13  C   UNL     1       0.678   9.942  21.338  0.00  0.00    +0.000 A 
ATOM     14  N   UNL     1       0.560  10.827  20.321  0.00  0.00    +0.000 NA
ATOM     15  C   UNL     1       1.002  10.434  19.120  0.00  0.00    +0.000 A 
ATOM     16  N   UNL     1       0.926  11.362  18.082  0.00  0.00    +0.000 N 
ATOM     17  C   UNL     1       1.556   9.183  18.901  0.00  0.00    +0.000 A 
ATOM     18  H   UNL     1       0.449  12.180  18.452  0.00  0.00    +0.000 HD
ATOM     19  H   UNL     1       0.453  10.986  17.269  0.00  0.00    +0.000 HD
ENDBRANCH   3  11
BRANCH   1  20
ATOM     20  N   UNL     1       4.813   5.315  17.618  0.00  0.00    +0.000 N 
ATOM     21  H   UNL     1       4.745   4.402  17.179  0.00  0.00    +0.000 HD
BRANCH  20  23
ATOM     22  C   UNL     1       6.685   5.579  19.302  0.00  0.00    +0.000 C 
ATOM     23  C   UNL     1       6.242   5.694  17.831  0.00  0.00    +0.000 C 
ATOM     24  C   UNL     1       6.520   7.088  17.243  0.00  0.00    +0.000 C 
ATOM     25  C   UNL     1       7.117   4.693  17.043  0.00  0.00    +0.000 C 
ENDBRANCH  20  23
ENDBRANCH   1  20
TORSDOF 3
ENDMDL
MODEL 9
REMARK VINA RESULT:      -7.2      1.032      1.944
REMARK  Name = 
REMARK  6 active torsions:
REMARK  status: ('A' for Active; 'I' for Inactive)
REMARK    1  A    between atoms: C_1  and  C_2
REMARK    2  A    between atoms: C_2  and  C_3
REMARK    3  A    between atoms: C_2  and  C_4
REMARK    4  A    between atoms: C_2  and  N_5
REMARK    5  A    between atoms: N_5  and  C_6
REMARK    6  A    between atoms: C_8  and  C_9
REMARK                            x       y       z     vdW  Elec       q    Type
REMARK                         _______ _______ _______ _____ _____    ______ ____
ROOT
ATOM      1  C   UNL     1       4.472   5.360  18.868  0.00  0.00    +0.000 A 
ATOM      2  C   UNL     1       3.785   6.560  19.028  0.00  0.00    +0.000 A 
ATOM      3  C   UNL     1       2.459   6.588  19.432  0.00  0.00    +0.000 A 
ATOM      4  N   UNL     1       1.727   5.460  19.509  0.00  0.00    +0.000 NA
ATOM      5  C   UNL     1       2.324   4.291  19.218  0.00  0.00    +0.000 A 
ATOM      6  C   UNL     1       1.582   3.121  19.251  0.00  0.00    +0.000 A 
ATOM      7  N   UNL     1       2.040   1.872  18.985  0.00  0.00    +0.000 NA
ATOM      8  C   UNL     1       3.338   1.779  18.659  0.00  0.00    +0.000 A 
ATOM      9  C   UNL     1       4.190   2.872  18.600  0.00  0.00    +0.000 A 
ATOM     10  C   UNL     1       3.694   4.168  18.885  0.00  0.00    +0.000 A 
ENDROOT
BRANCH   3  11
ATOM     11  C   UNL     1       1.816   7.843  19.862  0.00  0.00    +0.000 A 
ATOM     12  C   UNL     1       1.578   8.887  18.970  0.00  0.00    +0.000 A 
ATOM     13  C   UNL     1       0.972  10.041  19.441  0.00  0.00    +0.000 A 
ATOM     14  N   UNL     1       0.587  10.229  20.724  0.00  0.00    +0.000 NA
ATOM     15  C   UNL     1       0.799   9.220  21.578  0.00  0.00    +0.000 A 
ATOM     16  N   UNL     1       0.359   9.394  22.888  0.00  0.00    +0.000 N 
ATOM     17  C   UNL     1       1.389   8.028  21.191  0.00  0.00    +0.000 A 
ATOM     18  H   UNL     1       0.007  10.346  22.957  0.00  0.00    +0.000 HD
ATOM     19  H   UNL     1       1.091   9.213  23.564  0.00  0.00    +0.000 HD
ENDBRANCH   3  11
BRANCH   1  20
ATOM     20  N   UNL     1       5.864   5.353  18.640  0.00  0.00    +0.000 N 
ATOM     21  H   UNL     1       6.356   5.863  19.367  0.00  0.00    +0.000 HD
BRANCH  20  23
ATOM     22  C   UNL     1       5.425   5.905  16.208  0.00  0.00    +0.000 C 
ATOM     23  C   UNL     1       6.472   5.621  17.302  0.00  0.00    +0.000 C 
ATOM     24  C   UNL     1       7.433   4.485  16.912  0.00  0.00    +0.000 C 
ATOM     25  C   UNL     1       7.323   6.906  17.421  0.00  0.00    +0.000 C 
ENDBRANCH  20  23
ENDBRANCH   1  20
TORSDOF 3
ENDMDL
