MODEL 1
REMARK VINA RESULT:      -8.1      0.000      0.000
REMARK  Name = 
REMARK  5 active torsions:
REMARK  status: ('A' for Active; 'I' for Inactive)
REMARK    1  A    between atoms: C_2  and  C_11
REMARK    2  A    between atoms: N_3  and  C_4
REMARK    3  A    between atoms: C_7  and  O_8
REMARK    4  A    between atoms: C_14  and  O_15
REMARK    5  A    between atoms: C_18  and  C_19
REMARK                            x       y       z     vdW  Elec       q    Type
REMARK                         _______ _______ _______ _____ _____    ______ ____
ROOT
ATOM      1  C   UNL     1       1.956   5.321  19.739  0.00  0.00    +0.000 A 
ATOM      2  C   UNL     1       1.081   4.482  20.458  0.00  0.00    +0.000 A 
ATOM      3  C   UNL     1       1.027   3.106  20.206  0.00  0.00    +0.000 A 
ATOM      4  C   UNL     1       1.848   2.530  19.238  0.00  0.00    +0.000 A 
ATOM      5  C   UNL     1       2.709   3.370  18.538  0.00  0.00    +0.000 A 
ATOM      6  N   UNL     1       3.633   3.126  17.555  0.00  0.00    +0.000 N 
ATOM      7  C   UNL     1       4.232   4.313  17.220  0.00  0.00    +0.000 A 
ATOM      8  N   UNL     1       3.723   5.310  17.917  0.00  0.00    +0.000 NA
ATOM      9  C   UNL     1       2.783   4.739  18.758  0.00  0.00    +0.000 A 
ATOM     10  H   UNL     1       3.848   2.222  17.162  0.00  0.00    +0.000 HD
ENDROOT
BRANCH   7  11
ATOM     11  C   UNL     1       5.285   4.453  16.257  0.00  0.00    +0.000 A 
ATOM     12  C   UNL     1       5.167   4.308  14.887  0.00  0.00    +0.000 A 
ATOM     13  C   UNL     1       6.398   4.531  14.204  0.00  0.00    +0.000 A 
ATOM     14  C   UNL     1       7.419   4.839  15.076  0.00  0.00    +0.000 A 
ATOM     15  S   UNL     1       6.891   4.850  16.702  0.00  0.00    +0.000 S 
ENDBRANCH   7  11
BRANCH   1  17
ATOM     16  O   UNL     1       2.840   7.490  19.498  0.00  0.00    +0.000 OA
ATOM     17  C   UNL     1       1.994   6.776  20.031  0.00  0.00    +0.000 C 
ATOM     18  N   UNL     1       1.052   7.248  20.910  0.00  0.00    +0.000 N 
ATOM     19  H   UNL     1       0.444   6.557  21.357  0.00  0.00    +0.000 HD
BRANCH  18  20
ATOM     20  C   UNL     1       1.000   8.622  21.378  0.00  0.00    +0.000 C 
ATOM     21  C   UNL     1       0.730   9.545  20.181  0.00  0.00    +0.000 C 
ATOM     22  C   UNL     1       0.425  10.979  20.588  0.00  0.00    +0.000 C 
ATOM     23  C   UNL     1      -0.699  11.027  21.619  0.00  0.00    +0.000 C 
ATOM     24  C   UNL     1      -0.316  10.224  22.859  0.00  0.00    +0.000 C 
ATOM     25  C   UNL     1      -0.038   8.768  22.501  0.00  0.00    +0.000 C 
BRANCH  23  26
ATOM     26  O   UNL     1      -0.967  12.376  21.976  0.00  0.00    +0.000 OA
ATOM     27  H   UNL     1      -0.137  12.782  22.270  0.00  0.00    +0.000 HD
ENDBRANCH  23  26
ENDBRANCH  18  20
ENDBRANCH   1  17
BRANCH   4  28
ATOM     28  O   UNL     1       1.832   1.193  18.971  0.00  0.00    +0.000 OA
ATOM     29  H   UNL     1       2.423   1.023  18.218  0.00  0.00    +0.000 HD
ENDBRANCH   4  28
TORSDOF 5
ENDMDL
MODEL 2
REMARK VINA RESULT:      -7.8      1.526      1.793
REMARK  Name = 
REMARK  5 active torsions:
REMARK  status: ('A' for Active; 'I' for Inactive)
REMARK    1  A    between atoms: C_2  and  C_11
REMARK    2  A    between atoms: N_3  and  C_4
REMARK    3  A    between atoms: C_7  and  O_8
REMARK    4  A    between atoms: C_14  and  O_15
REMARK    5  A    between atoms: C_18  and  C_19
REMARK                            x       y       z     vdW  Elec       q    Type
REMARK                         _______ _______ _______ _____ _____    ______ ____
ROOT
ATOM      1  C   UNL     1       2.362   6.631  19.432  0.00  0.00    +0.000 A 
ATOM      2  C   UNL     1       1.792   6.112  20.612  0.00  0.00    +0.000 A 
ATOM      3  C   UNL     1       2.043   4.797  21.019  0.00  0.00    +0.000 A 
ATOM      4  C   UNL     1       2.873   3.968  20.264  0.00  0.00    +0.000 A 
ATOM      5  C   UNL     1       3.430   4.495  19.104  0.00  0.00    +0.000 A 
ATOM      6  N   UNL     1       4.277   3.962  18.167  0.00  0.00    +0.000 N 
ATOM      7  C   UNL     1       4.537   4.920  17.222  0.00  0.00    +0.000 A 
ATOM      8  N   UNL     1       3.879   6.032  17.488  0.00  0.00    +0.000 NA
ATOM      9  C   UNL     1       3.196   5.792  18.668  0.00  0.00    +0.000 A 
ATOM     10  H   UNL     1       4.661   3.029  18.185  0.00  0.00    +0.000 HD
ENDROOT
BRANCH   7  11
ATOM     11  C   UNL     1       5.420   4.749  16.106  0.00  0.00    +0.000 A 
ATOM     12  C   UNL     1       5.123   4.106  14.918  0.00  0.00    +0.000 A 
ATOM     13  C   UNL     1       6.211   4.124  13.998  0.00  0.00    +0.000 A 
ATOM     14  C   UNL     1       7.307   4.778  14.514  0.00  0.00    +0.000 A 
ATOM     15  S   UNL     1       7.020   5.360  16.096  0.00  0.00    +0.000 S 
ENDBRANCH   7  11
BRANCH   1  17
ATOM     16  O   UNL     1       2.642   8.516  18.048  0.00  0.00    +0.000 OA
ATOM     17  C   UNL     1       2.080   8.032  19.027  0.00  0.00    +0.000 C 
ATOM     18  N   UNL     1       1.181   8.722  19.802  0.00  0.00    +0.000 N 
ATOM     19  H   UNL     1       0.830   8.252  20.640  0.00  0.00    +0.000 HD
BRANCH  18  20
ATOM     20  C   UNL     1       0.858  10.125  19.606  0.00  0.00    +0.000 C 
ATOM     21  C   UNL     1      -0.264  10.237  18.565  0.00  0.00    +0.000 C 
ATOM     22  C   UNL     1      -0.842  11.641  18.455  0.00  0.00    +0.000 C 
ATOM     23  C   UNL     1      -1.269  12.164  19.822  0.00  0.00    +0.000 C 
ATOM     24  C   UNL     1      -0.079  12.184  20.778  0.00  0.00    +0.000 C 
ATOM     25  C   UNL     1       0.507  10.787  20.948  0.00  0.00    +0.000 C 
BRANCH  23  26
ATOM     26  O   UNL     1      -1.808  13.473  19.690  0.00  0.00    +0.000 OA
ATOM     27  H   UNL     1      -1.086  14.075  19.451  0.00  0.00    +0.000 HD
ENDBRANCH  23  26
ENDBRANCH  18  20
ENDBRANCH   1  17
BRANCH   4  28
ATOM     28  O   UNL     1       3.150   2.685  20.633  0.00  0.00    +0.000 OA
ATOM     29  H   UNL     1       3.474   2.204  19.853  0.00  0.00    +0.000 HD
ENDBRANCH   4  28
TORSDOF 5
ENDMDL
MODEL 3
REMARK VINA RESULT:      -7.8      1.421      1.754
REMARK  Name = 
REMARK  5 active torsions:
REMARK  status: ('A' for Active; 'I' for Inactive)
REMARK    1  A    between atoms: C_2  and  C_11
REMARK    2  A    between atoms: N_3  and  C_4
REMARK    3  A    between atoms: C_7  and  O_8
REMARK    4  A    between atoms: C_14  and  O_15
REMARK    5  A    between atoms: C_18  and  C_19
REMARK                            x       y       z     vdW  Elec       q    Type
REMARK                         _______ _______ _______ _____ _____    ______ ____
ROOT
ATOM      1  C   UNL     1       1.921   5.268  19.866  0.00  0.00    +0.000 A 
ATOM      2  C   UNL     1       1.045   4.402  20.549  0.00  0.00    +0.000 A 
ATOM      3  C   UNL     1       1.007   3.033  20.260  0.00  0.00    +0.000 A 
ATOM      4  C   UNL     1       1.847   2.491  19.288  0.00  0.00    +0.000 A 
ATOM      5  C   UNL     1       2.709   3.357  18.623  0.00  0.00    +0.000 A 
ATOM      6  N   UNL     1       3.648   3.149  17.646  0.00  0.00    +0.000 N 
ATOM      7  C   UNL     1       4.240   4.350  17.351  0.00  0.00    +0.000 A 
ATOM      8  N   UNL     1       3.712   5.323  18.068  0.00  0.00    +0.000 NA
ATOM      9  C   UNL     1       2.767   4.721  18.880  0.00  0.00    +0.000 A 
ATOM     10  H   UNL     1       3.877   2.258  17.232  0.00  0.00    +0.000 HD
ENDROOT
BRANCH   7  11
ATOM     11  C   UNL     1       5.304   4.526  16.407  0.00  0.00    +0.000 A 
ATOM     12  C   UNL     1       5.200   4.447  15.030  0.00  0.00    +0.000 A 
ATOM     13  C   UNL     1       6.439   4.692  14.371  0.00  0.00    +0.000 A 
ATOM     14  C   UNL     1       7.453   4.948  15.267  0.00  0.00    +0.000 A 
ATOM     15  S   UNL     1       6.909   4.888  16.886  0.00  0.00    +0.000 S 
ENDBRANCH   7  11
BRANCH   1  17
ATOM     16  O   UNL     1       1.906   7.081  21.369  0.00  0.00    +0.000 OA
ATOM     17  C   UNL     1       1.941   6.715  20.197  0.00  0.00    +0.000 C 
ATOM     18  N   UNL     1       1.994   7.584  19.135  0.00  0.00    +0.000 N 
ATOM     19  H   UNL     1       1.940   7.178  18.197  0.00  0.00    +0.000 HD
BRANCH  18  20
ATOM     20  C   UNL     1       1.928   9.029  19.270  0.00  0.00    +0.000 C 
ATOM     21  C   UNL     1       2.208   9.669  17.903  0.00  0.00    +0.000 C 
ATOM     22  C   UNL     1       1.935  11.167  17.877  0.00  0.00    +0.000 C 
ATOM     23  C   UNL     1       0.529  11.474  18.381  0.00  0.00    +0.000 C 
ATOM     24  C   UNL     1       0.352  10.957  19.806  0.00  0.00    +0.000 C 
ATOM     25  C   UNL     1       0.578   9.450  19.871  0.00  0.00    +0.000 C 
BRANCH  23  26
ATOM     26  O   UNL     1       0.300  12.876  18.341  0.00  0.00    +0.000 OA
ATOM     27  H   UNL     1       1.120  13.309  18.058  0.00  0.00    +0.000 HD
ENDBRANCH  23  26
ENDBRANCH  18  20
ENDBRANCH   1  17
BRANCH   4  28
ATOM     28  O   UNL     1       1.848   1.162  18.985  0.00  0.00    +0.000 OA
ATOM     29  H   UNL     1       2.726   0.925  18.642  0.00  0.00    +0.000 HD
ENDBRANCH   4  28
TORSDOF 5
ENDMDL
MODEL 4
REMARK VINA RESULT:      -7.7      3.638      8.335
REMARK  Name = 
REMARK  5 active torsions:
REMARK  status: ('A' for Active; 'I' for Inactive)
REMARK    1  A    between atoms: C_2  and  C_11
REMARK    2  A    between atoms: N_3  and  C_4
REMARK    3  A    between atoms: C_7  and  O_8
REMARK    4  A    between atoms: C_14  and  O_15
REMARK    5  A    between atoms: C_18  and  C_19
REMARK                            x       y       z     vdW  Elec       q    Type
REMARK                         _______ _______ _______ _____ _____    ______ ____
ROOT
ATOM      1  C   UNL     1       1.155   8.724  20.735  0.00  0.00    +0.000 A 
ATOM      2  C   UNL     1       1.486   8.875  22.096  0.00  0.00    +0.000 A 
ATOM      3  C   UNL     1       0.785   9.765  22.918  0.00  0.00    +0.000 A 
ATOM      4  C   UNL     1      -0.269  10.521  22.405  0.00  0.00    +0.000 A 
ATOM      5  C   UNL     1      -0.586  10.360  21.060  0.00  0.00    +0.000 A 
ATOM      6  N   UNL     1      -1.549  10.929  20.269  0.00  0.00    +0.000 N 
ATOM      7  C   UNL     1      -1.441  10.403  19.007  0.00  0.00    +0.000 A 
ATOM      8  N   UNL     1      -0.441   9.545  18.941  0.00  0.00    +0.000 NA
ATOM      9  C   UNL     1       0.094   9.491  20.216  0.00  0.00    +0.000 A 
ATOM     10  H   UNL     1      -2.235  11.605  20.571  0.00  0.00    +0.000 HD
ENDROOT
BRANCH   7  11
ATOM     11  C   UNL     1      -2.308  10.722  17.911  0.00  0.00    +0.000 A 
ATOM     12  C   UNL     1      -2.079  10.441  16.577  0.00  0.00    +0.000 A 
ATOM     13  C   UNL     1      -3.145  10.871  15.735  0.00  0.00    +0.000 A 
ATOM     14  C   UNL     1      -4.155  11.472  16.454  0.00  0.00    +0.000 A 
ATOM     15  S   UNL     1      -3.811  11.516  18.128  0.00  0.00    +0.000 S 
ENDBRANCH   7  11
BRANCH   1  17
ATOM     16  O   UNL     1       2.418   8.146  18.832  0.00  0.00    +0.000 OA
ATOM     17  C   UNL     1       1.916   7.769  19.889  0.00  0.00    +0.000 C 
ATOM     18  N   UNL     1       2.010   6.482  20.354  0.00  0.00    +0.000 N 
ATOM     19  H   UNL     1       1.490   6.254  21.205  0.00  0.00    +0.000 HD
BRANCH  18  20
ATOM     20  C   UNL     1       2.636   5.399  19.614  0.00  0.00    +0.000 C 
ATOM     21  C   UNL     1       2.733   4.166  20.523  0.00  0.00    +0.000 C 
ATOM     22  C   UNL     1       3.158   2.907  19.780  0.00  0.00    +0.000 C 
ATOM     23  C   UNL     1       2.267   2.662  18.567  0.00  0.00    +0.000 C 
ATOM     24  C   UNL     1       2.329   3.852  17.614  0.00  0.00    +0.000 C 
ATOM     25  C   UNL     1       1.873   5.131  18.308  0.00  0.00    +0.000 C 
BRANCH  23  26
ATOM     26  O   UNL     1       2.682   1.479  17.896  0.00  0.00    +0.000 OA
ATOM     27  H   UNL     1       2.706   1.663  16.945  0.00  0.00    +0.000 HD
ENDBRANCH  23  26
ENDBRANCH  18  20
ENDBRANCH   1  17
BRANCH   4  28
ATOM     28  O   UNL     1      -0.983  11.390  23.175  0.00  0.00    +0.000 OA
ATOM     29  H   UNL     1      -1.209  12.166  22.635  0.00  0.00    +0.000 HD
ENDBRANCH   4  28
TORSDOF 5
ENDMDL
MODEL 5
REMARK VINA RESULT:      -7.5      3.659      8.475
REMARK  Name = 
REMARK  5 active torsions:
REMARK  status: ('A' for Active; 'I' for Inactive)
REMARK    1  A    between atoms: C_2  and  C_11
REMARK    2  A    between atoms: N_3  and  C_4
REMARK    3  A    between atoms: C_7  and  O_8
REMARK    4  A    between atoms: C_14  and  O_15
REMARK    5  A    between atoms: C_18  and  C_19
REMARK                            x       y       z     vdW  Elec       q    Type
REMARK                         _______ _______ _______ _____ _____    ______ ____
ROOT
ATOM      1  C   UNL     1       1.027   9.065  20.390  0.00  0.00    +0.000 A 
ATOM      2  C   UNL     1       0.327   8.389  21.409  0.00  0.00    +0.000 A 
ATOM      3  C   UNL     1      -0.359   9.093  22.406  0.00  0.00    +0.000 A 
ATOM      4  C   UNL     1      -0.370  10.487  22.408  0.00  0.00    +0.000 A 
ATOM      5  C   UNL     1       0.324  11.141  21.395  0.00  0.00    +0.000 A 
ATOM      6  N   UNL     1       0.497  12.470  21.110  0.00  0.00    +0.000 N 
ATOM      7  C   UNL     1       1.260  12.575  19.976  0.00  0.00    +0.000 A 
ATOM      8  N   UNL     1       1.609  11.382  19.533  0.00  0.00    +0.000 NA
ATOM      9  C   UNL     1       1.019  10.474  20.395  0.00  0.00    +0.000 A 
ATOM     10  H   UNL     1       0.109  13.239  21.635  0.00  0.00    +0.000 HD
ENDROOT
BRANCH   7  11
ATOM     11  C   UNL     1       1.616  13.810  19.341  0.00  0.00    +0.000 A 
ATOM     12  C   UNL     1       2.784  14.068  18.647  0.00  0.00    +0.000 A 
ATOM     13  C   UNL     1       2.826  15.390  18.117  0.00  0.00    +0.000 A 
ATOM     14  C   UNL     1       1.689  16.102  18.425  0.00  0.00    +0.000 A 
ATOM     15  S   UNL     1       0.586  15.179  19.350  0.00  0.00    +0.000 S 
ENDBRANCH   7  11
BRANCH   1  17
ATOM     16  O   UNL     1       1.780   8.705  18.187  0.00  0.00    +0.000 OA
ATOM     17  C   UNL     1       1.743   8.292  19.344  0.00  0.00    +0.000 C 
ATOM     18  N   UNL     1       2.334   7.121  19.747  0.00  0.00    +0.000 N 
ATOM     19  H   UNL     1       2.177   6.828  20.715  0.00  0.00    +0.000 HD
BRANCH  18  20
ATOM     20  C   UNL     1       2.995   6.196  18.842  0.00  0.00    +0.000 C 
ATOM     21  C   UNL     1       4.171   5.538  19.576  0.00  0.00    +0.000 C 
ATOM     22  C   UNL     1       4.790   4.383  18.800  0.00  0.00    +0.000 C 
ATOM     23  C   UNL     1       3.726   3.370  18.389  0.00  0.00    +0.000 C 
ATOM     24  C   UNL     1       2.660   4.041  17.526  0.00  0.00    +0.000 C 
ATOM     25  C   UNL     1       1.987   5.182  18.281  0.00  0.00    +0.000 C 
BRANCH  23  26
ATOM     26  O   UNL     1       4.330   2.302  17.672  0.00  0.00    +0.000 OA
ATOM     27  H   UNL     1       4.139   1.475  18.143  0.00  0.00    +0.000 HD
ENDBRANCH  23  26
ENDBRANCH  18  20
ENDBRANCH   1  17
BRANCH   4  28
ATOM     28  O   UNL     1      -1.035  11.208  23.356  0.00  0.00    +0.000 OA
ATOM     29  H   UNL     1      -0.724  10.926  24.232  0.00  0.00    +0.000 HD
ENDBRANCH   4  28
TORSDOF 5
ENDMDL
MODEL 6
REMARK VINA RESULT:      -7.5      1.648      1.984
REMARK  Name = 
REMARK  5 active torsions:
REMARK  status: ('A' for Active; 'I' for Inactive)
REMARK    1  A    between atoms: C_2  and  C_11
REMARK    2  A    between atoms: N_3  and  C_4
REMARK    3  A    between atoms: C_7  and  O_8
REMARK    4  A    between atoms: C_14  and  O_15
REMARK    5  A    between atoms: C_18  and  C_19
REMARK                            x       y       z     vdW  Elec       q    Type
REMARK                         _______ _______ _______ _____ _____    ______ ____
ROOT
ATOM      1  C   UNL     1       3.349   5.588  18.726  0.00  0.00    +0.000 A 
ATOM      2  C   UNL     1       2.990   4.899  19.901  0.00  0.00    +0.000 A 
ATOM      3  C   UNL     1       3.330   3.554  20.085  0.00  0.00    +0.000 A 
ATOM      4  C   UNL     1       4.044   2.864  19.106  0.00  0.00    +0.000 A 
ATOM      5  C   UNL     1       4.394   3.557  17.952  0.00  0.00    +0.000 A 
ATOM      6  N   UNL     1       5.089   3.184  16.831  0.00  0.00    +0.000 N 
ATOM      7  C   UNL     1       5.172   4.266  15.993  0.00  0.00    +0.000 A 
ATOM      8  N   UNL     1       4.543   5.306  16.504  0.00  0.00    +0.000 NA
ATOM      9  C   UNL     1       4.066   4.889  17.735  0.00  0.00    +0.000 A 
ATOM     10  H   UNL     1       5.489   2.273  16.664  0.00  0.00    +0.000 HD
ENDROOT
BRANCH   7  11
ATOM     11  C   UNL     1       5.865   4.275  14.738  0.00  0.00    +0.000 A 
ATOM     12  C   UNL     1       5.486   3.609  13.587  0.00  0.00    +0.000 A 
ATOM     13  C   UNL     1       6.379   3.838  12.501  0.00  0.00    +0.000 A 
ATOM     14  C   UNL     1       7.415   4.672  12.857  0.00  0.00    +0.000 A 
ATOM     15  S   UNL     1       7.308   5.166  14.490  0.00  0.00    +0.000 S 
ENDBRANCH   7  11
BRANCH   1  17
ATOM     16  O   UNL     1       3.520   7.699  17.696  0.00  0.00    +0.000 OA
ATOM     17  C   UNL     1       2.977   7.016  18.561  0.00  0.00    +0.000 C 
ATOM     18  N   UNL     1       2.019   7.500  19.417  0.00  0.00    +0.000 N 
ATOM     19  H   UNL     1       1.688   6.870  20.151  0.00  0.00    +0.000 HD
BRANCH  18  20
ATOM     20  C   UNL     1       1.602   8.891  19.457  0.00  0.00    +0.000 C 
ATOM     21  C   UNL     1       0.691   9.172  18.253  0.00  0.00    +0.000 C 
ATOM     22  C   UNL     1       0.010  10.532  18.323  0.00  0.00    +0.000 C 
ATOM     23  C   UNL     1      -0.718  10.710  19.652  0.00  0.00    +0.000 C 
ATOM     24  C   UNL     1       0.261  10.579  20.814  0.00  0.00    +0.000 C 
ATOM     25  C   UNL     1       0.940   9.214  20.805  0.00  0.00    +0.000 C 
BRANCH  23  26
ATOM     26  O   UNL     1      -1.349  11.983  19.687  0.00  0.00    +0.000 OA
ATOM     27  H   UNL     1      -0.762  12.599  20.152  0.00  0.00    +0.000 HD
ENDBRANCH  23  26
ENDBRANCH  18  20
ENDBRANCH   1  17
BRANCH   4  28
ATOM     28  O   UNL     1       4.403   1.556  19.252  0.00  0.00    +0.000 OA
ATOM     29  H   UNL     1       4.736   1.428  20.157  0.00  0.00    +0.000 HD
ENDBRANCH   4  28
TORSDOF 5
ENDMDL
MODEL 7
REMARK VINA RESULT:      -7.5      4.079      8.627
REMARK  Name = 
REMARK  5 active torsions:
REMARK  status: ('A' for Active; 'I' for Inactive)
REMARK    1  A    between atoms: C_2  and  C_11
REMARK    2  A    between atoms: N_3  and  C_4
REMARK    3  A    between atoms: C_7  and  O_8
REMARK    4  A    between atoms: C_14  and  O_15
REMARK    5  A    between atoms: C_18  and  C_19
REMARK                            x       y       z     vdW  Elec       q    Type
REMARK                         _______ _______ _______ _____ _____    ______ ____
ROOT
ATOM      1  C   UNL     1       1.082   9.616  19.721  0.00  0.00    +0.000 A 
ATOM      2  C   UNL     1       0.396   8.963  20.765  0.00  0.00    +0.000 A 
ATOM      3  C   UNL     1      -0.132   9.681  21.845  0.00  0.00    +0.000 A 
ATOM      4  C   UNL     1       0.005  11.067  21.908  0.00  0.00    +0.000 A 
ATOM      5  C   UNL     1       0.682  11.698  20.869  0.00  0.00    +0.000 A 
ATOM      6  N   UNL     1       0.971  13.016  20.627  0.00  0.00    +0.000 N 
ATOM      7  C   UNL     1       1.650  13.100  19.439  0.00  0.00    +0.000 A 
ATOM      8  N   UNL     1       1.836  11.903  18.919  0.00  0.00    +0.000 NA
ATOM      9  C   UNL     1       1.223  11.016  19.787  0.00  0.00    +0.000 A 
ATOM     10  H   UNL     1       0.709  13.793  21.216  0.00  0.00    +0.000 HD
ENDROOT
BRANCH   7  11
ATOM     11  C   UNL     1       2.084  14.323  18.831  0.00  0.00    +0.000 A 
ATOM     12  C   UNL     1       3.207  14.494  18.043  0.00  0.00    +0.000 A 
ATOM     13  C   UNL     1       3.349  15.831  17.571  0.00  0.00    +0.000 A 
ATOM     14  C   UNL     1       2.329  16.642  18.016  0.00  0.00    +0.000 A 
ATOM     15  S   UNL     1       1.217  15.792  18.997  0.00  0.00    +0.000 S 
ENDBRANCH   7  11
BRANCH   1  17
ATOM     16  O   UNL     1       1.537   9.255  17.439  0.00  0.00    +0.000 OA
ATOM     17  C   UNL     1       1.628   8.828  18.587  0.00  0.00    +0.000 C 
ATOM     18  N   UNL     1       2.216   7.629  18.904  0.00  0.00    +0.000 N 
ATOM     19  H   UNL     1       2.170   7.330  19.881  0.00  0.00    +0.000 HD
BRANCH  18  20
ATOM     20  C   UNL     1       2.720   6.690  17.915  0.00  0.00    +0.000 C 
ATOM     21  C   UNL     1       4.201   6.993  17.651  0.00  0.00    +0.000 C 
ATOM     22  C   UNL     1       4.889   5.928  16.809  0.00  0.00    +0.000 C 
ATOM     23  C   UNL     1       4.680   4.541  17.408  0.00  0.00    +0.000 C 
ATOM     24  C   UNL     1       3.191   4.222  17.502  0.00  0.00    +0.000 C 
ATOM     25  C   UNL     1       2.469   5.245  18.371  0.00  0.00    +0.000 C 
BRANCH  23  26
ATOM     26  O   UNL     1       5.337   3.567  16.606  0.00  0.00    +0.000 OA
ATOM     27  H   UNL     1       5.470   3.943  15.722  0.00  0.00    +0.000 HD
ENDBRANCH  23  26
ENDBRANCH  18  20
ENDBRANCH   1  17
BRANCH   4  28
ATOM     28  O   UNL     1      -0.504  11.803  22.937  0.00  0.00    +0.000 OA
ATOM     29  H   UNL     1      -0.597  11.224  23.712  0.00  0.00    +0.000 HD
ENDBRANCH   4  28
TORSDOF 5
ENDMDL
MODEL 8
REMARK VINA RESULT:      -7.4      4.252      8.754
REMARK  Name = 
REMARK  5 active torsions:
REMARK  status: ('A' for Active; 'I' for Inactive)
REMARK    1  A    between atoms: C_2  and  C_11
REMARK    2  A    between atoms: N_3  and  C_4
REMARK    3  A    between atoms: C_7  and  O_8
REMARK    4  A    between atoms: C_14  and  O_15
REMARK    5  A    between atoms: C_18  and  C_19
REMARK                            x       y       z     vdW  Elec       q    Type
REMARK                         _______ _______ _______ _____ _____    ______ ____
ROOT
ATOM      1  C   UNL     1      -0.429  11.115  21.465  0.00  0.00    +0.000 A 
ATOM      2  C   UNL     1      -0.612  11.895  22.624  0.00  0.00    +0.000 A 
ATOM      3  C   UNL     1      -1.622  12.862  22.695  0.00  0.00    +0.000 A 
ATOM      4  C   UNL     1      -2.479  13.070  21.615  0.00  0.00    +0.000 A 
ATOM      5  C   UNL     1      -2.288  12.292  20.478  0.00  0.00    +0.000 A 
ATOM      6  N   UNL     1      -2.948  12.240  19.278  0.00  0.00    +0.000 N 
ATOM      7  C   UNL     1      -2.362  11.273  18.502  0.00  0.00    +0.000 A 
ATOM      8  N   UNL     1      -1.344  10.720  19.131  0.00  0.00    +0.000 NA
ATOM      9  C   UNL     1      -1.292  11.330  20.372  0.00  0.00    +0.000 A 
ATOM     10  H   UNL     1      -3.744  12.805  19.020  0.00  0.00    +0.000 HD
ENDROOT
BRANCH   7  11
ATOM     11  C   UNL     1      -2.807  10.896  17.193  0.00  0.00    +0.000 A 
ATOM     12  C   UNL     1      -2.139  10.072  16.306  0.00  0.00    +0.000 A 
ATOM     13  C   UNL     1      -2.857   9.876  15.091  0.00  0.00    +0.000 A 
ATOM     14  C   UNL     1      -4.053  10.558  15.088  0.00  0.00    +0.000 A 
ATOM     15  S   UNL     1      -4.298  11.430  16.538  0.00  0.00    +0.000 S 
ENDBRANCH   7  11
BRANCH   1  17
ATOM     16  O   UNL     1       1.423   9.974  22.368  0.00  0.00    +0.000 OA
ATOM     17  C   UNL     1       0.650  10.095  21.421  0.00  0.00    +0.000 C 
ATOM     18  N   UNL     1       0.719   9.329  20.284  0.00  0.00    +0.000 N 
ATOM     19  H   UNL     1       0.077   9.564  19.523  0.00  0.00    +0.000 HD
BRANCH  18  20
ATOM     20  C   UNL     1       1.763   8.350  20.033  0.00  0.00    +0.000 C 
ATOM     21  C   UNL     1       1.336   7.003  20.633  0.00  0.00    +0.000 C 
ATOM     22  C   UNL     1       2.246   5.852  20.227  0.00  0.00    +0.000 C 
ATOM     23  C   UNL     1       2.400   5.787  18.711  0.00  0.00    +0.000 C 
ATOM     24  C   UNL     1       2.978   7.095  18.179  0.00  0.00    +0.000 C 
ATOM     25  C   UNL     1       2.076   8.273  18.531  0.00  0.00    +0.000 C 
BRANCH  23  26
ATOM     26  O   UNL     1       3.248   4.701  18.360  0.00  0.00    +0.000 OA
ATOM     27  H   UNL     1       4.105   4.834  18.795  0.00  0.00    +0.000 HD
ENDBRANCH  23  26
ENDBRANCH  18  20
ENDBRANCH   1  17
BRANCH   4  28
ATOM     28  O   UNL     1      -3.481  13.995  21.649  0.00  0.00    +0.000 OA
ATOM     29  H   UNL     1      -3.885  13.978  22.533  0.00  0.00    +0.000 HD
ENDBRANCH   4  28
TORSDOF 5
ENDMDL
MODEL 9
REMARK VINA RESULT:      -7.3      3.226      7.498
REMARK  Name = 
REMARK  5 active torsions:
REMARK  status: ('A' for Active; 'I' for Inactive)
REMARK    1  A    between atoms: C_2  and  C_11
REMARK    2  A    between atoms: N_3  and  C_4
REMARK    3  A    between atoms: C_7  and  O_8
REMARK    4  A    between atoms: C_14  and  O_15
REMARK    5  A    between atoms: C_18  and  C_19
REMARK                            x       y       z     vdW  Elec       q    Type
REMARK                         _______ _______ _______ _____ _____    ______ ____
ROOT
ATOM      1  C   UNL     1       4.318   3.737  19.301  0.00  0.00    +0.000 A 
ATOM      2  C   UNL     1       4.081   2.489  19.910  0.00  0.00    +0.000 A 
ATOM      3  C   UNL     1       2.985   2.293  20.758  0.00  0.00    +0.000 A 
ATOM      4  C   UNL     1       2.093   3.334  21.015  0.00  0.00    +0.000 A 
ATOM      5  C   UNL     1       2.338   4.560  20.405  0.00  0.00    +0.000 A 
ATOM      6  N   UNL     1       1.666   5.754  20.437  0.00  0.00    +0.000 N 
ATOM      7  C   UNL     1       2.328   6.647  19.635  0.00  0.00    +0.000 A 
ATOM      8  N   UNL     1       3.405   6.097  19.110  0.00  0.00    +0.000 NA
ATOM      9  C   UNL     1       3.420   4.790  19.564  0.00  0.00    +0.000 A 
ATOM     10  H   UNL     1       0.815   5.935  20.949  0.00  0.00    +0.000 HD
ENDROOT
BRANCH   7  11
ATOM     11  C   UNL     1       1.898   7.991  19.381  0.00  0.00    +0.000 A 
ATOM     12  C   UNL     1       2.059   8.693  18.200  0.00  0.00    +0.000 A 
ATOM     13  C   UNL     1       1.503  10.004  18.262  0.00  0.00    +0.000 A 
ATOM     14  C   UNL     1       0.936  10.263  19.490  0.00  0.00    +0.000 A 
ATOM     15  S   UNL     1       1.082   8.934  20.556  0.00  0.00    +0.000 S 
ENDBRANCH   7  11
BRANCH   1  17
ATOM     16  O   UNL     1       6.551   4.337  18.852  0.00  0.00    +0.000 OA
ATOM     17  C   UNL     1       5.488   3.914  18.404  0.00  0.00    +0.000 C 
ATOM     18  N   UNL     1       5.301   3.586  17.085  0.00  0.00    +0.000 N 
ATOM     19  H   UNL     1       4.355   3.318  16.800  0.00  0.00    +0.000 HD
BRANCH  18  20
ATOM     20  C   UNL     1       6.306   3.782  16.053  0.00  0.00    +0.000 C 
ATOM     21  C   UNL     1       5.672   3.504  14.683  0.00  0.00    +0.000 C 
ATOM     22  C   UNL     1       6.567   3.904  13.518  0.00  0.00    +0.000 C 
ATOM     23  C   UNL     1       7.031   5.350  13.658  0.00  0.00    +0.000 C 
ATOM     24  C   UNL     1       7.795   5.538  14.965  0.00  0.00    +0.000 C 
ATOM     25  C   UNL     1       6.921   5.185  16.163  0.00  0.00    +0.000 C 
BRANCH  23  26
ATOM     26  O   UNL     1       7.859   5.698  12.556  0.00  0.00    +0.000 OA
ATOM     27  H   UNL     1       8.648   5.135  12.581  0.00  0.00    +0.000 HD
ENDBRANCH  23  26
ENDBRANCH  18  20
ENDBRANCH   1  17
BRANCH   4  28
ATOM     28  O   UNL     1       1.008   3.181  21.826  0.00  0.00    +0.000 OA
ATOM     29  H   UNL     1       0.419   2.516  21.429  0.00  0.00    +0.000 HD
ENDBRANCH   4  28
TORSDOF 5
ENDMDL
