MODEL 1
REMARK VINA RESULT:      -8.7      0.000      0.000
REMARK  Name = 
REMARK  6 active torsions:
REMARK  status: ('A' for Active; 'I' for Inactive)
REMARK    1  A    between atoms: C_1  and  C_2
REMARK    2  A    between atoms: C_3  and  C_4
REMARK    3  A    between atoms: N_6  and  C_7
REMARK    4  A    between atoms: C_7  and  C_8
REMARK    5  A    between atoms: C_8  and  C_9
REMARK    6  A    between atoms: C_27  and  C_28
REMARK                            x       y       z     vdW  Elec       q    Type
REMARK                         _______ _______ _______ _____ _____    ______ ____
ROOT
ATOM      1  C   UNL     1      -1.508  10.703  18.059  0.00  0.00    +0.000 C 
ATOM      2  C   UNL     1      -0.593  10.834  19.228  0.00  0.00    +0.000 A 
ATOM      3  C   UNL     1       0.700  10.351  19.416  0.00  0.00    +0.000 A 
ATOM      4  C   UNL     1       1.055  10.840  20.690  0.00  0.00    +0.000 A 
ATOM      5  N   UNL     1       0.099  11.554  21.272  0.00  0.00    +0.000 NA
ATOM      6  N   UNL     1      -0.939  11.538  20.385  0.00  0.00    +0.000 N 
ATOM      7  C   UNL     1      -2.186  12.207  20.692  0.00  0.00    +0.000 A 
ATOM      8  N   UNL     1      -2.270  12.909  21.844  0.00  0.00    +0.000 NA
ATOM      9  C   UNL     1      -3.419  13.562  22.081  0.00  0.00    +0.000 A 
ATOM     10  C   UNL     1      -4.491  13.542  21.224  0.00  0.00    +0.000 A 
ATOM     11  C   UNL     1      -4.331  12.791  20.081  0.00  0.00    +0.000 A 
ATOM     12  N   UNL     1      -3.196  12.116  19.801  0.00  0.00    +0.000 NA
ENDROOT
BRANCH  11  13
ATOM     13  C   UNL     1      -5.368  12.679  19.063  0.00  0.00    +0.000 A 
ATOM     14  C   UNL     1      -5.465  12.002  17.862  0.00  0.00    +0.000 A 
ATOM     15  C   UNL     1      -6.727  12.327  17.311  0.00  0.00    +0.000 A 
ATOM     16  C   UNL     1      -7.328  13.177  18.209  0.00  0.00    +0.000 A 
ATOM     17  O   UNL     1      -6.517  13.393  19.276  0.00  0.00    +0.000 OA
ENDBRANCH  11  13
BRANCH   3  18
ATOM     18  C   UNL     1       1.475   9.539  18.484  0.00  0.00    +0.000 C 
ATOM     19  O   UNL     1       1.938   9.979  17.435  0.00  0.00    +0.000 OA
ATOM     20  N   UNL     1       1.661   8.226  18.856  0.00  0.00    +0.000 N 
ATOM     21  H   UNL     1       1.281   7.900  19.730  0.00  0.00    +0.000 HD
BRANCH  20  22
ATOM     22  C   UNL     1       2.452   7.323  18.034  0.00  0.00    +0.000 C 
BRANCH  22  23
ATOM     23  C   UNL     1       2.593   5.870  18.589  0.00  0.00    +0.000 C 
ATOM     24  C   UNL     1       1.589   4.930  17.859  0.00  0.00    +0.000 C 
ATOM     25  C   UNL     1       1.482   3.577  18.550  0.00  0.00    +0.000 C 
ATOM     26  O   UNL     1       1.037   3.760  19.892  0.00  0.00    +0.000 OA
ATOM     27  C   UNL     1       1.991   4.472  20.673  0.00  0.00    +0.000 C 
ATOM     28  C   UNL     1       2.219   5.870  20.104  0.00  0.00    +0.000 C 
BRANCH  23  29
ATOM     29  C   UNL     1       4.048   5.406  18.299  0.00  0.00    +0.000 A 
ATOM     30  C   UNL     1       4.444   4.838  17.077  0.00  0.00    +0.000 A 
ATOM     31  C   UNL     1       5.773   4.468  16.837  0.00  0.00    +0.000 A 
ATOM     32  C   UNL     1       6.734   4.625  17.827  0.00  0.00    +0.000 A 
ATOM     33  C   UNL     1       6.366   5.149  19.060  0.00  0.00    +0.000 A 
ATOM     34  C   UNL     1       5.043   5.538  19.291  0.00  0.00    +0.000 A 
ENDBRANCH  23  29
ENDBRANCH  22  23
ENDBRANCH  20  22
ENDBRANCH   3  18
TORSDOF 5
ENDMDL
MODEL 2
REMARK VINA RESULT:      -8.6      0.530      1.095
REMARK  Name = 
REMARK  6 active torsions:
REMARK  status: ('A' for Active; 'I' for Inactive)
REMARK    1  A    between atoms: C_1  and  C_2
REMARK    2  A    between atoms: C_3  and  C_4
REMARK    3  A    between atoms: N_6  and  C_7
REMARK    4  A    between atoms: C_7  and  C_8
REMARK    5  A    between atoms: C_8  and  C_9
REMARK    6  A    between atoms: C_27  and  C_28
REMARK                            x       y       z     vdW  Elec       q    Type
REMARK                         _______ _______ _______ _____ _____    ______ ____
ROOT
ATOM      1  C   UNL     1      -1.569  10.831  18.356  0.00  0.00    +0.000 C 
ATOM      2  C   UNL     1      -0.604  10.897  19.490  0.00  0.00    +0.000 A 
ATOM      3  C   UNL     1       0.682  10.374  19.608  0.00  0.00    +0.000 A 
ATOM      4  C   UNL     1       1.101  10.809  20.882  0.00  0.00    +0.000 A 
ATOM      5  N   UNL     1       0.189  11.528  21.527  0.00  0.00    +0.000 NA
ATOM      6  N   UNL     1      -0.883  11.569  20.683  0.00  0.00    +0.000 N 
ATOM      7  C   UNL     1      -2.098  12.260  21.063  0.00  0.00    +0.000 A 
ATOM      8  N   UNL     1      -2.116  12.924  22.241  0.00  0.00    +0.000 NA
ATOM      9  C   UNL     1      -3.235  13.599  22.547  0.00  0.00    +0.000 A 
ATOM     10  C   UNL     1      -4.342  13.636  21.734  0.00  0.00    +0.000 A 
ATOM     11  C   UNL     1      -4.248  12.921  20.561  0.00  0.00    +0.000 A 
ATOM     12  N   UNL     1      -3.145  12.227  20.213  0.00  0.00    +0.000 NA
ENDROOT
BRANCH  11  13
ATOM     13  C   UNL     1      -5.328  12.872  19.584  0.00  0.00    +0.000 A 
ATOM     14  C   UNL     1      -6.630  13.337  19.568  0.00  0.00    +0.000 A 
ATOM     15  C   UNL     1      -7.191  12.940  18.330  0.00  0.00    +0.000 A 
ATOM     16  C   UNL     1      -6.198  12.264  17.662  0.00  0.00    +0.000 A 
ATOM     17  O   UNL     1      -5.065  12.221  18.409  0.00  0.00    +0.000 OA
ENDBRANCH  11  13
BRANCH   3  18
ATOM     18  C   UNL     1       1.396   9.575  18.619  0.00  0.00    +0.000 C 
ATOM     19  O   UNL     1       1.715  10.004  17.513  0.00  0.00    +0.000 OA
ATOM     20  N   UNL     1       1.696   8.287  19.003  0.00  0.00    +0.000 N 
ATOM     21  H   UNL     1       1.433   7.970  19.922  0.00  0.00    +0.000 HD
BRANCH  20  22
ATOM     22  C   UNL     1       2.443   7.401  18.123  0.00  0.00    +0.000 C 
BRANCH  22  23
ATOM     23  C   UNL     1       2.603   5.934  18.636  0.00  0.00    +0.000 C 
ATOM     24  C   UNL     1       1.629   4.998  17.861  0.00  0.00    +0.000 C 
ATOM     25  C   UNL     1       1.537   3.623  18.509  0.00  0.00    +0.000 C 
ATOM     26  O   UNL     1       1.067   3.756  19.849  0.00  0.00    +0.000 OA
ATOM     27  C   UNL     1       1.995   4.462  20.667  0.00  0.00    +0.000 C 
ATOM     28  C   UNL     1       2.206   5.881  20.144  0.00  0.00    +0.000 C 
BRANCH  23  29
ATOM     29  C   UNL     1       4.071   5.506  18.356  0.00  0.00    +0.000 A 
ATOM     30  C   UNL     1       5.091   5.584  19.318  0.00  0.00    +0.000 A 
ATOM     31  C   UNL     1       6.394   5.152  19.042  0.00  0.00    +0.000 A 
ATOM     32  C   UNL     1       6.718   4.663  17.783  0.00  0.00    +0.000 A 
ATOM     33  C   UNL     1       5.740   4.608  16.798  0.00  0.00    +0.000 A 
ATOM     34  C   UNL     1       4.435   5.019  17.082  0.00  0.00    +0.000 A 
ENDBRANCH  23  29
ENDBRANCH  22  23
ENDBRANCH  20  22
ENDBRANCH   3  18
TORSDOF 5
ENDMDL
MODEL 3
REMARK VINA RESULT:      -8.5      2.673      3.588
REMARK  Name = 
REMARK  6 active torsions:
REMARK  status: ('A' for Active; 'I' for Inactive)
REMARK    1  A    between atoms: C_1  and  C_2
REMARK    2  A    between atoms: C_3  and  C_4
REMARK    3  A    between atoms: N_6  and  C_7
REMARK    4  A    between atoms: C_7  and  C_8
REMARK    5  A    between atoms: C_8  and  C_9
REMARK    6  A    between atoms: C_27  and  C_28
REMARK                            x       y       z     vdW  Elec       q    Type
REMARK                         _______ _______ _______ _____ _____    ______ ____
ROOT
ATOM      1  C   UNL     1       0.143   8.937  21.288  0.00  0.00    +0.000 C 
ATOM      2  C   UNL     1       0.961   9.098  20.052  0.00  0.00    +0.000 A 
ATOM      3  C   UNL     1       1.865   8.225  19.453  0.00  0.00    +0.000 A 
ATOM      4  C   UNL     1       2.272   8.913  18.292  0.00  0.00    +0.000 A 
ATOM      5  N   UNL     1       1.703  10.106  18.153  0.00  0.00    +0.000 NA
ATOM      6  N   UNL     1       0.905  10.242  19.252  0.00  0.00    +0.000 N 
ATOM      7  C   UNL     1       0.130  11.448  19.458  0.00  0.00    +0.000 A 
ATOM      8  N   UNL     1       0.160  12.401  18.500  0.00  0.00    +0.000 NA
ATOM      9  C   UNL     1      -0.607  13.486  18.692  0.00  0.00    +0.000 A 
ATOM     10  C   UNL     1      -1.398  13.668  19.800  0.00  0.00    +0.000 A 
ATOM     11  C   UNL     1      -1.360  12.658  20.735  0.00  0.00    +0.000 A 
ATOM     12  N   UNL     1      -0.603  11.551  20.587  0.00  0.00    +0.000 NA
ENDROOT
BRANCH  11  13
ATOM     13  C   UNL     1      -2.152  12.691  21.958  0.00  0.00    +0.000 A 
ATOM     14  C   UNL     1      -2.274  11.847  23.045  0.00  0.00    +0.000 A 
ATOM     15  C   UNL     1      -3.246  12.420  23.900  0.00  0.00    +0.000 A 
ATOM     16  C   UNL     1      -3.654  13.581  23.289  0.00  0.00    +0.000 A 
ATOM     17  O   UNL     1      -2.995  13.758  22.115  0.00  0.00    +0.000 OA
ENDBRANCH  11  13
BRANCH   3  18
ATOM     18  C   UNL     1       2.267   6.910  19.940  0.00  0.00    +0.000 C 
ATOM     19  O   UNL     1       1.588   6.249  20.722  0.00  0.00    +0.000 OA
ATOM     20  N   UNL     1       3.472   6.443  19.464  0.00  0.00    +0.000 N 
ATOM     21  H   UNL     1       3.997   7.004  18.812  0.00  0.00    +0.000 HD
BRANCH  20  22
ATOM     22  C   UNL     1       3.964   5.128  19.841  0.00  0.00    +0.000 C 
BRANCH  22  23
ATOM     23  C   UNL     1       3.892   4.044  18.719  0.00  0.00    +0.000 C 
ATOM     24  C   UNL     1       2.498   4.097  18.027  0.00  0.00    +0.000 C 
ATOM     25  C   UNL     1       2.269   2.888  17.129  0.00  0.00    +0.000 C 
ATOM     26  O   UNL     1       2.345   1.694  17.905  0.00  0.00    +0.000 OA
ATOM     27  C   UNL     1       3.651   1.490  18.435  0.00  0.00    +0.000 C 
ATOM     28  C   UNL     1       4.040   2.633  19.369  0.00  0.00    +0.000 C 
BRANCH  23  29
ATOM     29  C   UNL     1       5.001   4.380  17.682  0.00  0.00    +0.000 A 
ATOM     30  C   UNL     1       4.735   4.626  16.325  0.00  0.00    +0.000 A 
ATOM     31  C   UNL     1       5.756   4.965  15.428  0.00  0.00    +0.000 A 
ATOM     32  C   UNL     1       7.074   5.032  15.859  0.00  0.00    +0.000 A 
ATOM     33  C   UNL     1       7.374   4.758  17.188  0.00  0.00    +0.000 A 
ATOM     34  C   UNL     1       6.352   4.441  18.087  0.00  0.00    +0.000 A 
ENDBRANCH  23  29
ENDBRANCH  22  23
ENDBRANCH  20  22
ENDBRANCH   3  18
TORSDOF 5
ENDMDL
MODEL 4
REMARK VINA RESULT:      -8.5      3.021      3.284
REMARK  Name = 
REMARK  6 active torsions:
REMARK  status: ('A' for Active; 'I' for Inactive)
REMARK    1  A    between atoms: C_1  and  C_2
REMARK    2  A    between atoms: C_3  and  C_4
REMARK    3  A    between atoms: N_6  and  C_7
REMARK    4  A    between atoms: C_7  and  C_8
REMARK    5  A    between atoms: C_8  and  C_9
REMARK    6  A    between atoms: C_27  and  C_28
REMARK                            x       y       z     vdW  Elec       q    Type
REMARK                         _______ _______ _______ _____ _____    ______ ____
ROOT
ATOM      1  C   UNL     1       1.122  11.435  18.576  0.00  0.00    +0.000 C 
ATOM      2  C   UNL     1       0.992  10.408  19.648  0.00  0.00    +0.000 A 
ATOM      3  C   UNL     1       1.365   9.066  19.658  0.00  0.00    +0.000 A 
ATOM      4  C   UNL     1       1.037   8.638  20.960  0.00  0.00    +0.000 A 
ATOM      5  N   UNL     1       0.501   9.592  21.714  0.00  0.00    +0.000 NA
ATOM      6  N   UNL     1       0.446  10.689  20.903  0.00  0.00    +0.000 N 
ATOM      7  C   UNL     1      -0.111  11.936  21.384  0.00  0.00    +0.000 A 
ATOM      8  N   UNL     1      -0.505  12.008  22.675  0.00  0.00    +0.000 NA
ATOM      9  C   UNL     1      -0.969  13.190  23.110  0.00  0.00    +0.000 A 
ATOM     10  C   UNL     1      -1.065  14.304  22.312  0.00  0.00    +0.000 A 
ATOM     11  C   UNL     1      -0.659  14.144  21.006  0.00  0.00    +0.000 A 
ATOM     12  N   UNL     1      -0.188  12.975  20.525  0.00  0.00    +0.000 NA
ENDROOT
BRANCH  11  13
ATOM     13  C   UNL     1      -0.683  15.232  20.038  0.00  0.00    +0.000 A 
ATOM     14  C   UNL     1      -0.019  15.475  18.850  0.00  0.00    +0.000 A 
ATOM     15  C   UNL     1      -0.455  16.740  18.389  0.00  0.00    +0.000 A 
ATOM     16  C   UNL     1      -1.363  17.191  19.317  0.00  0.00    +0.000 A 
ATOM     17  O   UNL     1      -1.513  16.285  20.317  0.00  0.00    +0.000 OA
ENDBRANCH  11  13
BRANCH   3  18
ATOM     18  C   UNL     1       1.962   8.316  18.558  0.00  0.00    +0.000 C 
ATOM     19  O   UNL     1       2.266   8.829  17.483  0.00  0.00    +0.000 OA
ATOM     20  N   UNL     1       2.169   6.976  18.798  0.00  0.00    +0.000 N 
ATOM     21  H   UNL     1       1.923   6.590  19.694  0.00  0.00    +0.000 HD
BRANCH  20  22
ATOM     22  C   UNL     1       2.796   6.127  17.796  0.00  0.00    +0.000 C 
BRANCH  22  23
ATOM     23  C   UNL     1       3.367   4.776  18.333  0.00  0.00    +0.000 C 
ATOM     24  C   UNL     1       2.782   3.594  17.506  0.00  0.00    +0.000 C 
ATOM     25  C   UNL     1       3.076   2.250  18.160  0.00  0.00    +0.000 C 
ATOM     26  O   UNL     1       2.502   2.217  19.464  0.00  0.00    +0.000 OA
ATOM     27  C   UNL     1       3.111   3.166  20.334  0.00  0.00    +0.000 C 
ATOM     28  C   UNL     1       2.907   4.586  19.812  0.00  0.00    +0.000 C 
BRANCH  23  29
ATOM     29  C   UNL     1       4.910   4.824  18.154  0.00  0.00    +0.000 A 
ATOM     30  C   UNL     1       5.787   5.266  19.160  0.00  0.00    +0.000 A 
ATOM     31  C   UNL     1       7.175   5.258  18.977  0.00  0.00    +0.000 A 
ATOM     32  C   UNL     1       7.721   4.841  17.770  0.00  0.00    +0.000 A 
ATOM     33  C   UNL     1       6.879   4.434  16.743  0.00  0.00    +0.000 A 
ATOM     34  C   UNL     1       5.494   4.422  16.934  0.00  0.00    +0.000 A 
ENDBRANCH  23  29
ENDBRANCH  22  23
ENDBRANCH  20  22
ENDBRANCH   3  18
TORSDOF 5
ENDMDL
MODEL 5
REMARK VINA RESULT:      -8.5      3.819     10.187
REMARK  Name = 
REMARK  6 active torsions:
REMARK  status: ('A' for Active; 'I' for Inactive)
REMARK    1  A    between atoms: C_1  and  C_2
REMARK    2  A    between atoms: C_3  and  C_4
REMARK    3  A    between atoms: N_6  and  C_7
REMARK    4  A    between atoms: C_7  and  C_8
REMARK    5  A    between atoms: C_8  and  C_9
REMARK    6  A    between atoms: C_27  and  C_28
REMARK                            x       y       z     vdW  Elec       q    Type
REMARK                         _______ _______ _______ _____ _____    ______ ____
ROOT
ATOM      1  C   UNL     1       2.410   8.579  17.515  0.00  0.00    +0.000 C 
ATOM      2  C   UNL     1       1.830   8.521  18.887  0.00  0.00    +0.000 A 
ATOM      3  C   UNL     1       1.023   9.434  19.561  0.00  0.00    +0.000 A 
ATOM      4  C   UNL     1       0.760   8.799  20.792  0.00  0.00    +0.000 A 
ATOM      5  N   UNL     1       1.337   7.608  20.911  0.00  0.00    +0.000 NA
ATOM      6  N   UNL     1       2.024   7.435  19.744  0.00  0.00    +0.000 N 
ATOM      7  C   UNL     1       2.808   6.238  19.518  0.00  0.00    +0.000 A 
ATOM      8  N   UNL     1       2.783   5.268  20.459  0.00  0.00    +0.000 NA
ATOM      9  C   UNL     1       3.476   4.148  20.202  0.00  0.00    +0.000 A 
ATOM     10  C   UNL     1       4.202   3.954  19.052  0.00  0.00    +0.000 A 
ATOM     11  C   UNL     1       4.189   4.996  18.153  0.00  0.00    +0.000 A 
ATOM     12  N   UNL     1       3.509   6.141  18.369  0.00  0.00    +0.000 NA
ENDROOT
BRANCH  11  13
ATOM     13  C   UNL     1       4.895   4.942  16.879  0.00  0.00    +0.000 A 
ATOM     14  C   UNL     1       5.220   5.884  15.921  0.00  0.00    +0.000 A 
ATOM     15  C   UNL     1       5.888   5.195  14.881  0.00  0.00    +0.000 A 
ATOM     16  C   UNL     1       5.938   3.877  15.268  0.00  0.00    +0.000 A 
ATOM     17  O   UNL     1       5.345   3.713  16.478  0.00  0.00    +0.000 OA
ENDBRANCH  11  13
BRANCH   3  18
ATOM     18  C   UNL     1       0.570  10.731  19.071  0.00  0.00    +0.000 C 
ATOM     19  O   UNL     1      -0.601  10.971  18.789  0.00  0.00    +0.000 OA
ATOM     20  N   UNL     1       1.551  11.690  18.939  0.00  0.00    +0.000 N 
ATOM     21  H   UNL     1       2.499  11.466  19.193  0.00  0.00    +0.000 HD
BRANCH  20  22
ATOM     22  C   UNL     1       1.222  13.037  18.500  0.00  0.00    +0.000 C 
BRANCH  22  23
ATOM     23  C   UNL     1       1.606  14.174  19.499  0.00  0.00    +0.000 C 
ATOM     24  C   UNL     1       3.065  13.961  20.002  0.00  0.00    +0.000 C 
ATOM     25  C   UNL     1       3.391  14.866  21.182  0.00  0.00    +0.000 C 
ATOM     26  O   UNL     1       2.497  14.589  22.258  0.00  0.00    +0.000 OA
ATOM     27  C   UNL     1       1.153  14.924  21.927  0.00  0.00    +0.000 C 
ATOM     28  C   UNL     1       0.666  14.093  20.742  0.00  0.00    +0.000 C 
BRANCH  23  29
ATOM     29  C   UNL     1       1.513  15.519  18.725  0.00  0.00    +0.000 A 
ATOM     30  C   UNL     1       0.360  16.322  18.715  0.00  0.00    +0.000 A 
ATOM     31  C   UNL     1       0.326  17.547  18.038  0.00  0.00    +0.000 A 
ATOM     32  C   UNL     1       1.434  17.984  17.324  0.00  0.00    +0.000 A 
ATOM     33  C   UNL     1       2.576  17.195  17.283  0.00  0.00    +0.000 A 
ATOM     34  C   UNL     1       2.617  15.982  17.977  0.00  0.00    +0.000 A 
ENDBRANCH  23  29
ENDBRANCH  22  23
ENDBRANCH  20  22
ENDBRANCH   3  18
TORSDOF 5
ENDMDL
MODEL 6
REMARK VINA RESULT:      -8.5      0.932      1.096
REMARK  Name = 
REMARK  6 active torsions:
REMARK  status: ('A' for Active; 'I' for Inactive)
REMARK    1  A    between atoms: C_1  and  C_2
REMARK    2  A    between atoms: C_3  and  C_4
REMARK    3  A    between atoms: N_6  and  C_7
REMARK    4  A    between atoms: C_7  and  C_8
REMARK    5  A    between atoms: C_8  and  C_9
REMARK    6  A    between atoms: C_27  and  C_28
REMARK                            x       y       z     vdW  Elec       q    Type
REMARK                         _______ _______ _______ _____ _____    ______ ____
ROOT
ATOM      1  C   UNL     1      -1.371  10.878  18.890  0.00  0.00    +0.000 C 
ATOM      2  C   UNL     1      -0.423  10.610  20.009  0.00  0.00    +0.000 A 
ATOM      3  C   UNL     1       0.764   9.881  20.027  0.00  0.00    +0.000 A 
ATOM      4  C   UNL     1       1.229  10.035  21.348  0.00  0.00    +0.000 A 
ATOM      5  N   UNL     1       0.432  10.776  22.110  0.00  0.00    +0.000 NA
ATOM      6  N   UNL     1      -0.609  11.119  21.297  0.00  0.00    +0.000 N 
ATOM      7  C   UNL     1      -1.706  11.922  21.797  0.00  0.00    +0.000 A 
ATOM      8  N   UNL     1      -1.635  12.384  23.066  0.00  0.00    +0.000 NA
ATOM      9  C   UNL     1      -2.639  13.168  23.489  0.00  0.00    +0.000 A 
ATOM     10  C   UNL     1      -3.715  13.508  22.705  0.00  0.00    +0.000 A 
ATOM     11  C   UNL     1      -3.719  12.984  21.432  0.00  0.00    +0.000 A 
ATOM     12  N   UNL     1      -2.734  12.190  20.965  0.00  0.00    +0.000 NA
ENDROOT
BRANCH  11  13
ATOM     13  C   UNL     1      -4.780  13.261  20.473  0.00  0.00    +0.000 A 
ATOM     14  C   UNL     1      -5.213  12.643  19.315  0.00  0.00    +0.000 A 
ATOM     15  C   UNL     1      -6.279  13.423  18.808  0.00  0.00    +0.000 A 
ATOM     16  C   UNL     1      -6.439  14.466  19.689  0.00  0.00    +0.000 A 
ATOM     17  O   UNL     1      -5.541  14.376  20.703  0.00  0.00    +0.000 OA
ENDBRANCH  11  13
BRANCH   3  18
ATOM     18  C   UNL     1       1.357   9.147  18.914  0.00  0.00    +0.000 C 
ATOM     19  O   UNL     1       1.332   9.552  17.754  0.00  0.00    +0.000 OA
ATOM     20  N   UNL     1       1.958   7.953  19.244  0.00  0.00    +0.000 N 
ATOM     21  H   UNL     1       1.974   7.657  20.206  0.00  0.00    +0.000 HD
BRANCH  20  22
ATOM     22  C   UNL     1       2.623   7.147  18.232  0.00  0.00    +0.000 C 
BRANCH  22  23
ATOM     23  C   UNL     1       2.810   5.640  18.599  0.00  0.00    +0.000 C 
ATOM     24  C   UNL     1       1.773   4.778  17.821  0.00  0.00    +0.000 C 
ATOM     25  C   UNL     1       1.720   3.351  18.349  0.00  0.00    +0.000 C 
ATOM     26  O   UNL     1       1.354   3.364  19.727  0.00  0.00    +0.000 OA
ATOM     27  C   UNL     1       2.347   3.993  20.531  0.00  0.00    +0.000 C 
ATOM     28  C   UNL     1       2.528   5.453  20.122  0.00  0.00    +0.000 C 
BRANCH  23  29
ATOM     29  C   UNL     1       4.249   5.238  18.171  0.00  0.00    +0.000 A 
ATOM     30  C   UNL     1       4.551   4.682  16.916  0.00  0.00    +0.000 A 
ATOM     31  C   UNL     1       5.865   4.369  16.550  0.00  0.00    +0.000 A 
ATOM     32  C   UNL     1       6.909   4.571  17.444  0.00  0.00    +0.000 A 
ATOM     33  C   UNL     1       6.638   5.084  18.706  0.00  0.00    +0.000 A 
ATOM     34  C   UNL     1       5.328   5.417  19.062  0.00  0.00    +0.000 A 
ENDBRANCH  23  29
ENDBRANCH  22  23
ENDBRANCH  20  22
ENDBRANCH   3  18
TORSDOF 5
ENDMDL
MODEL 7
REMARK VINA RESULT:      -8.5      3.021      3.177
REMARK  Name = 
REMARK  6 active torsions:
REMARK  status: ('A' for Active; 'I' for Inactive)
REMARK    1  A    between atoms: C_1  and  C_2
REMARK    2  A    between atoms: C_3  and  C_4
REMARK    3  A    between atoms: N_6  and  C_7
REMARK    4  A    between atoms: C_7  and  C_8
REMARK    5  A    between atoms: C_8  and  C_9
REMARK    6  A    between atoms: C_27  and  C_28
REMARK                            x       y       z     vdW  Elec       q    Type
REMARK                         _______ _______ _______ _____ _____    ______ ____
ROOT
ATOM      1  C   UNL     1       0.976  11.824  18.725  0.00  0.00    +0.000 C 
ATOM      2  C   UNL     1       0.850  10.762  19.763  0.00  0.00    +0.000 A 
ATOM      3  C   UNL     1       1.238   9.425  19.734  0.00  0.00    +0.000 A 
ATOM      4  C   UNL     1       0.906   8.954  21.020  0.00  0.00    +0.000 A 
ATOM      5  N   UNL     1       0.356   9.878  21.800  0.00  0.00    +0.000 NA
ATOM      6  N   UNL     1       0.294  10.999  21.023  0.00  0.00    +0.000 N 
ATOM      7  C   UNL     1      -0.278  12.225  21.539  0.00  0.00    +0.000 A 
ATOM      8  N   UNL     1      -0.680  12.252  22.829  0.00  0.00    +0.000 NA
ATOM      9  C   UNL     1      -1.159  13.416  23.297  0.00  0.00    +0.000 A 
ATOM     10  C   UNL     1      -1.262  14.553  22.534  0.00  0.00    +0.000 A 
ATOM     11  C   UNL     1      -0.847  14.437  21.226  0.00  0.00    +0.000 A 
ATOM     12  N   UNL     1      -0.361  13.289  20.712  0.00  0.00    +0.000 NA
ENDROOT
BRANCH  11  13
ATOM     13  C   UNL     1      -0.876  15.555  20.291  0.00  0.00    +0.000 A 
ATOM     14  C   UNL     1      -1.532  16.771  20.271  0.00  0.00    +0.000 A 
ATOM     15  C   UNL     1      -1.173  17.409  19.059  0.00  0.00    +0.000 A 
ATOM     16  C   UNL     1      -0.315  16.549  18.416  0.00  0.00    +0.000 A 
ATOM     17  O   UNL     1      -0.124  15.426  19.155  0.00  0.00    +0.000 OA
ENDBRANCH  11  13
BRANCH   3  18
ATOM     18  C   UNL     1       1.849   8.715  18.615  0.00  0.00    +0.000 C 
ATOM     19  O   UNL     1       2.017   9.224  17.509  0.00  0.00    +0.000 OA
ATOM     20  N   UNL     1       2.235   7.419  18.875  0.00  0.00    +0.000 N 
ATOM     21  H   UNL     1       2.098   7.037  19.796  0.00  0.00    +0.000 HD
BRANCH  20  22
ATOM     22  C   UNL     1       2.895   6.619  17.855  0.00  0.00    +0.000 C 
BRANCH  22  23
ATOM     23  C   UNL     1       3.282   5.171  18.294  0.00  0.00    +0.000 C 
ATOM     24  C   UNL     1       2.385   4.139  17.549  0.00  0.00    +0.000 C 
ATOM     25  C   UNL     1       2.521   2.743  18.143  0.00  0.00    +0.000 C 
ATOM     26  O   UNL     1       2.137   2.769  19.517  0.00  0.00    +0.000 OA
ATOM     27  C   UNL     1       3.023   3.565  20.298  0.00  0.00    +0.000 C 
ATOM     28  C   UNL     1       3.007   5.016  19.822  0.00  0.00    +0.000 C 
BRANCH  23  29
ATOM     29  C   UNL     1       4.769   4.951  17.896  0.00  0.00    +0.000 A 
ATOM     30  C   UNL     1       5.162   4.393  16.668  0.00  0.00    +0.000 A 
ATOM     31  C   UNL     1       6.512   4.247  16.328  0.00  0.00    +0.000 A 
ATOM     32  C   UNL     1       7.506   4.625  17.222  0.00  0.00    +0.000 A 
ATOM     33  C   UNL     1       7.149   5.146  18.459  0.00  0.00    +0.000 A 
ATOM     34  C   UNL     1       5.801   5.311  18.789  0.00  0.00    +0.000 A 
ENDBRANCH  23  29
ENDBRANCH  22  23
ENDBRANCH  20  22
ENDBRANCH   3  18
TORSDOF 5
ENDMDL
MODEL 8
REMARK VINA RESULT:      -8.4      0.985      1.440
REMARK  Name = 
REMARK  6 active torsions:
REMARK  status: ('A' for Active; 'I' for Inactive)
REMARK    1  A    between atoms: C_1  and  C_2
REMARK    2  A    between atoms: C_3  and  C_4
REMARK    3  A    between atoms: N_6  and  C_7
REMARK    4  A    between atoms: C_7  and  C_8
REMARK    5  A    between atoms: C_8  and  C_9
REMARK    6  A    between atoms: C_27  and  C_28
REMARK                            x       y       z     vdW  Elec       q    Type
REMARK                         _______ _______ _______ _____ _____    ______ ____
ROOT
ATOM      1  C   UNL     1      -1.641  10.549  19.026  0.00  0.00    +0.000 C 
ATOM      2  C   UNL     1      -0.431  10.801  19.858  0.00  0.00    +0.000 A 
ATOM      3  C   UNL     1       0.883  10.370  19.690  0.00  0.00    +0.000 A 
ATOM      4  C   UNL     1       1.572  10.974  20.762  0.00  0.00    +0.000 A 
ATOM      5  N   UNL     1       0.793  11.710  21.547  0.00  0.00    +0.000 NA
ATOM      6  N   UNL     1      -0.456  11.592  21.010  0.00  0.00    +0.000 N 
ATOM      7  C   UNL     1      -1.590  12.252  21.623  0.00  0.00    +0.000 A 
ATOM      8  N   UNL     1      -1.367  13.047  22.694  0.00  0.00    +0.000 NA
ATOM      9  C   UNL     1      -2.427  13.688  23.212  0.00  0.00    +0.000 A 
ATOM     10  C   UNL     1      -3.701  13.567  22.715  0.00  0.00    +0.000 A 
ATOM     11  C   UNL     1      -3.846  12.727  21.634  0.00  0.00    +0.000 A 
ATOM     12  N   UNL     1      -2.812  12.061  21.081  0.00  0.00    +0.000 NA
ENDROOT
BRANCH  11  13
ATOM     13  C   UNL     1      -5.129  12.503  20.980  0.00  0.00    +0.000 A 
ATOM     14  C   UNL     1      -5.548  12.501  19.663  0.00  0.00    +0.000 A 
ATOM     15  C   UNL     1      -6.940  12.249  19.677  0.00  0.00    +0.000 A 
ATOM     16  C   UNL     1      -7.288  12.106  20.999  0.00  0.00    +0.000 A 
ATOM     17  O   UNL     1      -6.199  12.252  21.796  0.00  0.00    +0.000 OA
ENDBRANCH  11  13
BRANCH   3  18
ATOM     18  C   UNL     1       1.390   9.502  18.632  0.00  0.00    +0.000 C 
ATOM     19  O   UNL     1       1.429   9.836  17.451  0.00  0.00    +0.000 OA
ATOM     20  N   UNL     1       1.831   8.263  19.043  0.00  0.00    +0.000 N 
ATOM     21  H   UNL     1       1.800   8.026  20.021  0.00  0.00    +0.000 HD
BRANCH  20  22
ATOM     22  C   UNL     1       2.399   7.321  18.091  0.00  0.00    +0.000 C 
BRANCH  22  23
ATOM     23  C   UNL     1       2.593   5.868  18.631  0.00  0.00    +0.000 C 
ATOM     24  C   UNL     1       1.612   4.903  17.903  0.00  0.00    +0.000 C 
ATOM     25  C   UNL     1       1.556   3.541  18.582  0.00  0.00    +0.000 C 
ATOM     26  O   UNL     1       1.122   3.696  19.931  0.00  0.00    +0.000 OA
ATOM     27  C   UNL     1       2.062   4.431  20.708  0.00  0.00    +0.000 C 
ATOM     28  C   UNL     1       2.238   5.842  20.150  0.00  0.00    +0.000 C 
BRANCH  23  29
ATOM     29  C   UNL     1       4.059   5.453  18.319  0.00  0.00    +0.000 A 
ATOM     30  C   UNL     1       5.089   5.498  19.273  0.00  0.00    +0.000 A 
ATOM     31  C   UNL     1       6.390   5.078  18.967  0.00  0.00    +0.000 A 
ATOM     32  C   UNL     1       6.701   4.637  17.687  0.00  0.00    +0.000 A 
ATOM     33  C   UNL     1       5.713   4.617  16.712  0.00  0.00    +0.000 A 
ATOM     34  C   UNL     1       4.410   5.015  17.024  0.00  0.00    +0.000 A 
ENDBRANCH  23  29
ENDBRANCH  22  23
ENDBRANCH  20  22
ENDBRANCH   3  18
TORSDOF 5
ENDMDL
MODEL 9
REMARK VINA RESULT:      -8.3      3.793      9.905
REMARK  Name = 
REMARK  6 active torsions:
REMARK  status: ('A' for Active; 'I' for Inactive)
REMARK    1  A    between atoms: C_1  and  C_2
REMARK    2  A    between atoms: C_3  and  C_4
REMARK    3  A    between atoms: N_6  and  C_7
REMARK    4  A    between atoms: C_7  and  C_8
REMARK    5  A    between atoms: C_8  and  C_9
REMARK    6  A    between atoms: C_27  and  C_28
REMARK                            x       y       z     vdW  Elec       q    Type
REMARK                         _______ _______ _______ _____ _____    ______ ____
ROOT
ATOM      1  C   UNL     1       2.190   8.720  17.811  0.00  0.00    +0.000 C 
ATOM      2  C   UNL     1       1.611   8.636  19.182  0.00  0.00    +0.000 A 
ATOM      3  C   UNL     1       0.856   9.562  19.898  0.00  0.00    +0.000 A 
ATOM      4  C   UNL     1       0.561   8.891  21.102  0.00  0.00    +0.000 A 
ATOM      5  N   UNL     1       1.072   7.667  21.169  0.00  0.00    +0.000 NA
ATOM      6  N   UNL     1       1.747   7.505  19.993  0.00  0.00    +0.000 N 
ATOM      7  C   UNL     1       2.464   6.279  19.714  0.00  0.00    +0.000 A 
ATOM      8  N   UNL     1       2.387   5.272  20.613  0.00  0.00    +0.000 NA
ATOM      9  C   UNL     1       3.018   4.127  20.306  0.00  0.00    +0.000 A 
ATOM     10  C   UNL     1       3.729   3.943  19.146  0.00  0.00    +0.000 A 
ATOM     11  C   UNL     1       3.772   5.022  18.291  0.00  0.00    +0.000 A 
ATOM     12  N   UNL     1       3.156   6.191  18.558  0.00  0.00    +0.000 NA
ENDROOT
BRANCH  11  13
ATOM     13  C   UNL     1       4.471   4.983  17.013  0.00  0.00    +0.000 A 
ATOM     14  C   UNL     1       4.912   3.963  16.192  0.00  0.00    +0.000 A 
ATOM     15  C   UNL     1       5.561   4.575  15.093  0.00  0.00    +0.000 A 
ATOM     16  C   UNL     1       5.471   5.930  15.304  0.00  0.00    +0.000 A 
ATOM     17  O   UNL     1       4.809   6.189  16.461  0.00  0.00    +0.000 OA
ENDBRANCH  11  13
BRANCH   3  18
ATOM     18  C   UNL     1       0.474  10.902  19.464  0.00  0.00    +0.000 C 
ATOM     19  O   UNL     1      -0.299  11.110  18.533  0.00  0.00    +0.000 OA
ATOM     20  N   UNL     1       1.041  11.938  20.173  0.00  0.00    +0.000 N 
ATOM     21  H   UNL     1       1.659  11.732  20.941  0.00  0.00    +0.000 HD
BRANCH  20  22
ATOM     22  C   UNL     1       0.708  13.320  19.866  0.00  0.00    +0.000 C 
BRANCH  22  23
ATOM     23  C   UNL     1       1.722  14.382  20.401  0.00  0.00    +0.000 C 
ATOM     24  C   UNL     1       3.004  13.668  20.921  0.00  0.00    +0.000 C 
ATOM     25  C   UNL     1       3.897  14.618  21.707  0.00  0.00    +0.000 C 
ATOM     26  O   UNL     1       3.179  15.133  22.827  0.00  0.00    +0.000 OA
ATOM     27  C   UNL     1       2.081  15.945  22.424  0.00  0.00    +0.000 C 
ATOM     28  C   UNL     1       1.078  15.130  21.609  0.00  0.00    +0.000 C 
BRANCH  23  29
ATOM     29  C   UNL     1       2.088  15.309  19.209  0.00  0.00    +0.000 A 
ATOM     30  C   UNL     1       1.412  16.509  18.932  0.00  0.00    +0.000 A 
ATOM     31  C   UNL     1       1.797  17.340  17.872  0.00  0.00    +0.000 A 
ATOM     32  C   UNL     1       2.846  16.973  17.039  0.00  0.00    +0.000 A 
ATOM     33  C   UNL     1       3.510  15.774  17.264  0.00  0.00    +0.000 A 
ATOM     34  C   UNL     1       3.140  14.957  18.336  0.00  0.00    +0.000 A 
ENDBRANCH  23  29
ENDBRANCH  22  23
ENDBRANCH  20  22
ENDBRANCH   3  18
TORSDOF 5
ENDMDL
