MODEL 1
REMARK VINA RESULT:      -8.0      0.000      0.000
REMARK  Name = 
REMARK  3 active torsions:
REMARK  status: ('A' for Active; 'I' for Inactive)
REMARK    1  A    between atoms: C_2  and  O_3
REMARK    2  A    between atoms: C_2  and  C_4
REMARK    3  A    between atoms: C_8  and  C_9
REMARK                            x       y       z     vdW  Elec       q    Type
REMARK                         _______ _______ _______ _____ _____    ______ ____
ROOT
ATOM      1  C   UNL     1       3.969   3.726  18.829  0.00  0.00    +0.000 A 
ATOM      2  C   UNL     1       3.224   4.509  19.631  0.00  0.00    +0.000 A 
ATOM      3  C   UNL     1       2.870   5.873  19.228  0.00  0.00    +0.000 A 
ATOM      4  C   UNL     1       2.097   6.704  20.051  0.00  0.00    +0.000 A 
ATOM      5  C   UNL     1       1.784   8.026  19.676  0.00  0.00    +0.000 A 
ATOM      6  C   UNL     1       2.268   8.477  18.431  0.00  0.00    +0.000 A 
ATOM      7  C   UNL     1       3.024   7.651  17.593  0.00  0.00    +0.000 A 
ATOM      8  C   UNL     1       3.323   6.357  18.000  0.00  0.00    +0.000 A 
ATOM      9  N   UNL     1       4.088   5.525  17.177  0.00  0.00    +0.000 N 
ATOM     10  C   UNL     1       4.431   4.248  17.517  0.00  0.00    +0.000 A 
ATOM     11  O   UNL     1       5.104   3.540  16.769  0.00  0.00    +0.000 OA
ATOM     12  H   UNL     1       4.418   5.861  16.281  0.00  0.00    +0.000 HD
ENDROOT
BRANCH   5  13
ATOM     13  C   UNL     1       0.982   8.912  20.555  0.00  0.00    +0.000 A 
ATOM     14  C   UNL     1       0.930   8.714  21.949  0.00  0.00    +0.000 A 
ATOM     15  C   UNL     1       0.168   9.543  22.779  0.00  0.00    +0.000 A 
ATOM     16  C   UNL     1      -0.549  10.600  22.230  0.00  0.00    +0.000 A 
ATOM     17 CL   UNL     1      -1.485  11.621  23.248  0.00  0.00    +0.000 Cl
ATOM     18  C   UNL     1      -0.513  10.831  20.861  0.00  0.00    +0.000 A 
ATOM     19  C   UNL     1       0.240   9.989  20.033  0.00  0.00    +0.000 A 
ENDBRANCH   5  13
BRANCH   1  21
ATOM     20  O   UNL     1       4.855   2.137  20.372  0.00  0.00    +0.000 OA
ATOM     21  C   UNL     1       4.306   2.361  19.301  0.00  0.00    +0.000 C 
BRANCH  21  22
ATOM     22  O   UNL     1       3.961   1.363  18.458  0.00  0.00    +0.000 OA
ATOM     23  H   UNL     1       3.566   1.666  17.605  0.00  0.00    +0.000 HD
ENDBRANCH  21  22
ENDBRANCH   1  21
TORSDOF 3
ENDMDL
MODEL 2
REMARK VINA RESULT:      -8.0      4.986      6.284
REMARK  Name = 
REMARK  3 active torsions:
REMARK  status: ('A' for Active; 'I' for Inactive)
REMARK    1  A    between atoms: C_2  and  O_3
REMARK    2  A    between atoms: C_2  and  C_4
REMARK    3  A    between atoms: C_8  and  C_9
REMARK                            x       y       z     vdW  Elec       q    Type
REMARK                         _______ _______ _______ _____ _____    ______ ____
ROOT
ATOM      1  C   UNL     1       6.298   4.038  13.556  0.00  0.00    +0.000 A 
ATOM      2  C   UNL     1       5.451   3.641  14.525  0.00  0.00    +0.000 A 
ATOM      3  C   UNL     1       5.520   4.226  15.867  0.00  0.00    +0.000 A 
ATOM      4  C   UNL     1       4.647   3.823  16.888  0.00  0.00    +0.000 A 
ATOM      5  C   UNL     1       4.735   4.364  18.187  0.00  0.00    +0.000 A 
ATOM      6  C   UNL     1       5.728   5.339  18.415  0.00  0.00    +0.000 A 
ATOM      7  C   UNL     1       6.591   5.762  17.400  0.00  0.00    +0.000 A 
ATOM      8  C   UNL     1       6.483   5.199  16.135  0.00  0.00    +0.000 A 
ATOM      9  N   UNL     1       7.348   5.604  15.114  0.00  0.00    +0.000 N 
ATOM     10  C   UNL     1       7.308   5.086  13.850  0.00  0.00    +0.000 A 
ATOM     11  O   UNL     1       8.082   5.467  12.973  0.00  0.00    +0.000 OA
ATOM     12  H   UNL     1       8.048   6.314  15.292  0.00  0.00    +0.000 HD
ENDROOT
BRANCH   5  13
ATOM     13  C   UNL     1       3.825   3.925  19.273  0.00  0.00    +0.000 A 
ATOM     14  C   UNL     1       4.024   2.706  19.950  0.00  0.00    +0.000 A 
ATOM     15  C   UNL     1       3.162   2.284  20.969  0.00  0.00    +0.000 A 
ATOM     16  C   UNL     1       2.088   3.085  21.342  0.00  0.00    +0.000 A 
ATOM     17 CL   UNL     1       1.029   2.572  22.594  0.00  0.00    +0.000 Cl
ATOM     18  C   UNL     1       1.868   4.299  20.701  0.00  0.00    +0.000 A 
ATOM     19  C   UNL     1       2.726   4.708  19.673  0.00  0.00    +0.000 A 
ENDBRANCH   5  13
BRANCH   1  21
ATOM     20  O   UNL     1       5.140   3.332  11.595  0.00  0.00    +0.000 OA
ATOM     21  C   UNL     1       6.187   3.396  12.224  0.00  0.00    +0.000 C 
BRANCH  21  22
ATOM     22  O   UNL     1       7.338   2.879  11.742  0.00  0.00    +0.000 OA
ATOM     23  H   UNL     1       8.108   3.497  11.766  0.00  0.00    +0.000 HD
ENDBRANCH  21  22
ENDBRANCH   1  21
TORSDOF 3
ENDMDL
MODEL 3
REMARK VINA RESULT:      -7.9      4.973      6.343
REMARK  Name = 
REMARK  3 active torsions:
REMARK  status: ('A' for Active; 'I' for Inactive)
REMARK    1  A    between atoms: C_2  and  O_3
REMARK    2  A    between atoms: C_2  and  C_4
REMARK    3  A    between atoms: C_8  and  C_9
REMARK                            x       y       z     vdW  Elec       q    Type
REMARK                         _______ _______ _______ _____ _____    ______ ____
ROOT
ATOM      1  C   UNL     1       6.388   4.162  13.665  0.00  0.00    +0.000 A 
ATOM      2  C   UNL     1       5.519   3.749  14.607  0.00  0.00    +0.000 A 
ATOM      3  C   UNL     1       5.578   4.288  15.969  0.00  0.00    +0.000 A 
ATOM      4  C   UNL     1       4.683   3.868  16.963  0.00  0.00    +0.000 A 
ATOM      5  C   UNL     1       4.761   4.365  18.280  0.00  0.00    +0.000 A 
ATOM      6  C   UNL     1       5.767   5.314  18.555  0.00  0.00    +0.000 A 
ATOM      7  C   UNL     1       6.652   5.754  17.567  0.00  0.00    +0.000 A 
ATOM      8  C   UNL     1       6.554   5.235  16.282  0.00  0.00    +0.000 A 
ATOM      9  N   UNL     1       7.441   5.658  15.289  0.00  0.00    +0.000 N 
ATOM     10  C   UNL     1       7.412   5.182  14.008  0.00  0.00    +0.000 A 
ATOM     11  O   UNL     1       8.205   5.578  13.155  0.00  0.00    +0.000 OA
ATOM     12  H   UNL     1       8.150   6.349  15.500  0.00  0.00    +0.000 HD
ENDROOT
BRANCH   5  13
ATOM     13  C   UNL     1       3.826   3.907  19.338  0.00  0.00    +0.000 A 
ATOM     14  C   UNL     1       2.699   4.668  19.703  0.00  0.00    +0.000 A 
ATOM     15  C   UNL     1       1.821   4.242  20.706  0.00  0.00    +0.000 A 
ATOM     16  C   UNL     1       2.048   3.034  21.356  0.00  0.00    +0.000 A 
ATOM     17 CL   UNL     1       0.970   2.507  22.587  0.00  0.00    +0.000 Cl
ATOM     18  C   UNL     1       3.145   2.253  21.014  0.00  0.00    +0.000 A 
ATOM     19  C   UNL     1       4.027   2.691  20.019  0.00  0.00    +0.000 A 
ENDBRANCH   5  13
BRANCH   1  21
ATOM     20  O   UNL     1       5.231   3.188  11.822  0.00  0.00    +0.000 OA
ATOM     21  C   UNL     1       6.287   3.566  12.311  0.00  0.00    +0.000 C 
BRANCH  21  22
ATOM     22  O   UNL     1       7.456   3.468  11.641  0.00  0.00    +0.000 OA
ATOM     23  H   UNL     1       7.435   3.833  10.724  0.00  0.00    +0.000 HD
ENDBRANCH  21  22
ENDBRANCH   1  21
TORSDOF 3
ENDMDL
MODEL 4
REMARK VINA RESULT:      -7.8      0.945      1.478
REMARK  Name = 
REMARK  3 active torsions:
REMARK  status: ('A' for Active; 'I' for Inactive)
REMARK    1  A    between atoms: C_2  and  O_3
REMARK    2  A    between atoms: C_2  and  C_4
REMARK    3  A    between atoms: C_8  and  C_9
REMARK                            x       y       z     vdW  Elec       q    Type
REMARK                         _______ _______ _______ _____ _____    ______ ____
ROOT
ATOM      1  C   UNL     1       3.571   4.393  19.372  0.00  0.00    +0.000 A 
ATOM      2  C   UNL     1       2.825   5.197  20.154  0.00  0.00    +0.000 A 
ATOM      3  C   UNL     1       2.396   6.516  19.679  0.00  0.00    +0.000 A 
ATOM      4  C   UNL     1       1.622   7.367  20.479  0.00  0.00    +0.000 A 
ATOM      5  C   UNL     1       1.237   8.648  20.033  0.00  0.00    +0.000 A 
ATOM      6  C   UNL     1       1.651   9.035  18.742  0.00  0.00    +0.000 A 
ATOM      7  C   UNL     1       2.407   8.186  17.928  0.00  0.00    +0.000 A 
ATOM      8  C   UNL     1       2.778   6.935  18.404  0.00  0.00    +0.000 A 
ATOM      9  N   UNL     1       3.545   6.083  17.604  0.00  0.00    +0.000 N 
ATOM     10  C   UNL     1       3.956   4.845  18.011  0.00  0.00    +0.000 A 
ATOM     11  O   UNL     1       4.628   4.117  17.281  0.00  0.00    +0.000 OA
ATOM     12  H   UNL     1       3.824   6.371  16.675  0.00  0.00    +0.000 HD
ENDROOT
BRANCH   5  13
ATOM     13  C   UNL     1       0.433   9.557  20.887  0.00  0.00    +0.000 A 
ATOM     14  C   UNL     1      -0.045  10.790  20.401  0.00  0.00    +0.000 A 
ATOM     15  C   UNL     1      -0.795  11.654  21.207  0.00  0.00    +0.000 A 
ATOM     16  C   UNL     1      -1.096  11.292  22.516  0.00  0.00    +0.000 A 
ATOM     17 CL   UNL     1      -2.019  12.349  23.508  0.00  0.00    +0.000 Cl
ATOM     18  C   UNL     1      -0.648  10.079  23.024  0.00  0.00    +0.000 A 
ATOM     19  C   UNL     1       0.114   9.225  22.218  0.00  0.00    +0.000 A 
ENDBRANCH   5  13
BRANCH   1  21
ATOM     20  O   UNL     1       3.279   2.404  20.654  0.00  0.00    +0.000 OA
ATOM     21  C   UNL     1       3.985   3.077  19.917  0.00  0.00    +0.000 C 
BRANCH  21  22
ATOM     22  O   UNL     1       5.214   2.664  19.537  0.00  0.00    +0.000 OA
ATOM     23  H   UNL     1       5.665   2.069  20.184  0.00  0.00    +0.000 HD
ENDBRANCH  21  22
ENDBRANCH   1  21
TORSDOF 3
ENDMDL
MODEL 5
REMARK VINA RESULT:      -7.7      1.100      1.355
REMARK  Name = 
REMARK  3 active torsions:
REMARK  status: ('A' for Active; 'I' for Inactive)
REMARK    1  A    between atoms: C_2  and  O_3
REMARK    2  A    between atoms: C_2  and  C_4
REMARK    3  A    between atoms: C_8  and  C_9
REMARK                            x       y       z     vdW  Elec       q    Type
REMARK                         _______ _______ _______ _____ _____    ______ ____
ROOT
ATOM      1  C   UNL     1       3.981   5.058  18.864  0.00  0.00    +0.000 A 
ATOM      2  C   UNL     1       3.180   5.721  19.720  0.00  0.00    +0.000 A 
ATOM      3  C   UNL     1       2.583   7.006  19.345  0.00  0.00    +0.000 A 
ATOM      4  C   UNL     1       1.749   7.711  20.225  0.00  0.00    +0.000 A 
ATOM      5  C   UNL     1       1.201   8.962  19.874  0.00  0.00    +0.000 A 
ATOM      6  C   UNL     1       1.515   9.471  18.598  0.00  0.00    +0.000 A 
ATOM      7  C   UNL     1       2.330   8.768  17.705  0.00  0.00    +0.000 A 
ATOM      8  C   UNL     1       2.861   7.543  18.088  0.00  0.00    +0.000 A 
ATOM      9  N   UNL     1       3.688   6.836  17.210  0.00  0.00    +0.000 N 
ATOM     10  C   UNL     1       4.256   5.633  17.522  0.00  0.00    +0.000 A 
ATOM     11  O   UNL     1       4.977   5.034  16.725  0.00  0.00    +0.000 OA
ATOM     12  H   UNL     1       3.894   7.210  16.292  0.00  0.00    +0.000 HD
ENDROOT
BRANCH   5  13
ATOM     13  C   UNL     1       0.334   9.718  20.812  0.00  0.00    +0.000 A 
ATOM     14  C   UNL     1       0.156   9.302  22.146  0.00  0.00    +0.000 A 
ATOM     15  C   UNL     1      -0.669  10.008  23.029  0.00  0.00    +0.000 A 
ATOM     16  C   UNL     1      -1.322  11.157  22.597  0.00  0.00    +0.000 A 
ATOM     17 CL   UNL     1      -2.333  12.028  23.681  0.00  0.00    +0.000 Cl
ATOM     18  C   UNL     1      -1.160  11.601  21.290  0.00  0.00    +0.000 A 
ATOM     19  C   UNL     1      -0.346  10.883  20.407  0.00  0.00    +0.000 A 
ENDBRANCH   5  13
BRANCH   1  21
ATOM     20  O   UNL     1       3.924   2.908  19.893  0.00  0.00    +0.000 OA
ATOM     21  C   UNL     1       4.566   3.770  19.308  0.00  0.00    +0.000 C 
BRANCH  21  22
ATOM     22  O   UNL     1       5.876   3.608  19.020  0.00  0.00    +0.000 OA
ATOM     23  H   UNL     1       6.316   4.410  18.649  0.00  0.00    +0.000 HD
ENDBRANCH  21  22
ENDBRANCH   1  21
TORSDOF 3
ENDMDL
MODEL 6
REMARK VINA RESULT:      -7.7      5.614      8.238
REMARK  Name = 
REMARK  3 active torsions:
REMARK  status: ('A' for Active; 'I' for Inactive)
REMARK    1  A    between atoms: C_2  and  O_3
REMARK    2  A    between atoms: C_2  and  C_4
REMARK    3  A    between atoms: C_8  and  C_9
REMARK                            x       y       z     vdW  Elec       q    Type
REMARK                         _______ _______ _______ _____ _____    ______ ____
ROOT
ATOM      1  C   UNL     1      -0.042  11.458  19.062  0.00  0.00    +0.000 A 
ATOM      2  C   UNL     1       0.716  10.636  18.312  0.00  0.00    +0.000 A 
ATOM      3  C   UNL     1       1.238   9.384  18.867  0.00  0.00    +0.000 A 
ATOM      4  C   UNL     1       2.030   8.517  18.101  0.00  0.00    +0.000 A 
ATOM      5  C   UNL     1       2.557   7.328  18.646  0.00  0.00    +0.000 A 
ATOM      6  C   UNL     1       2.243   7.038  19.989  0.00  0.00    +0.000 A 
ATOM      7  C   UNL     1       1.438   7.885  20.756  0.00  0.00    +0.000 A 
ATOM      8  C   UNL     1       0.945   9.054  20.190  0.00  0.00    +0.000 A 
ATOM      9  N   UNL     1       0.149   9.916  20.950  0.00  0.00    +0.000 N 
ATOM     10  C   UNL     1      -0.360  11.087  20.465  0.00  0.00    +0.000 A 
ATOM     11  O   UNL     1      -1.060  11.823  21.159  0.00  0.00    +0.000 OA
ATOM     12  H   UNL     1      -0.077   9.686  21.910  0.00  0.00    +0.000 HD
ENDROOT
BRANCH   5  13
ATOM     13  C   UNL     1       3.412   6.420  17.842  0.00  0.00    +0.000 A 
ATOM     14  C   UNL     1       4.468   6.913  17.051  0.00  0.00    +0.000 A 
ATOM     15  C   UNL     1       5.270   6.059  16.285  0.00  0.00    +0.000 A 
ATOM     16  C   UNL     1       5.040   4.688  16.308  0.00  0.00    +0.000 A 
ATOM     17 CL   UNL     1       6.025   3.637  15.371  0.00  0.00    +0.000 Cl
ATOM     18  C   UNL     1       4.013   4.167  17.086  0.00  0.00    +0.000 A 
ATOM     19  C   UNL     1       3.204   5.027  17.838  0.00  0.00    +0.000 A 
ENDBRANCH   5  13
BRANCH   1  21
ATOM     20  O   UNL     1      -0.206  13.827  18.849  0.00  0.00    +0.000 OA
ATOM     21  C   UNL     1      -0.527  12.718  18.447  0.00  0.00    +0.000 C 
BRANCH  21  22
ATOM     22  O   UNL     1      -1.360  12.556  17.396  0.00  0.00    +0.000 OA
ATOM     23  H   UNL     1      -2.130  13.174  17.384  0.00  0.00    +0.000 HD
ENDBRANCH  21  22
ENDBRANCH   1  21
TORSDOF 3
ENDMDL
MODEL 7
REMARK VINA RESULT:      -7.6      5.606      8.201
REMARK  Name = 
REMARK  3 active torsions:
REMARK  status: ('A' for Active; 'I' for Inactive)
REMARK    1  A    between atoms: C_2  and  O_3
REMARK    2  A    between atoms: C_2  and  C_4
REMARK    3  A    between atoms: C_8  and  C_9
REMARK                            x       y       z     vdW  Elec       q    Type
REMARK                         _______ _______ _______ _____ _____    ______ ____
ROOT
ATOM      1  C   UNL     1       0.025  11.465  19.124  0.00  0.00    +0.000 A 
ATOM      2  C   UNL     1       0.784  10.655  18.362  0.00  0.00    +0.000 A 
ATOM      3  C   UNL     1       1.285   9.383  18.889  0.00  0.00    +0.000 A 
ATOM      4  C   UNL     1       2.079   8.528  18.110  0.00  0.00    +0.000 A 
ATOM      5  C   UNL     1       2.585   7.319  18.629  0.00  0.00    +0.000 A 
ATOM      6  C   UNL     1       2.251   6.996  19.960  0.00  0.00    +0.000 A 
ATOM      7  C   UNL     1       1.444   7.831  20.739  0.00  0.00    +0.000 A 
ATOM      8  C   UNL     1       0.971   9.020  20.199  0.00  0.00    +0.000 A 
ATOM      9  N   UNL     1       0.174   9.869  20.972  0.00  0.00    +0.000 N 
ATOM     10  C   UNL     1      -0.315  11.059  20.512  0.00  0.00    +0.000 A 
ATOM     11  O   UNL     1      -1.017  11.783  21.217  0.00  0.00    +0.000 OA
ATOM     12  H   UNL     1      -0.066   9.616  21.922  0.00  0.00    +0.000 HD
ENDROOT
BRANCH   5  13
ATOM     13  C   UNL     1       3.441   6.424  17.812  0.00  0.00    +0.000 A 
ATOM     14  C   UNL     1       3.263   5.026  17.822  0.00  0.00    +0.000 A 
ATOM     15  C   UNL     1       4.075   4.179  17.060  0.00  0.00    +0.000 A 
ATOM     16  C   UNL     1       5.075   4.717  16.257  0.00  0.00    +0.000 A 
ATOM     17 CL   UNL     1       6.072   3.678  15.318  0.00  0.00    +0.000 Cl
ATOM     18  C   UNL     1       5.271   6.092  16.216  0.00  0.00    +0.000 A 
ATOM     19  C   UNL     1       4.466   6.934  16.992  0.00  0.00    +0.000 A 
ENDBRANCH   5  13
BRANCH   1  21
ATOM     20  O   UNL     1      -0.115  13.841  18.977  0.00  0.00    +0.000 OA
ATOM     21  C   UNL     1      -0.438  12.746  18.538  0.00  0.00    +0.000 C 
BRANCH  21  22
ATOM     22  O   UNL     1      -1.254  12.622  17.468  0.00  0.00    +0.000 OA
ATOM     23  H   UNL     1      -1.611  13.476  17.123  0.00  0.00    +0.000 HD
ENDBRANCH  21  22
ENDBRANCH   1  21
TORSDOF 3
ENDMDL
MODEL 8
REMARK VINA RESULT:      -7.3      1.447      1.956
REMARK  Name = 
REMARK  3 active torsions:
REMARK  status: ('A' for Active; 'I' for Inactive)
REMARK    1  A    between atoms: C_2  and  O_3
REMARK    2  A    between atoms: C_2  and  C_4
REMARK    3  A    between atoms: C_8  and  C_9
REMARK                            x       y       z     vdW  Elec       q    Type
REMARK                         _______ _______ _______ _____ _____    ______ ____
ROOT
ATOM      1  C   UNL     1       2.493   4.147  20.100  0.00  0.00    +0.000 A 
ATOM      2  C   UNL     1       1.871   5.129  20.781  0.00  0.00    +0.000 A 
ATOM      3  C   UNL     1       1.792   6.486  20.232  0.00  0.00    +0.000 A 
ATOM      4  C   UNL     1       1.151   7.521  20.928  0.00  0.00    +0.000 A 
ATOM      5  C   UNL     1       1.102   8.832  20.413  0.00  0.00    +0.000 A 
ATOM      6  C   UNL     1       1.712   9.060  19.163  0.00  0.00    +0.000 A 
ATOM      7  C   UNL     1       2.337   8.031  18.452  0.00  0.00    +0.000 A 
ATOM      8  C   UNL     1       2.376   6.753  18.994  0.00  0.00    +0.000 A 
ATOM      9  N   UNL     1       3.009   5.719  18.299  0.00  0.00    +0.000 N 
ATOM     10  C   UNL     1       3.097   4.442  18.776  0.00  0.00    +0.000 A 
ATOM     11  O   UNL     1       3.659   3.552  18.137  0.00  0.00    +0.000 OA
ATOM     12  H   UNL     1       3.433   5.897  17.397  0.00  0.00    +0.000 HD
ENDROOT
BRANCH   5  13
ATOM     13  C   UNL     1       0.440   9.933  21.157  0.00  0.00    +0.000 A 
ATOM     14  C   UNL     1       0.547  11.273  20.736  0.00  0.00    +0.000 A 
ATOM     15  C   UNL     1      -0.068  12.314  21.441  0.00  0.00    +0.000 A 
ATOM     16  C   UNL     1      -0.818  12.030  22.577  0.00  0.00    +0.000 A 
ATOM     17 CL   UNL     1      -1.577  13.306  23.444  0.00  0.00    +0.000 Cl
ATOM     18  C   UNL     1      -0.953  10.719  23.015  0.00  0.00    +0.000 A 
ATOM     19  C   UNL     1      -0.323   9.683  22.314  0.00  0.00    +0.000 A 
ENDBRANCH   5  13
BRANCH   1  21
ATOM     20  O   UNL     1       2.864   2.608  21.884  0.00  0.00    +0.000 OA
ATOM     21  C   UNL     1       2.553   2.799  20.716  0.00  0.00    +0.000 C 
BRANCH  21  22
ATOM     22  O   UNL     1       2.236   1.779  19.889  0.00  0.00    +0.000 OA
ATOM     23  H   UNL     1       1.279   1.723  19.655  0.00  0.00    +0.000 HD
ENDBRANCH  21  22
ENDBRANCH   1  21
TORSDOF 3
ENDMDL
MODEL 9
REMARK VINA RESULT:      -7.3      5.377      7.728
REMARK  Name = 
REMARK  3 active torsions:
REMARK  status: ('A' for Active; 'I' for Inactive)
REMARK    1  A    between atoms: C_2  and  O_3
REMARK    2  A    between atoms: C_2  and  C_4
REMARK    3  A    between atoms: C_8  and  C_9
REMARK                            x       y       z     vdW  Elec       q    Type
REMARK                         _______ _______ _______ _____ _____    ______ ____
ROOT
ATOM      1  C   UNL     1       0.057  10.758  21.412  0.00  0.00    +0.000 A 
ATOM      2  C   UNL     1       0.443   9.470  21.333  0.00  0.00    +0.000 A 
ATOM      3  C   UNL     1       1.133   8.966  20.142  0.00  0.00    +0.000 A 
ATOM      4  C   UNL     1       1.539   7.628  20.042  0.00  0.00    +0.000 A 
ATOM      5  C   UNL     1       2.175   7.138  18.883  0.00  0.00    +0.000 A 
ATOM      6  C   UNL     1       2.398   8.051  17.832  0.00  0.00    +0.000 A 
ATOM      7  C   UNL     1       2.014   9.392  17.929  0.00  0.00    +0.000 A 
ATOM      8  C   UNL     1       1.380   9.838  19.082  0.00  0.00    +0.000 A 
ATOM      9  N   UNL     1       0.980  11.174  19.186  0.00  0.00    +0.000 N 
ATOM     10  C   UNL     1       0.341  11.680  20.282  0.00  0.00    +0.000 A 
ATOM     11  O   UNL     1       0.005  12.861  20.345  0.00  0.00    +0.000 OA
ATOM     12  H   UNL     1       1.159  11.819  18.427  0.00  0.00    +0.000 HD
ENDROOT
BRANCH   5  13
ATOM     13  C   UNL     1       2.588   5.718  18.768  0.00  0.00    +0.000 A 
ATOM     14  C   UNL     1       1.916   4.823  17.912  0.00  0.00    +0.000 A 
ATOM     15  C   UNL     1       2.298   3.481  17.809  0.00  0.00    +0.000 A 
ATOM     16  C   UNL     1       3.375   3.009  18.551  0.00  0.00    +0.000 A 
ATOM     17 CL   UNL     1       3.848   1.362  18.424  0.00  0.00    +0.000 Cl
ATOM     18  C   UNL     1       4.067   3.867  19.397  0.00  0.00    +0.000 A 
ATOM     19  C   UNL     1       3.671   5.205  19.508  0.00  0.00    +0.000 A 
ENDBRANCH   5  13
BRANCH   1  21
ATOM     20  O   UNL     1      -1.369  10.468  23.301  0.00  0.00    +0.000 OA
ATOM     21  C   UNL     1      -0.650  11.202  22.638  0.00  0.00    +0.000 C 
BRANCH  21  22
ATOM     22  O   UNL     1      -0.445  12.493  22.979  0.00  0.00    +0.000 OA
ATOM     23  H   UNL     1       0.495  12.790  22.917  0.00  0.00    +0.000 HD
ENDBRANCH  21  22
ENDBRANCH   1  21
TORSDOF 3
ENDMDL
