MODEL 1
REMARK VINA RESULT:      -8.6      0.000      0.000
REMARK  Name = 
REMARK  5 active torsions:
REMARK  status: ('A' for Active; 'I' for Inactive)
REMARK    1  A    between atoms: C_1  and  C_2
REMARK    2  A    between atoms: C_5  and  S_6
REMARK    3  A    between atoms: S_6  and  C_9
REMARK    4  A    between atoms: C_19  and  C_20
REMARK    5  A    between atoms: C_28  and  C_29
REMARK                            x       y       z     vdW  Elec       q    Type
REMARK                         _______ _______ _______ _____ _____    ______ ____
ROOT
ATOM      1  C   UNL     1       4.056   5.857  17.803  0.00  0.00    +0.000 A 
ATOM      2  C   UNL     1       4.364   6.931  16.975  0.00  0.00    +0.000 A 
ATOM      3  N   UNL     1       3.746   8.126  17.008  0.00  0.00    +0.000 NA
ATOM      4  C   UNL     1       2.810   8.327  17.933  0.00  0.00    +0.000 A 
ATOM      5  C   UNL     1       2.228   9.584  17.946  0.00  0.00    +0.000 A 
ATOM      6  C   UNL     1       1.270   9.920  18.889  0.00  0.00    +0.000 A 
ATOM      7  F   UNL     1       0.731  11.145  18.883  0.00  0.00    +0.000 F 
ATOM      8  C   UNL     1       0.892   9.011  19.853  0.00  0.00    +0.000 A 
ATOM      9  C   UNL     1       1.479   7.745  19.855  0.00  0.00    +0.000 A 
ATOM     10  C   UNL     1       2.424   7.332  18.870  0.00  0.00    +0.000 A 
ATOM     11  C   UNL     1       3.016   6.006  18.763  0.00  0.00    +0.000 A 
ENDROOT
BRANCH  11  12
ATOM     12  C   UNL     1       2.472   4.866  19.591  0.00  0.00    +0.000 A 
ATOM     13  C   UNL     1       2.617   4.780  20.984  0.00  0.00    +0.000 A 
ATOM     14  C   UNL     1       2.179   3.678  21.730  0.00  0.00    +0.000 A 
ATOM     15  C   UNL     1       1.435   2.684  21.121  0.00  0.00    +0.000 A 
ATOM     16  C   UNL     1       1.191   2.772  19.759  0.00  0.00    +0.000 A 
ATOM     17 CL   UNL     1       0.149   1.629  19.005  0.00  0.00    +0.000 Cl
ATOM     18  C   UNL     1       1.758   3.803  18.999  0.00  0.00    +0.000 A 
ENDBRANCH  11  12
BRANCH   1  19
ATOM     19  S   UNL     1       5.005   4.386  17.543  0.00  0.00    +0.000 S 
ATOM     20  O   UNL     1       4.078   3.274  17.432  0.00  0.00    +0.000 OA
ATOM     21  O   UNL     1       6.074   4.379  18.537  0.00  0.00    +0.000 OA
BRANCH  19  26
ATOM     22  C   UNL     1       7.755   5.058  12.184  0.00  0.00    +0.000 C 
ATOM     23  C   UNL     1       7.106   4.798  13.517  0.00  0.00    +0.000 A 
ATOM     24  C   UNL     1       7.683   5.346  14.672  0.00  0.00    +0.000 A 
ATOM     25  C   UNL     1       7.075   5.180  15.913  0.00  0.00    +0.000 A 
ATOM     26  C   UNL     1       5.874   4.470  15.991  0.00  0.00    +0.000 A 
ATOM     27  C   UNL     1       5.317   3.864  14.868  0.00  0.00    +0.000 A 
ATOM     28  C   UNL     1       5.924   4.031  13.620  0.00  0.00    +0.000 A 
ATOM     29  C   UNL     1       5.284   3.398  12.415  0.00  0.00    +0.000 C 
ENDBRANCH  19  26
ENDBRANCH   1  19
TORSDOF 3
ENDMDL
MODEL 2
REMARK VINA RESULT:      -8.5      1.096      1.226
REMARK  Name = 
REMARK  5 active torsions:
REMARK  status: ('A' for Active; 'I' for Inactive)
REMARK    1  A    between atoms: C_1  and  C_2
REMARK    2  A    between atoms: C_5  and  S_6
REMARK    3  A    between atoms: S_6  and  C_9
REMARK    4  A    between atoms: C_19  and  C_20
REMARK    5  A    between atoms: C_28  and  C_29
REMARK                            x       y       z     vdW  Elec       q    Type
REMARK                         _______ _______ _______ _____ _____    ______ ____
ROOT
ATOM      1  C   UNL     1       4.060   5.618  17.694  0.00  0.00    +0.000 A 
ATOM      2  C   UNL     1       4.252   6.684  16.823  0.00  0.00    +0.000 A 
ATOM      3  N   UNL     1       3.621   7.870  16.912  0.00  0.00    +0.000 NA
ATOM      4  C   UNL     1       2.794   8.069  17.936  0.00  0.00    +0.000 A 
ATOM      5  C   UNL     1       2.196   9.317  18.001  0.00  0.00    +0.000 A 
ATOM      6  C   UNL     1       1.347   9.651  19.044  0.00  0.00    +0.000 A 
ATOM      7  F   UNL     1       0.790  10.868  19.085  0.00  0.00    +0.000 F 
ATOM      8  C   UNL     1       1.098   8.750  20.055  0.00  0.00    +0.000 A 
ATOM      9  C   UNL     1       1.703   7.494  20.006  0.00  0.00    +0.000 A 
ATOM     10  C   UNL     1       2.535   7.081  18.923  0.00  0.00    +0.000 A 
ATOM     11  C   UNL     1       3.135   5.763  18.766  0.00  0.00    +0.000 A 
ENDROOT
BRANCH  11  12
ATOM     12  C   UNL     1       2.709   4.628  19.665  0.00  0.00    +0.000 A 
ATOM     13  C   UNL     1       1.371   4.340  19.973  0.00  0.00    +0.000 A 
ATOM     14  C   UNL     1       0.994   3.335  20.873  0.00  0.00    +0.000 A 
ATOM     15  C   UNL     1       1.947   2.472  21.384  0.00  0.00    +0.000 A 
ATOM     16  C   UNL     1       3.275   2.665  21.037  0.00  0.00    +0.000 A 
ATOM     17 CL   UNL     1       4.460   1.523  21.541  0.00  0.00    +0.000 Cl
ATOM     18  C   UNL     1       3.655   3.762  20.253  0.00  0.00    +0.000 A 
ENDBRANCH  11  12
BRANCH   1  19
ATOM     19  S   UNL     1       4.998   4.158  17.345  0.00  0.00    +0.000 S 
ATOM     20  O   UNL     1       4.065   3.055  17.201  0.00  0.00    +0.000 OA
ATOM     21  O   UNL     1       6.088   4.102  18.314  0.00  0.00    +0.000 OA
BRANCH  19  26
ATOM     22  C   UNL     1       7.621   5.066  11.958  0.00  0.00    +0.000 C 
ATOM     23  C   UNL     1       7.006   4.749  13.294  0.00  0.00    +0.000 A 
ATOM     24  C   UNL     1       7.589   5.283  14.453  0.00  0.00    +0.000 A 
ATOM     25  C   UNL     1       7.010   5.063  15.701  0.00  0.00    +0.000 A 
ATOM     26  C   UNL     1       5.834   4.313  15.780  0.00  0.00    +0.000 A 
ATOM     27  C   UNL     1       5.274   3.721  14.651  0.00  0.00    +0.000 A 
ATOM     28  C   UNL     1       5.851   3.942  13.397  0.00  0.00    +0.000 A 
ATOM     29  C   UNL     1       5.209   3.322  12.187  0.00  0.00    +0.000 C 
ENDBRANCH  19  26
ENDBRANCH   1  19
TORSDOF 3
ENDMDL
MODEL 3
REMARK VINA RESULT:      -8.1      9.691     13.076
REMARK  Name = 
REMARK  5 active torsions:
REMARK  status: ('A' for Active; 'I' for Inactive)
REMARK    1  A    between atoms: C_1  and  C_2
REMARK    2  A    between atoms: C_5  and  S_6
REMARK    3  A    between atoms: S_6  and  C_9
REMARK    4  A    between atoms: C_19  and  C_20
REMARK    5  A    between atoms: C_28  and  C_29
REMARK                            x       y       z     vdW  Elec       q    Type
REMARK                         _______ _______ _______ _____ _____    ______ ____
ROOT
ATOM      1  C   UNL     1      -5.234  12.711  20.122  0.00  0.00    +0.000 A 
ATOM      2  C   UNL     1      -6.107  12.437  19.075  0.00  0.00    +0.000 A 
ATOM      3  N   UNL     1      -5.737  11.947  17.877  0.00  0.00    +0.000 NA
ATOM      4  C   UNL     1      -4.455  11.644  17.689  0.00  0.00    +0.000 A 
ATOM      5  C   UNL     1      -4.132  11.112  16.450  0.00  0.00    +0.000 A 
ATOM      6  C   UNL     1      -2.836  10.723  16.154  0.00  0.00    +0.000 A 
ATOM      7  F   UNL     1      -2.554  10.204  14.953  0.00  0.00    +0.000 F 
ATOM      8  C   UNL     1      -1.840  10.839  17.100  0.00  0.00    +0.000 A 
ATOM      9  C   UNL     1      -2.156  11.364  18.353  0.00  0.00    +0.000 A 
ATOM     10  C   UNL     1      -3.461  11.834  18.685  0.00  0.00    +0.000 A 
ATOM     11  C   UNL     1      -3.844  12.465  19.941  0.00  0.00    +0.000 A 
ENDROOT
BRANCH  11  12
ATOM     12  C   UNL     1      -2.783  12.885  20.929  0.00  0.00    +0.000 A 
ATOM     13  C   UNL     1      -2.442  12.138  22.067  0.00  0.00    +0.000 A 
ATOM     14  C   UNL     1      -1.514  12.579  23.019  0.00  0.00    +0.000 A 
ATOM     15  C   UNL     1      -0.773  13.723  22.783  0.00  0.00    +0.000 A 
ATOM     16  C   UNL     1      -1.015  14.448  21.627  0.00  0.00    +0.000 A 
ATOM     17 CL   UNL     1      -0.012  15.791  21.239  0.00  0.00    +0.000 Cl
ATOM     18  C   UNL     1      -2.047  14.076  20.755  0.00  0.00    +0.000 A 
ENDBRANCH  11  12
BRANCH   1  19
ATOM     19  S   UNL     1      -5.972  13.371  21.589  0.00  0.00    +0.000 S 
ATOM     20  O   UNL     1      -5.818  12.387  22.645  0.00  0.00    +0.000 OA
ATOM     21  O   UNL     1      -7.288  13.882  21.220  0.00  0.00    +0.000 OA
BRANCH  19  26
ATOM     22  C   UNL     1      -2.623  18.149  23.230  0.00  0.00    +0.000 C 
ATOM     23  C   UNL     1      -3.525  16.995  22.883  0.00  0.00    +0.000 A 
ATOM     24  C   UNL     1      -4.183  16.996  21.645  0.00  0.00    +0.000 A 
ATOM     25  C   UNL     1      -4.974  15.915  21.264  0.00  0.00    +0.000 A 
ATOM     26  C   UNL     1      -5.094  14.825  22.129  0.00  0.00    +0.000 A 
ATOM     27  C   UNL     1      -4.503  14.830  23.389  0.00  0.00    +0.000 A 
ATOM     28  C   UNL     1      -3.705  15.913  23.773  0.00  0.00    +0.000 A 
ATOM     29  C   UNL     1      -3.046  15.880  25.124  0.00  0.00    +0.000 C 
ENDBRANCH  19  26
ENDBRANCH   1  19
TORSDOF 3
ENDMDL
MODEL 4
REMARK VINA RESULT:      -8.1      6.281      9.114
REMARK  Name = 
REMARK  5 active torsions:
REMARK  status: ('A' for Active; 'I' for Inactive)
REMARK    1  A    between atoms: C_1  and  C_2
REMARK    2  A    between atoms: C_5  and  S_6
REMARK    3  A    between atoms: S_6  and  C_9
REMARK    4  A    between atoms: C_19  and  C_20
REMARK    5  A    between atoms: C_28  and  C_29
REMARK                            x       y       z     vdW  Elec       q    Type
REMARK                         _______ _______ _______ _____ _____    ______ ____
ROOT
ATOM      1  C   UNL     1      -1.467  11.503  19.676  0.00  0.00    +0.000 A 
ATOM      2  C   UNL     1      -1.640  10.784  18.500  0.00  0.00    +0.000 A 
ATOM      3  N   UNL     1      -2.782  10.738  17.789  0.00  0.00    +0.000 NA
ATOM      4  C   UNL     1      -3.810  11.477  18.201  0.00  0.00    +0.000 A 
ATOM      5  C   UNL     1      -4.952  11.421  17.416  0.00  0.00    +0.000 A 
ATOM      6  C   UNL     1      -6.070  12.178  17.725  0.00  0.00    +0.000 A 
ATOM      7  F   UNL     1      -7.155  12.110  16.945  0.00  0.00    +0.000 F 
ATOM      8  C   UNL     1      -6.061  13.023  18.813  0.00  0.00    +0.000 A 
ATOM      9  C   UNL     1      -4.914  13.094  19.603  0.00  0.00    +0.000 A 
ATOM     10  C   UNL     1      -3.760  12.291  19.363  0.00  0.00    +0.000 A 
ATOM     11  C   UNL     1      -2.561  12.255  20.189  0.00  0.00    +0.000 A 
ENDROOT
BRANCH  11  12
ATOM     12  C   UNL     1      -2.555  12.929  21.540  0.00  0.00    +0.000 A 
ATOM     13  C   UNL     1      -1.871  14.124  21.809  0.00  0.00    +0.000 A 
ATOM     14  C   UNL     1      -1.806  14.695  23.087  0.00  0.00    +0.000 A 
ATOM     15  C   UNL     1      -2.559  14.166  24.119  0.00  0.00    +0.000 A 
ATOM     16  C   UNL     1      -3.321  13.033  23.877  0.00  0.00    +0.000 A 
ATOM     17 CL   UNL     1      -4.377  12.440  25.099  0.00  0.00    +0.000 Cl
ATOM     18  C   UNL     1      -3.263  12.388  22.634  0.00  0.00    +0.000 A 
ENDBRANCH  11  12
BRANCH   1  19
ATOM     19  S   UNL     1       0.130  11.379  20.430  0.00  0.00    +0.000 S 
ATOM     20  O   UNL     1      -0.065  11.062  21.833  0.00  0.00    +0.000 OA
ATOM     21  O   UNL     1       0.894  12.554  20.021  0.00  0.00    +0.000 OA
BRANCH  19  26
ATOM     22  C   UNL     1       2.867   6.624  17.855  0.00  0.00    +0.000 C 
ATOM     23  C   UNL     1       2.267   7.816  18.551  0.00  0.00    +0.000 A 
ATOM     24  C   UNL     1       2.206   9.040  17.869  0.00  0.00    +0.000 A 
ATOM     25  C   UNL     1       1.600  10.148  18.457  0.00  0.00    +0.000 A 
ATOM     26  C   UNL     1       1.045  10.019  19.732  0.00  0.00    +0.000 A 
ATOM     27  C   UNL     1       1.150   8.833  20.453  0.00  0.00    +0.000 A 
ATOM     28  C   UNL     1       1.755   7.718  19.864  0.00  0.00    +0.000 A 
ATOM     29  C   UNL     1       1.825   6.436  20.647  0.00  0.00    +0.000 C 
ENDBRANCH  19  26
ENDBRANCH   1  19
TORSDOF 3
ENDMDL
MODEL 5
REMARK VINA RESULT:      -8.0      5.939      8.708
REMARK  Name = 
REMARK  5 active torsions:
REMARK  status: ('A' for Active; 'I' for Inactive)
REMARK    1  A    between atoms: C_1  and  C_2
REMARK    2  A    between atoms: C_5  and  S_6
REMARK    3  A    between atoms: S_6  and  C_9
REMARK    4  A    between atoms: C_19  and  C_20
REMARK    5  A    between atoms: C_28  and  C_29
REMARK                            x       y       z     vdW  Elec       q    Type
REMARK                         _______ _______ _______ _____ _____    ______ ____
ROOT
ATOM      1  C   UNL     1      -0.908  11.113  19.447  0.00  0.00    +0.000 A 
ATOM      2  C   UNL     1      -1.264  10.284  18.390  0.00  0.00    +0.000 A 
ATOM      3  N   UNL     1      -2.496  10.216  17.850  0.00  0.00    +0.000 NA
ATOM      4  C   UNL     1      -3.434  11.037  18.316  0.00  0.00    +0.000 A 
ATOM      5  C   UNL     1      -4.675  10.951  17.705  0.00  0.00    +0.000 A 
ATOM      6  C   UNL     1      -5.717  11.783  18.081  0.00  0.00    +0.000 A 
ATOM      7  F   UNL     1      -6.903  11.684  17.467  0.00  0.00    +0.000 F 
ATOM      8  C   UNL     1      -5.531  12.734  19.060  0.00  0.00    +0.000 A 
ATOM      9  C   UNL     1      -4.283  12.836  19.675  0.00  0.00    +0.000 A 
ATOM     10  C   UNL     1      -3.198  11.964  19.366  0.00  0.00    +0.000 A 
ATOM     11  C   UNL     1      -1.897  11.960  20.020  0.00  0.00    +0.000 A 
ENDROOT
BRANCH  11  12
ATOM     12  C   UNL     1      -1.682  12.768  21.278  0.00  0.00    +0.000 A 
ATOM     13  C   UNL     1      -2.148  12.376  22.542  0.00  0.00    +0.000 A 
ATOM     14  C   UNL     1      -2.012  13.173  23.686  0.00  0.00    +0.000 A 
ATOM     15  C   UNL     1      -1.262  14.334  23.634  0.00  0.00    +0.000 A 
ATOM     16  C   UNL     1      -0.707  14.716  22.423  0.00  0.00    +0.000 A 
ATOM     17 CL   UNL     1       0.348  16.074  22.360  0.00  0.00    +0.000 Cl
ATOM     18  C   UNL     1      -0.972  13.987  21.256  0.00  0.00    +0.000 A 
ENDBRANCH  11  12
BRANCH   1  19
ATOM     19  S   UNL     1       0.775  10.997  19.985  0.00  0.00    +0.000 S 
ATOM     20  O   UNL     1       0.773  10.925  21.435  0.00  0.00    +0.000 OA
ATOM     21  O   UNL     1       1.527  12.032  19.282  0.00  0.00    +0.000 OA
BRANCH  19  26
ATOM     22  C   UNL     1       2.884   5.732  17.848  0.00  0.00    +0.000 C 
ATOM     23  C   UNL     1       2.443   7.047  18.432  0.00  0.00    +0.000 A 
ATOM     24  C   UNL     1       2.504   8.199  17.635  0.00  0.00    +0.000 A 
ATOM     25  C   UNL     1       2.044   9.420  18.121  0.00  0.00    +0.000 A 
ATOM     26  C   UNL     1       1.510   9.480  19.410  0.00  0.00    +0.000 A 
ATOM     27  C   UNL     1       1.499   8.363  20.242  0.00  0.00    +0.000 A 
ATOM     28  C   UNL     1       1.957   7.135  19.756  0.00  0.00    +0.000 A 
ATOM     29  C   UNL     1       1.900   5.934  20.660  0.00  0.00    +0.000 C 
ENDBRANCH  19  26
ENDBRANCH   1  19
TORSDOF 3
ENDMDL
MODEL 6
REMARK VINA RESULT:      -8.0      9.120     11.009
REMARK  Name = 
REMARK  5 active torsions:
REMARK  status: ('A' for Active; 'I' for Inactive)
REMARK    1  A    between atoms: C_1  and  C_2
REMARK    2  A    between atoms: C_5  and  S_6
REMARK    3  A    between atoms: S_6  and  C_9
REMARK    4  A    between atoms: C_19  and  C_20
REMARK    5  A    between atoms: C_28  and  C_29
REMARK                            x       y       z     vdW  Elec       q    Type
REMARK                         _______ _______ _______ _____ _____    ______ ____
ROOT
ATOM      1  C   UNL     1       6.769  14.279  22.243  0.00  0.00    +0.000 A 
ATOM      2  C   UNL     1       5.769  13.999  23.167  0.00  0.00    +0.000 A 
ATOM      3  N   UNL     1       4.450  14.129  22.932  0.00  0.00    +0.000 NA
ATOM      4  C   UNL     1       4.060  14.495  21.713  0.00  0.00    +0.000 A 
ATOM      5  C   UNL     1       2.691  14.582  21.514  0.00  0.00    +0.000 A 
ATOM      6  C   UNL     1       2.168  14.916  20.275  0.00  0.00    +0.000 A 
ATOM      7  F   UNL     1       0.841  14.983  20.109  0.00  0.00    +0.000 F 
ATOM      8  C   UNL     1       3.004  15.149  19.205  0.00  0.00    +0.000 A 
ATOM      9  C   UNL     1       4.383  15.054  19.393  0.00  0.00    +0.000 A 
ATOM     10  C   UNL     1       4.972  14.773  20.661  0.00  0.00    +0.000 A 
ATOM     11  C   UNL     1       6.399  14.738  20.948  0.00  0.00    +0.000 A 
ENDROOT
BRANCH  11  12
ATOM     12  C   UNL     1       7.388  15.242  19.923  0.00  0.00    +0.000 A 
ATOM     13  C   UNL     1       7.744  14.527  18.770  0.00  0.00    +0.000 A 
ATOM     14  C   UNL     1       8.722  14.969  17.870  0.00  0.00    +0.000 A 
ATOM     15  C   UNL     1       9.275  16.229  18.014  0.00  0.00    +0.000 A 
ATOM     16  C   UNL     1       8.887  17.007  19.093  0.00  0.00    +0.000 A 
ATOM     17 CL   UNL     1       9.447  18.630  19.216  0.00  0.00    +0.000 Cl
ATOM     18  C   UNL     1       8.017  16.496  20.065  0.00  0.00    +0.000 A 
ENDBRANCH  11  12
BRANCH   1  19
ATOM     19  S   UNL     1       8.430  14.047  22.809  0.00  0.00    +0.000 S 
ATOM     20  O   UNL     1       8.394  13.104  23.913  0.00  0.00    +0.000 OA
ATOM     21  O   UNL     1       9.023  15.371  22.967  0.00  0.00    +0.000 OA
BRANCH  19  26
ATOM     22  C   UNL     1      11.570  11.705  18.184  0.00  0.00    +0.000 C 
ATOM     23  C   UNL     1      10.832  12.219  19.391  0.00  0.00    +0.000 A 
ATOM     24  C   UNL     1      11.248  13.423  19.979  0.00  0.00    +0.000 A 
ATOM     25  C   UNL     1      10.550  13.962  21.057  0.00  0.00    +0.000 A 
ATOM     26  C   UNL     1       9.423  13.291  21.538  0.00  0.00    +0.000 A 
ATOM     27  C   UNL     1       9.030  12.064  21.011  0.00  0.00    +0.000 A 
ATOM     28  C   UNL     1       9.727  11.522  19.927  0.00  0.00    +0.000 A 
ATOM     29  C   UNL     1       9.262  10.213  19.351  0.00  0.00    +0.000 C 
ENDBRANCH  19  26
ENDBRANCH   1  19
TORSDOF 3
ENDMDL
MODEL 7
REMARK VINA RESULT:      -8.0      5.205      8.125
REMARK  Name = 
REMARK  5 active torsions:
REMARK  status: ('A' for Active; 'I' for Inactive)
REMARK    1  A    between atoms: C_1  and  C_2
REMARK    2  A    between atoms: C_5  and  S_6
REMARK    3  A    between atoms: S_6  and  C_9
REMARK    4  A    between atoms: C_19  and  C_20
REMARK    5  A    between atoms: C_28  and  C_29
REMARK                            x       y       z     vdW  Elec       q    Type
REMARK                         _______ _______ _______ _____ _____    ______ ____
ROOT
ATOM      1  C   UNL     1       0.677  11.970  20.369  0.00  0.00    +0.000 A 
ATOM      2  C   UNL     1       1.935  12.446  20.716  0.00  0.00    +0.000 A 
ATOM      3  N   UNL     1       2.410  13.664  20.394  0.00  0.00    +0.000 NA
ATOM      4  C   UNL     1       1.605  14.502  19.745  0.00  0.00    +0.000 A 
ATOM      5  C   UNL     1       2.130  15.755  19.465  0.00  0.00    +0.000 A 
ATOM      6  C   UNL     1       1.371  16.723  18.829  0.00  0.00    +0.000 A 
ATOM      7  F   UNL     1       1.901  17.926  18.580  0.00  0.00    +0.000 F 
ATOM      8  C   UNL     1       0.063  16.465  18.479  0.00  0.00    +0.000 A 
ATOM      9  C   UNL     1      -0.478  15.212  18.765  0.00  0.00    +0.000 A 
ATOM     10  C   UNL     1       0.281  14.162  19.363  0.00  0.00    +0.000 A 
ATOM     11  C   UNL     1      -0.193  12.809  19.618  0.00  0.00    +0.000 A 
ENDROOT
BRANCH  11  12
ATOM     12  C   UNL     1      -1.505  12.345  19.031  0.00  0.00    +0.000 A 
ATOM     13  C   UNL     1      -2.743  12.511  19.669  0.00  0.00    +0.000 A 
ATOM     14  C   UNL     1      -3.942  12.003  19.151  0.00  0.00    +0.000 A 
ATOM     15  C   UNL     1      -3.965  11.440  17.888  0.00  0.00    +0.000 A 
ATOM     16  C   UNL     1      -2.777  11.333  17.183  0.00  0.00    +0.000 A 
ATOM     17 CL   UNL     1      -2.800  10.771  15.557  0.00  0.00    +0.000 Cl
ATOM     18  C   UNL     1      -1.563  11.712  17.771  0.00  0.00    +0.000 A 
ENDBRANCH  11  12
BRANCH   1  19
ATOM     19  S   UNL     1       0.302  10.322  20.898  0.00  0.00    +0.000 S 
ATOM     20  O   UNL     1      -1.090  10.061  20.582  0.00  0.00    +0.000 OA
ATOM     21  O   UNL     1       0.805  10.180  22.261  0.00  0.00    +0.000 OA
BRANCH  19  26
ATOM     22  C   UNL     1       3.169   6.132  17.588  0.00  0.00    +0.000 C 
ATOM     23  C   UNL     1       2.542   7.190  18.456  0.00  0.00    +0.000 A 
ATOM     24  C   UNL     1       2.256   8.445  17.899  0.00  0.00    +0.000 A 
ATOM     25  C   UNL     1       1.618   9.425  18.654  0.00  0.00    +0.000 A 
ATOM     26  C   UNL     1       1.257   9.137  19.973  0.00  0.00    +0.000 A 
ATOM     27  C   UNL     1       1.589   7.923  20.566  0.00  0.00    +0.000 A 
ATOM     28  C   UNL     1       2.226   6.935  19.809  0.00  0.00    +0.000 A 
ATOM     29  C   UNL     1       2.541   5.616  20.461  0.00  0.00    +0.000 C 
ENDBRANCH  19  26
ENDBRANCH   1  19
TORSDOF 3
ENDMDL
MODEL 8
REMARK VINA RESULT:      -7.9      6.280      9.171
REMARK  Name = 
REMARK  5 active torsions:
REMARK  status: ('A' for Active; 'I' for Inactive)
REMARK    1  A    between atoms: C_1  and  C_2
REMARK    2  A    between atoms: C_5  and  S_6
REMARK    3  A    between atoms: S_6  and  C_9
REMARK    4  A    between atoms: C_19  and  C_20
REMARK    5  A    between atoms: C_28  and  C_29
REMARK                            x       y       z     vdW  Elec       q    Type
REMARK                         _______ _______ _______ _____ _____    ______ ____
ROOT
ATOM      1  C   UNL     1      -1.464  11.436  19.796  0.00  0.00    +0.000 A 
ATOM      2  C   UNL     1      -1.650  10.695  18.634  0.00  0.00    +0.000 A 
ATOM      3  N   UNL     1      -2.786  10.674  17.912  0.00  0.00    +0.000 NA
ATOM      4  C   UNL     1      -3.791  11.459  18.295  0.00  0.00    +0.000 A 
ATOM      5  C   UNL     1      -4.925  11.426  17.500  0.00  0.00    +0.000 A 
ATOM      6  C   UNL     1      -6.019  12.230  17.779  0.00  0.00    +0.000 A 
ATOM      7  F   UNL     1      -7.098  12.183  16.988  0.00  0.00    +0.000 F 
ATOM      8  C   UNL     1      -5.990  13.099  18.847  0.00  0.00    +0.000 A 
ATOM      9  C   UNL     1      -4.849  13.148  19.648  0.00  0.00    +0.000 A 
ATOM     10  C   UNL     1      -3.723  12.298  19.439  0.00  0.00    +0.000 A 
ATOM     11  C   UNL     1      -2.535  12.238  20.279  0.00  0.00    +0.000 A 
ENDROOT
BRANCH  11  12
ATOM     12  C   UNL     1      -2.518  12.943  21.614  0.00  0.00    +0.000 A 
ATOM     13  C   UNL     1      -1.821  14.137  21.854  0.00  0.00    +0.000 A 
ATOM     14  C   UNL     1      -1.747  14.736  23.118  0.00  0.00    +0.000 A 
ATOM     15  C   UNL     1      -2.503  14.238  24.164  0.00  0.00    +0.000 A 
ATOM     16  C   UNL     1      -3.276  13.109  23.950  0.00  0.00    +0.000 A 
ATOM     17 CL   UNL     1      -4.335  12.554  25.188  0.00  0.00    +0.000 Cl
ATOM     18  C   UNL     1      -3.228  12.434  22.722  0.00  0.00    +0.000 A 
ENDBRANCH  11  12
BRANCH   1  19
ATOM     19  S   UNL     1       0.120  11.272  20.569  0.00  0.00    +0.000 S 
ATOM     20  O   UNL     1      -0.080  11.331  22.006  0.00  0.00    +0.000 OA
ATOM     21  O   UNL     1       1.029  12.194  19.896  0.00  0.00    +0.000 OA
BRANCH  19  26
ATOM     22  C   UNL     1       2.867   5.955  19.611  0.00  0.00    +0.000 C 
ATOM     23  C   UNL     1       2.115   7.247  19.786  0.00  0.00    +0.000 A 
ATOM     24  C   UNL     1       1.387   7.454  20.967  0.00  0.00    +0.000 A 
ATOM     25  C   UNL     1       0.731   8.662  21.191  0.00  0.00    +0.000 A 
ATOM     26  C   UNL     1       0.819   9.669  20.227  0.00  0.00    +0.000 A 
ATOM     27  C   UNL     1       1.482   9.463  19.021  0.00  0.00    +0.000 A 
ATOM     28  C   UNL     1       2.144   8.252  18.794  0.00  0.00    +0.000 A 
ATOM     29  C   UNL     1       2.885   8.065  17.499  0.00  0.00    +0.000 C 
ENDBRANCH  19  26
ENDBRANCH   1  19
TORSDOF 3
ENDMDL
MODEL 9
REMARK VINA RESULT:      -7.9      9.285     12.082
REMARK  Name = 
REMARK  5 active torsions:
REMARK  status: ('A' for Active; 'I' for Inactive)
REMARK    1  A    between atoms: C_1  and  C_2
REMARK    2  A    between atoms: C_5  and  S_6
REMARK    3  A    between atoms: S_6  and  C_9
REMARK    4  A    between atoms: C_19  and  C_20
REMARK    5  A    between atoms: C_28  and  C_29
REMARK                            x       y       z     vdW  Elec       q    Type
REMARK                         _______ _______ _______ _____ _____    ______ ____
ROOT
ATOM      1  C   UNL     1      -4.738  12.624  19.660  0.00  0.00    +0.000 A 
ATOM      2  C   UNL     1      -5.781  12.593  18.741  0.00  0.00    +0.000 A 
ATOM      3  N   UNL     1      -5.680  12.130  17.481  0.00  0.00    +0.000 NA
ATOM      4  C   UNL     1      -4.519  11.607  17.094  0.00  0.00    +0.000 A 
ATOM      5  C   UNL     1      -4.476  11.113  15.799  0.00  0.00    +0.000 A 
ATOM      6  C   UNL     1      -3.333  10.511  15.299  0.00  0.00    +0.000 A 
ATOM      7  F   UNL     1      -3.324  10.036  14.048  0.00  0.00    +0.000 F 
ATOM      8  C   UNL     1      -2.216  10.372  16.093  0.00  0.00    +0.000 A 
ATOM      9  C   UNL     1      -2.251  10.856  17.401  0.00  0.00    +0.000 A 
ATOM     10  C   UNL     1      -3.382  11.536  17.941  0.00  0.00    +0.000 A 
ATOM     11  C   UNL     1      -3.461  12.136  19.266  0.00  0.00    +0.000 A 
ENDROOT
BRANCH  11  12
ATOM     12  C   UNL     1      -2.214  12.279  20.106  0.00  0.00    +0.000 A 
ATOM     13  C   UNL     1      -1.285  13.318  19.947  0.00  0.00    +0.000 A 
ATOM     14  C   UNL     1      -0.092  13.393  20.677  0.00  0.00    +0.000 A 
ATOM     15  C   UNL     1       0.142  12.505  21.711  0.00  0.00    +0.000 A 
ATOM     16  C   UNL     1      -0.792  11.513  21.962  0.00  0.00    +0.000 A 
ATOM     17 CL   UNL     1      -0.598  10.487  23.331  0.00  0.00    +0.000 Cl
ATOM     18  C   UNL     1      -1.910  11.359  21.131  0.00  0.00    +0.000 A 
ENDBRANCH  11  12
BRANCH   1  19
ATOM     19  S   UNL     1      -5.127  13.305  21.246  0.00  0.00    +0.000 S 
ATOM     20  O   UNL     1      -5.024  12.237  22.224  0.00  0.00    +0.000 OA
ATOM     21  O   UNL     1      -6.358  14.075  21.098  0.00  0.00    +0.000 OA
BRANCH  19  26
ATOM     22  C   UNL     1      -0.727  17.254  22.579  0.00  0.00    +0.000 C 
ATOM     23  C   UNL     1      -1.873  16.314  22.321  0.00  0.00    +0.000 A 
ATOM     24  C   UNL     1      -2.688  16.528  21.199  0.00  0.00    +0.000 A 
ATOM     25  C   UNL     1      -3.718  15.642  20.894  0.00  0.00    +0.000 A 
ATOM     26  C   UNL     1      -3.920  14.529  21.713  0.00  0.00    +0.000 A 
ATOM     27  C   UNL     1      -3.165  14.331  22.866  0.00  0.00    +0.000 A 
ATOM     28  C   UNL     1      -2.129  15.217  23.174  0.00  0.00    +0.000 A 
ATOM     29  C   UNL     1      -1.303  14.963  24.405  0.00  0.00    +0.000 C 
ENDBRANCH  19  26
ENDBRANCH   1  19
TORSDOF 3
ENDMDL
