MODEL 1
REMARK VINA RESULT:      -7.4      0.000      0.000
REMARK  Name = 
REMARK  5 active torsions:
REMARK  status: ('A' for Active; 'I' for Inactive)
REMARK    1  A    between atoms: N_2  and  C_4
REMARK    2  A    between atoms: C_6  and  S_7
REMARK    3  A    between atoms: S_7  and  C_10
REMARK    4  A    between atoms: C_16  and  S_17
REMARK    5  A    between atoms: S_17  and  C_18
REMARK                            x       y       z     vdW  Elec       q    Type
REMARK                         _______ _______ _______ _____ _____    ______ ____
ROOT
ATOM      1  C   UNL     1       5.125   4.987  18.911  0.00  0.00    +0.000 A 
ATOM      2  C   UNL     1       4.246   4.062  19.505  0.00  0.00    +0.000 A 
ATOM      3  C   UNL     1       2.875   4.176  19.267  0.00  0.00    +0.000 A 
ATOM      4  C   UNL     1       2.383   5.207  18.465  0.00  0.00    +0.000 A 
ATOM      5  C   UNL     1       3.272   6.119  17.882  0.00  0.00    +0.000 A 
ATOM      6  C   UNL     1       4.664   6.021  18.075  0.00  0.00    +0.000 A 
ENDROOT
BRANCH   1   8
ATOM      7  O   UNL     1       7.163   4.082  18.373  0.00  0.00    +0.000 OA
ATOM      8  N   UNL     1       6.541   4.788  19.175  0.00  0.00    +0.000 N 
ATOM      9  O   UNL     1       7.030   5.377  20.147  0.00  0.00    +0.000 OA
ENDBRANCH   1   8
BRANCH   3  10
ATOM     10  S   UNL     1       1.764   2.884  19.828  0.00  0.00    +0.000 S 
ATOM     11  O   UNL     1       0.424   3.359  19.511  0.00  0.00    +0.000 OA
ATOM     12  O   UNL     1       2.253   1.666  19.199  0.00  0.00    +0.000 OA
BRANCH  10  13
ATOM     13  C   UNL     1       2.032   2.846  21.633  0.00  0.00    +0.000 C 
ATOM     14  F   UNL     1       2.287   4.085  22.146  0.00  0.00    +0.000 F 
ATOM     15  F   UNL     1       0.952   2.369  22.312  0.00  0.00    +0.000 F 
ATOM     16  F   UNL     1       3.090   2.063  21.986  0.00  0.00    +0.000 F 
ENDBRANCH  10  13
ENDBRANCH   3  10
BRANCH   6  17
ATOM     17  S   UNL     1       5.637   7.134  17.072  0.00  0.00    +0.000 S 
BRANCH  17  18
ATOM     18  C   UNL     1       6.314   6.162  15.814  0.00  0.00    +0.000 A 
ATOM     19  N   UNL     1       7.578   5.975  15.609  0.00  0.00    +0.000 NA
ATOM     20  N   UNL     1       7.728   5.111  14.556  0.00  0.00    +0.000 N 
ATOM     21  C   UNL     1       6.588   4.621  13.971  0.00  0.00    +0.000 A 
ATOM     22  S   UNL     1       6.569   3.507  12.749  0.00  0.00    +0.000 S 
ATOM     23  S   UNL     1       5.209   5.355  14.735  0.00  0.00    +0.000 S 
ATOM     24  H   UNL     1       8.655   4.791  14.297  0.00  0.00    +0.000 HD
ENDBRANCH  17  18
ENDBRANCH   6  17
TORSDOF 5
ENDMDL
MODEL 2
REMARK VINA RESULT:      -7.2      0.996      1.327
REMARK  Name = 
REMARK  5 active torsions:
REMARK  status: ('A' for Active; 'I' for Inactive)
REMARK    1  A    between atoms: N_2  and  C_4
REMARK    2  A    between atoms: C_6  and  S_7
REMARK    3  A    between atoms: S_7  and  C_10
REMARK    4  A    between atoms: C_16  and  S_17
REMARK    5  A    between atoms: S_17  and  C_18
REMARK                            x       y       z     vdW  Elec       q    Type
REMARK                         _______ _______ _______ _____ _____    ______ ____
ROOT
ATOM      1  C   UNL     1       5.785   4.945  18.976  0.00  0.00    +0.000 A 
ATOM      2  C   UNL     1       5.066   3.976  19.702  0.00  0.00    +0.000 A 
ATOM      3  C   UNL     1       3.682   3.892  19.538  0.00  0.00    +0.000 A 
ATOM      4  C   UNL     1       3.020   4.772  18.680  0.00  0.00    +0.000 A 
ATOM      5  C   UNL     1       3.751   5.730  17.966  0.00  0.00    +0.000 A 
ATOM      6  C   UNL     1       5.152   5.827  18.083  0.00  0.00    +0.000 A 
ENDROOT
BRANCH   1   8
ATOM      7  O   UNL     1       7.910   4.426  18.286  0.00  0.00    +0.000 OA
ATOM      8  N   UNL     1       7.226   4.953  19.171  0.00  0.00    +0.000 N 
ATOM      9  O   UNL     1       7.665   5.528  20.175  0.00  0.00    +0.000 OA
ENDBRANCH   1   8
BRANCH   3  10
ATOM     10  S   UNL     1       2.780   2.529  20.277  0.00  0.00    +0.000 S 
ATOM     11  O   UNL     1       2.430   1.649  19.170  0.00  0.00    +0.000 OA
ATOM     12  O   UNL     1       3.649   2.030  21.333  0.00  0.00    +0.000 OA
BRANCH  10  13
ATOM     13  C   UNL     1       1.293   3.328  20.970  0.00  0.00    +0.000 C 
ATOM     14  F   UNL     1       0.267   3.385  20.071  0.00  0.00    +0.000 F 
ATOM     15  F   UNL     1       0.806   2.671  22.060  0.00  0.00    +0.000 F 
ATOM     16  F   UNL     1       1.527   4.611  21.363  0.00  0.00    +0.000 F 
ENDBRANCH  10  13
ENDBRANCH   3  10
BRANCH   6  17
ATOM     17  S   UNL     1       5.920   6.955  16.928  0.00  0.00    +0.000 S 
BRANCH  17  18
ATOM     18  C   UNL     1       6.423   5.985  15.590  0.00  0.00    +0.000 A 
ATOM     19  N   UNL     1       7.645   5.841  15.186  0.00  0.00    +0.000 NA
ATOM     20  N   UNL     1       7.657   4.964  14.133  0.00  0.00    +0.000 N 
ATOM     21  C   UNL     1       6.458   4.421  13.746  0.00  0.00    +0.000 A 
ATOM     22  S   UNL     1       6.287   3.284  12.558  0.00  0.00    +0.000 S 
ATOM     23  S   UNL     1       5.191   5.117  14.714  0.00  0.00    +0.000 S 
ATOM     24  H   UNL     1       8.543   4.674  13.733  0.00  0.00    +0.000 HD
ENDBRANCH  17  18
ENDBRANCH   6  17
TORSDOF 5
ENDMDL
MODEL 3
REMARK VINA RESULT:      -7.1      1.637      1.916
REMARK  Name = 
REMARK  5 active torsions:
REMARK  status: ('A' for Active; 'I' for Inactive)
REMARK    1  A    between atoms: N_2  and  C_4
REMARK    2  A    between atoms: C_6  and  S_7
REMARK    3  A    between atoms: S_7  and  C_10
REMARK    4  A    between atoms: C_16  and  S_17
REMARK    5  A    between atoms: S_17  and  C_18
REMARK                            x       y       z     vdW  Elec       q    Type
REMARK                         _______ _______ _______ _____ _____    ______ ____
ROOT
ATOM      1  C   UNL     1       5.295   5.232  19.054  0.00  0.00    +0.000 A 
ATOM      2  C   UNL     1       4.363   4.410  19.715  0.00  0.00    +0.000 A 
ATOM      3  C   UNL     1       2.999   4.656  19.548  0.00  0.00    +0.000 A 
ATOM      4  C   UNL     1       2.568   5.719  18.753  0.00  0.00    +0.000 A 
ATOM      5  C   UNL     1       3.510   6.528  18.103  0.00  0.00    +0.000 A 
ATOM      6  C   UNL     1       4.894   6.293  18.223  0.00  0.00    +0.000 A 
ENDROOT
BRANCH   1   8
ATOM      7  O   UNL     1       7.218   4.171  18.390  0.00  0.00    +0.000 OA
ATOM      8  N   UNL     1       6.697   4.896  19.246  0.00  0.00    +0.000 N 
ATOM      9  O   UNL     1       7.279   5.398  20.216  0.00  0.00    +0.000 OA
ENDBRANCH   1   8
BRANCH   3  10
ATOM     10  S   UNL     1       1.799   3.492  20.196  0.00  0.00    +0.000 S 
ATOM     11  O   UNL     1       2.466   2.824  21.306  0.00  0.00    +0.000 OA
ATOM     12  O   UNL     1       0.607   4.284  20.458  0.00  0.00    +0.000 OA
BRANCH  10  13
ATOM     13  C   UNL     1       1.531   2.339  18.808  0.00  0.00    +0.000 C 
ATOM     14  F   UNL     1       0.232   1.929  18.715  0.00  0.00    +0.000 F 
ATOM     15  F   UNL     1       1.842   2.892  17.602  0.00  0.00    +0.000 F 
ATOM     16  F   UNL     1       2.280   1.206  18.919  0.00  0.00    +0.000 F 
ENDBRANCH  10  13
ENDBRANCH   3  10
BRANCH   6  17
ATOM     17  S   UNL     1       5.915   7.287  17.145  0.00  0.00    +0.000 S 
BRANCH  17  18
ATOM     18  C   UNL     1       6.416   6.233  15.870  0.00  0.00    +0.000 A 
ATOM     19  N   UNL     1       7.644   5.980  15.546  0.00  0.00    +0.000 NA
ATOM     20  N   UNL     1       7.647   5.068  14.524  0.00  0.00    +0.000 N 
ATOM     21  C   UNL     1       6.433   4.606  14.082  0.00  0.00    +0.000 A 
ATOM     22  S   UNL     1       6.241   3.444  12.922  0.00  0.00    +0.000 S 
ATOM     23  S   UNL     1       5.172   5.434  14.949  0.00  0.00    +0.000 S 
ATOM     24  H   UNL     1       8.528   4.695  14.187  0.00  0.00    +0.000 HD
ENDBRANCH  17  18
ENDBRANCH   6  17
TORSDOF 5
ENDMDL
MODEL 4
REMARK VINA RESULT:      -7.1      1.639      2.015
REMARK  Name = 
REMARK  5 active torsions:
REMARK  status: ('A' for Active; 'I' for Inactive)
REMARK    1  A    between atoms: N_2  and  C_4
REMARK    2  A    between atoms: C_6  and  S_7
REMARK    3  A    between atoms: S_7  and  C_10
REMARK    4  A    between atoms: C_16  and  S_17
REMARK    5  A    between atoms: S_17  and  C_18
REMARK                            x       y       z     vdW  Elec       q    Type
REMARK                         _______ _______ _______ _____ _____    ______ ____
ROOT
ATOM      1  C   UNL     1       5.284   5.249  19.040  0.00  0.00    +0.000 A 
ATOM      2  C   UNL     1       4.357   4.430  19.711  0.00  0.00    +0.000 A 
ATOM      3  C   UNL     1       2.992   4.682  19.561  0.00  0.00    +0.000 A 
ATOM      4  C   UNL     1       2.555   5.746  18.770  0.00  0.00    +0.000 A 
ATOM      5  C   UNL     1       3.492   6.552  18.110  0.00  0.00    +0.000 A 
ATOM      6  C   UNL     1       4.876   6.312  18.214  0.00  0.00    +0.000 A 
ENDROOT
BRANCH   1   8
ATOM      7  O   UNL     1       7.249   5.367  20.217  0.00  0.00    +0.000 OA
ATOM      8  N   UNL     1       6.686   4.909  19.216  0.00  0.00    +0.000 N 
ATOM      9  O   UNL     1       7.200   4.148  18.386  0.00  0.00    +0.000 OA
ENDBRANCH   1   8
BRANCH   3  10
ATOM     10  S   UNL     1       1.795   3.521  20.222  0.00  0.00    +0.000 S 
ATOM     11  O   UNL     1       2.484   2.825  21.300  0.00  0.00    +0.000 OA
ATOM     12  O   UNL     1       0.622   4.324  20.531  0.00  0.00    +0.000 OA
BRANCH  10  13
ATOM     13  C   UNL     1       1.473   2.396  18.822  0.00  0.00    +0.000 C 
ATOM     14  F   UNL     1       2.195   1.240  18.906  0.00  0.00    +0.000 F 
ATOM     15  F   UNL     1       0.165   2.023  18.741  0.00  0.00    +0.000 F 
ATOM     16  F   UNL     1       1.791   2.956  17.621  0.00  0.00    +0.000 F 
ENDBRANCH  10  13
ENDBRANCH   3  10
BRANCH   6  17
ATOM     17  S   UNL     1       5.889   7.303  17.124  0.00  0.00    +0.000 S 
BRANCH  17  18
ATOM     18  C   UNL     1       6.403   6.238  15.865  0.00  0.00    +0.000 A 
ATOM     19  N   UNL     1       7.634   5.976  15.560  0.00  0.00    +0.000 NA
ATOM     20  N   UNL     1       7.647   5.057  14.544  0.00  0.00    +0.000 N 
ATOM     21  C   UNL     1       6.437   4.599  14.087  0.00  0.00    +0.000 A 
ATOM     22  S   UNL     1       6.256   3.430  12.932  0.00  0.00    +0.000 S 
ATOM     23  S   UNL     1       5.168   5.439  14.930  0.00  0.00    +0.000 S 
ATOM     24  H   UNL     1       8.531   4.677  14.223  0.00  0.00    +0.000 HD
ENDBRANCH  17  18
ENDBRANCH   6  17
TORSDOF 5
ENDMDL
MODEL 5
REMARK VINA RESULT:      -7.0      6.064      7.490
REMARK  Name = 
REMARK  5 active torsions:
REMARK  status: ('A' for Active; 'I' for Inactive)
REMARK    1  A    between atoms: N_2  and  C_4
REMARK    2  A    between atoms: C_6  and  S_7
REMARK    3  A    between atoms: S_7  and  C_10
REMARK    4  A    between atoms: C_16  and  S_17
REMARK    5  A    between atoms: S_17  and  C_18
REMARK                            x       y       z     vdW  Elec       q    Type
REMARK                         _______ _______ _______ _____ _____    ______ ____
ROOT
ATOM      1  C   UNL     1       1.333   8.423  20.366  0.00  0.00    +0.000 A 
ATOM      2  C   UNL     1       1.917   7.143  20.416  0.00  0.00    +0.000 A 
ATOM      3  C   UNL     1       2.551   6.639  19.279  0.00  0.00    +0.000 A 
ATOM      4  C   UNL     1       2.586   7.389  18.102  0.00  0.00    +0.000 A 
ATOM      5  C   UNL     1       1.999   8.661  18.070  0.00  0.00    +0.000 A 
ATOM      6  C   UNL     1       1.376   9.215  19.205  0.00  0.00    +0.000 A 
ENDROOT
BRANCH   1   8
ATOM      7  O   UNL     1      -0.471   8.613  21.769  0.00  0.00    +0.000 OA
ATOM      8  N   UNL     1       0.720   8.897  21.596  0.00  0.00    +0.000 N 
ATOM      9  O   UNL     1       1.441   9.501  22.400  0.00  0.00    +0.000 OA
ENDBRANCH   1   8
BRANCH   3  10
ATOM     10  S   UNL     1       3.490   5.114  19.386  0.00  0.00    +0.000 S 
ATOM     11  O   UNL     1       4.888   5.521  19.415  0.00  0.00    +0.000 OA
ATOM     12  O   UNL     1       2.932   4.407  20.529  0.00  0.00    +0.000 OA
BRANCH  10  13
ATOM     13  C   UNL     1       3.092   4.258  17.824  0.00  0.00    +0.000 C 
ATOM     14  F   UNL     1       3.294   2.910  17.904  0.00  0.00    +0.000 F 
ATOM     15  F   UNL     1       1.792   4.426  17.452  0.00  0.00    +0.000 F 
ATOM     16  F   UNL     1       3.853   4.696  16.782  0.00  0.00    +0.000 F 
ENDBRANCH  10  13
ENDBRANCH   3  10
BRANCH   6  17
ATOM     17  S   UNL     1       0.891  10.926  19.028  0.00  0.00    +0.000 S 
BRANCH  17  18
ATOM     18  C   UNL     1      -0.756  10.896  18.506  0.00  0.00    +0.000 A 
ATOM     19  N   UNL     1      -1.258  10.056  17.659  0.00  0.00    +0.000 NA
ATOM     20  N   UNL     1      -2.598  10.312  17.531  0.00  0.00    +0.000 N 
ATOM     21  C   UNL     1      -3.125  11.326  18.290  0.00  0.00    +0.000 A 
ATOM     22  S   UNL     1      -4.729  11.724  18.333  0.00  0.00    +0.000 S 
ATOM     23  S   UNL     1      -1.837  12.085  19.179  0.00  0.00    +0.000 S 
ATOM     24  H   UNL     1      -3.173   9.702  16.960  0.00  0.00    +0.000 HD
ENDBRANCH  17  18
ENDBRANCH   6  17
TORSDOF 5
ENDMDL
MODEL 6
REMARK VINA RESULT:      -7.0      6.264      7.648
REMARK  Name = 
REMARK  5 active torsions:
REMARK  status: ('A' for Active; 'I' for Inactive)
REMARK    1  A    between atoms: N_2  and  C_4
REMARK    2  A    between atoms: C_6  and  S_7
REMARK    3  A    between atoms: S_7  and  C_10
REMARK    4  A    between atoms: C_16  and  S_17
REMARK    5  A    between atoms: S_17  and  C_18
REMARK                            x       y       z     vdW  Elec       q    Type
REMARK                         _______ _______ _______ _____ _____    ______ ____
ROOT
ATOM      1  C   UNL     1       1.292   8.814  20.221  0.00  0.00    +0.000 A 
ATOM      2  C   UNL     1       1.827   7.534  19.982  0.00  0.00    +0.000 A 
ATOM      3  C   UNL     1       2.388   7.253  18.735  0.00  0.00    +0.000 A 
ATOM      4  C   UNL     1       2.397   8.224  17.732  0.00  0.00    +0.000 A 
ATOM      5  C   UNL     1       1.860   9.493  17.987  0.00  0.00    +0.000 A 
ATOM      6  C   UNL     1       1.311   9.824  19.242  0.00  0.00    +0.000 A 
ENDROOT
BRANCH   1   8
ATOM      7  O   UNL     1       1.513   9.577  22.373  0.00  0.00    +0.000 OA
ATOM      8  N   UNL     1       0.755   9.047  21.552  0.00  0.00    +0.000 N 
ATOM      9  O   UNL     1      -0.429   8.749  21.752  0.00  0.00    +0.000 OA
ENDBRANCH   1   8
BRANCH   3  10
ATOM     10  S   UNL     1       3.271   5.712  18.484  0.00  0.00    +0.000 S 
ATOM     11  O   UNL     1       4.051   5.905  17.270  0.00  0.00    +0.000 OA
ATOM     12  O   UNL     1       3.962   5.464  19.740  0.00  0.00    +0.000 OA
BRANCH  10  13
ATOM     13  C   UNL     1       1.937   4.496  18.214  0.00  0.00    +0.000 C 
ATOM     14  F   UNL     1       1.223   4.247  19.351  0.00  0.00    +0.000 F 
ATOM     15  F   UNL     1       1.034   4.908  17.281  0.00  0.00    +0.000 F 
ATOM     16  F   UNL     1       2.410   3.290  17.790  0.00  0.00    +0.000 F 
ENDBRANCH  10  13
ENDBRANCH   3  10
BRANCH   6  17
ATOM     17  S   UNL     1       0.886  11.549  19.438  0.00  0.00    +0.000 S 
BRANCH  17  18
ATOM     18  C   UNL     1      -0.807  11.654  19.108  0.00  0.00    +0.000 A 
ATOM     19  N   UNL     1      -1.622  12.509  19.638  0.00  0.00    +0.000 NA
ATOM     20  N   UNL     1      -2.868  12.318  19.100  0.00  0.00    +0.000 N 
ATOM     21  C   UNL     1      -3.004  11.339  18.149  0.00  0.00    +0.000 A 
ATOM     22  S   UNL     1      -4.405  11.021  17.329  0.00  0.00    +0.000 S 
ATOM     23  S   UNL     1      -1.477  10.527  17.960  0.00  0.00    +0.000 S 
ATOM     24  H   UNL     1      -3.623  12.949  19.346  0.00  0.00    +0.000 HD
ENDBRANCH  17  18
ENDBRANCH   6  17
TORSDOF 5
ENDMDL
MODEL 7
REMARK VINA RESULT:      -6.9      6.100      7.543
REMARK  Name = 
REMARK  5 active torsions:
REMARK  status: ('A' for Active; 'I' for Inactive)
REMARK    1  A    between atoms: N_2  and  C_4
REMARK    2  A    between atoms: C_6  and  S_7
REMARK    3  A    between atoms: S_7  and  C_10
REMARK    4  A    between atoms: C_16  and  S_17
REMARK    5  A    between atoms: S_17  and  C_18
REMARK                            x       y       z     vdW  Elec       q    Type
REMARK                         _______ _______ _______ _____ _____    ______ ____
ROOT
ATOM      1  C   UNL     1       1.321   8.458  20.408  0.00  0.00    +0.000 A 
ATOM      2  C   UNL     1       1.907   7.178  20.443  0.00  0.00    +0.000 A 
ATOM      3  C   UNL     1       2.528   6.681  19.296  0.00  0.00    +0.000 A 
ATOM      4  C   UNL     1       2.548   7.438  18.123  0.00  0.00    +0.000 A 
ATOM      5  C   UNL     1       1.960   8.710  18.106  0.00  0.00    +0.000 A 
ATOM      6  C   UNL     1       1.349   9.257  19.251  0.00  0.00    +0.000 A 
ENDROOT
BRANCH   1   8
ATOM      7  O   UNL     1       1.445   9.590  22.399  0.00  0.00    +0.000 OA
ATOM      8  N   UNL     1       0.722   8.924  21.648  0.00  0.00    +0.000 N 
ATOM      9  O   UNL     1      -0.473   8.669  21.838  0.00  0.00    +0.000 OA
ENDBRANCH   1   8
BRANCH   3  10
ATOM     10  S   UNL     1       3.470   5.157  19.384  0.00  0.00    +0.000 S 
ATOM     11  O   UNL     1       4.868   5.563  19.354  0.00  0.00    +0.000 OA
ATOM     12  O   UNL     1       2.956   4.463  20.555  0.00  0.00    +0.000 OA
BRANCH  10  13
ATOM     13  C   UNL     1       3.011   4.285  17.848  0.00  0.00    +0.000 C 
ATOM     14  F   UNL     1       3.762   4.684  16.779  0.00  0.00    +0.000 F 
ATOM     15  F   UNL     1       3.175   2.936  17.944  0.00  0.00    +0.000 F 
ATOM     16  F   UNL     1       1.711   4.494  17.498  0.00  0.00    +0.000 F 
ENDBRANCH  10  13
ENDBRANCH   3  10
BRANCH   6  17
ATOM     17  S   UNL     1       0.861  10.969  19.089  0.00  0.00    +0.000 S 
BRANCH  17  18
ATOM     18  C   UNL     1      -0.785  10.939  18.565  0.00  0.00    +0.000 A 
ATOM     19  N   UNL     1      -1.284  10.108  17.707  0.00  0.00    +0.000 NA
ATOM     20  N   UNL     1      -2.624  10.362  17.580  0.00  0.00    +0.000 N 
ATOM     21  C   UNL     1      -3.156  11.364  18.351  0.00  0.00    +0.000 A 
ATOM     22  S   UNL     1      -4.762  11.756  18.398  0.00  0.00    +0.000 S 
ATOM     23  S   UNL     1      -1.872  12.116  19.252  0.00  0.00    +0.000 S 
ATOM     24  H   UNL     1      -3.197   9.757  17.001  0.00  0.00    +0.000 HD
ENDBRANCH  17  18
ENDBRANCH   6  17
TORSDOF 5
ENDMDL
MODEL 8
REMARK VINA RESULT:      -6.9      6.183      7.564
REMARK  Name = 
REMARK  5 active torsions:
REMARK  status: ('A' for Active; 'I' for Inactive)
REMARK    1  A    between atoms: N_2  and  C_4
REMARK    2  A    between atoms: C_6  and  S_7
REMARK    3  A    between atoms: S_7  and  C_10
REMARK    4  A    between atoms: C_16  and  S_17
REMARK    5  A    between atoms: S_17  and  C_18
REMARK                            x       y       z     vdW  Elec       q    Type
REMARK                         _______ _______ _______ _____ _____    ______ ____
ROOT
ATOM      1  C   UNL     1       1.282   8.890  20.225  0.00  0.00    +0.000 A 
ATOM      2  C   UNL     1       1.716   7.557  20.359  0.00  0.00    +0.000 A 
ATOM      3  C   UNL     1       2.377   6.946  19.291  0.00  0.00    +0.000 A 
ATOM      4  C   UNL     1       2.584   7.643  18.100  0.00  0.00    +0.000 A 
ATOM      5  C   UNL     1       2.144   8.968  17.983  0.00  0.00    +0.000 A 
ATOM      6  C   UNL     1       1.500   9.628  19.048  0.00  0.00    +0.000 A 
ENDROOT
BRANCH   1   8
ATOM      7  O   UNL     1       1.365  10.037  22.210  0.00  0.00    +0.000 OA
ATOM      8  N   UNL     1       0.632   9.473  21.387  0.00  0.00    +0.000 N 
ATOM      9  O   UNL     1      -0.602   9.410  21.445  0.00  0.00    +0.000 OA
ENDBRANCH   1   8
BRANCH   3  10
ATOM     10  S   UNL     1       3.132   5.335  19.518  0.00  0.00    +0.000 S 
ATOM     11  O   UNL     1       4.568   5.565  19.439  0.00  0.00    +0.000 OA
ATOM     12  O   UNL     1       2.562   4.822  20.755  0.00  0.00    +0.000 OA
BRANCH  10  13
ATOM     13  C   UNL     1       2.544   4.382  18.077  0.00  0.00    +0.000 C 
ATOM     14  F   UNL     1       3.389   4.479  17.010  0.00  0.00    +0.000 F 
ATOM     15  F   UNL     1       2.421   3.051  18.345  0.00  0.00    +0.000 F 
ATOM     16  F   UNL     1       1.325   4.803  17.637  0.00  0.00    +0.000 F 
ENDBRANCH  10  13
ENDBRANCH   3  10
BRANCH   6  17
ATOM     17  S   UNL     1       1.221  11.374  18.782  0.00  0.00    +0.000 S 
BRANCH  17  18
ATOM     18  C   UNL     1      -0.494  11.568  18.708  0.00  0.00    +0.000 A 
ATOM     19  N   UNL     1      -1.157  12.568  19.196  0.00  0.00    +0.000 NA
ATOM     20  N   UNL     1      -2.485  12.397  18.904  0.00  0.00    +0.000 N 
ATOM     21  C   UNL     1      -2.837  11.286  18.180  0.00  0.00    +0.000 A 
ATOM     22  S   UNL     1      -4.372  10.957  17.661  0.00  0.00    +0.000 S 
ATOM     23  S   UNL     1      -1.413  10.325  17.904  0.00  0.00    +0.000 S 
ATOM     24  H   UNL     1      -3.150  13.124  19.146  0.00  0.00    +0.000 HD
ENDBRANCH  17  18
ENDBRANCH   6  17
TORSDOF 5
ENDMDL
MODEL 9
REMARK VINA RESULT:      -6.9      6.129      7.538
REMARK  Name = 
REMARK  5 active torsions:
REMARK  status: ('A' for Active; 'I' for Inactive)
REMARK    1  A    between atoms: N_2  and  C_4
REMARK    2  A    between atoms: C_6  and  S_7
REMARK    3  A    between atoms: S_7  and  C_10
REMARK    4  A    between atoms: C_16  and  S_17
REMARK    5  A    between atoms: S_17  and  C_18
REMARK                            x       y       z     vdW  Elec       q    Type
REMARK                         _______ _______ _______ _____ _____    ______ ____
ROOT
ATOM      1  C   UNL     1       1.288   8.683  20.372  0.00  0.00    +0.000 A 
ATOM      2  C   UNL     1       1.760   7.360  20.460  0.00  0.00    +0.000 A 
ATOM      3  C   UNL     1       2.380   6.783  19.350  0.00  0.00    +0.000 A 
ATOM      4  C   UNL     1       2.511   7.506  18.163  0.00  0.00    +0.000 A 
ATOM      5  C   UNL     1       2.035   8.821  18.093  0.00  0.00    +0.000 A 
ATOM      6  C   UNL     1       1.429   9.447  19.200  0.00  0.00    +0.000 A 
ENDROOT
BRANCH   1   8
ATOM      7  O   UNL     1      -0.522   9.008  21.744  0.00  0.00    +0.000 OA
ATOM      8  N   UNL     1       0.683   9.230  21.576  0.00  0.00    +0.000 N 
ATOM      9  O   UNL     1       1.422   9.829  22.367  0.00  0.00    +0.000 OA
ENDBRANCH   1   8
BRANCH   3  10
ATOM     10  S   UNL     1       3.184   5.188  19.510  0.00  0.00    +0.000 S 
ATOM     11  O   UNL     1       4.613   5.467  19.464  0.00  0.00    +0.000 OA
ATOM     12  O   UNL     1       2.615   4.597  20.711  0.00  0.00    +0.000 OA
BRANCH  10  13
ATOM     13  C   UNL     1       2.648   4.289  18.015  0.00  0.00    +0.000 C 
ATOM     14  F   UNL     1       2.639   2.936  18.197  0.00  0.00    +0.000 F 
ATOM     15  F   UNL     1       1.387   4.629  17.625  0.00  0.00    +0.000 F 
ATOM     16  F   UNL     1       3.460   4.525  16.946  0.00  0.00    +0.000 F 
ENDBRANCH  10  13
ENDBRANCH   3  10
BRANCH   6  17
ATOM     17  S   UNL     1       1.095  11.190  18.981  0.00  0.00    +0.000 S 
BRANCH  17  18
ATOM     18  C   UNL     1      -0.626  11.336  18.945  0.00  0.00    +0.000 A 
ATOM     19  N   UNL     1      -1.329  12.105  19.713  0.00  0.00    +0.000 NA
ATOM     20  N   UNL     1      -2.648  11.988  19.360  0.00  0.00    +0.000 N 
ATOM     21  C   UNL     1      -2.953  11.154  18.315  0.00  0.00    +0.000 A 
ATOM     22  S   UNL     1      -4.472  10.951  17.694  0.00  0.00    +0.000 S 
ATOM     23  S   UNL     1      -1.492  10.381  17.772  0.00  0.00    +0.000 S 
ATOM     24  H   UNL     1      -3.342  12.576  19.810  0.00  0.00    +0.000 HD
ENDBRANCH  17  18
ENDBRANCH   6  17
TORSDOF 5
ENDMDL
