MODEL 1
REMARK VINA RESULT:      -7.2      0.000      0.000
REMARK  Name = 
REMARK  3 active torsions:
REMARK  status: ('A' for Active; 'I' for Inactive)
REMARK    1  A    between atoms: C_1  and  O_2
REMARK    2  A    between atoms: O_2  and  C_3
REMARK    3  A    between atoms: C_8  and  C_9
REMARK                            x       y       z     vdW  Elec       q    Type
REMARK                         _______ _______ _______ _____ _____    ______ ____
ROOT
ATOM      1  C   UNL     1       6.675   4.678  15.014  0.00  0.00    +0.000 A 
ATOM      2  C   UNL     1       7.600   4.884  16.045  0.00  0.00    +0.000 A 
ATOM      3  C   UNL     1       7.257   4.677  17.388  0.00  0.00    +0.000 A 
ATOM      4  C   UNL     1       5.950   4.265  17.643  0.00  0.00    +0.000 A 
ATOM      5  N   UNL     1       5.284   3.979  18.803  0.00  0.00    +0.000 N 
ATOM      6  C   UNL     1       3.983   3.648  18.499  0.00  0.00    +0.000 A 
ATOM      7  N   UNL     1       3.797   3.681  17.188  0.00  0.00    +0.000 NA
ATOM      8  C   UNL     1       5.001   4.070  16.648  0.00  0.00    +0.000 A 
ATOM      9  C   UNL     1       5.362   4.282  15.309  0.00  0.00    +0.000 A 
ATOM     10  H   UNL     1       5.644   4.015  19.745  0.00  0.00    +0.000 HD
ENDROOT
BRANCH   6  11
ATOM     11  C   UNL     1       3.011   3.336  19.540  0.00  0.00    +0.000 A 
ATOM     12  C   UNL     1       1.672   3.689  19.412  0.00  0.00    +0.000 A 
ATOM     13  C   UNL     1       0.804   3.385  20.455  0.00  0.00    +0.000 A 
ATOM     14  C   UNL     1       1.296   2.740  21.586  0.00  0.00    +0.000 A 
ATOM     15  C   UNL     1       2.644   2.422  21.626  0.00  0.00    +0.000 A 
ATOM     16  N   UNL     1       3.517   2.698  20.633  0.00  0.00    +0.000 NA
ENDBRANCH   6  11
BRANCH   1  18
ATOM     17  C   UNL     1       6.482   3.848  12.807  0.00  0.00    +0.000 C 
ATOM     18  O   UNL     1       6.936   4.875  13.683  0.00  0.00    +0.000 OA
ENDBRANCH   1  18
TORSDOF 2
ENDMDL
MODEL 2
REMARK VINA RESULT:      -7.0      0.750      1.194
REMARK  Name = 
REMARK  3 active torsions:
REMARK  status: ('A' for Active; 'I' for Inactive)
REMARK    1  A    between atoms: C_1  and  O_2
REMARK    2  A    between atoms: O_2  and  C_3
REMARK    3  A    between atoms: C_8  and  C_9
REMARK                            x       y       z     vdW  Elec       q    Type
REMARK                         _______ _______ _______ _____ _____    ______ ____
ROOT
ATOM      1  C   UNL     1       6.704   4.519  14.736  0.00  0.00    +0.000 A 
ATOM      2  C   UNL     1       7.622   4.806  15.753  0.00  0.00    +0.000 A 
ATOM      3  C   UNL     1       7.281   4.672  17.106  0.00  0.00    +0.000 A 
ATOM      4  C   UNL     1       5.983   4.245  17.384  0.00  0.00    +0.000 A 
ATOM      5  N   UNL     1       5.320   4.013  18.558  0.00  0.00    +0.000 N 
ATOM      6  C   UNL     1       4.028   3.635  18.273  0.00  0.00    +0.000 A 
ATOM      7  N   UNL     1       3.845   3.587  16.962  0.00  0.00    +0.000 NA
ATOM      8  C   UNL     1       5.041   3.970  16.401  0.00  0.00    +0.000 A 
ATOM      9  C   UNL     1       5.400   4.111  15.052  0.00  0.00    +0.000 A 
ATOM     10  H   UNL     1       5.678   4.113  19.496  0.00  0.00    +0.000 HD
ENDROOT
BRANCH   6  11
ATOM     11  C   UNL     1       3.061   3.363  19.330  0.00  0.00    +0.000 A 
ATOM     12  C   UNL     1       3.466   2.946  20.593  0.00  0.00    +0.000 A 
ATOM     13  C   UNL     1       2.490   2.677  21.547  0.00  0.00    +0.000 A 
ATOM     14  C   UNL     1       1.148   2.834  21.211  0.00  0.00    +0.000 A 
ATOM     15  C   UNL     1       0.837   3.258  19.929  0.00  0.00    +0.000 A 
ATOM     16  N   UNL     1       1.756   3.531  18.978  0.00  0.00    +0.000 NA
ENDBRANCH   6  11
BRANCH   1  18
ATOM     17  C   UNL     1       6.290   3.717  12.549  0.00  0.00    +0.000 C 
ATOM     18  O   UNL     1       6.964   4.642  13.395  0.00  0.00    +0.000 OA
ENDBRANCH   1  18
TORSDOF 2
ENDMDL
MODEL 3
REMARK VINA RESULT:      -6.8      1.055      1.222
REMARK  Name = 
REMARK  3 active torsions:
REMARK  status: ('A' for Active; 'I' for Inactive)
REMARK    1  A    between atoms: C_1  and  O_2
REMARK    2  A    between atoms: O_2  and  C_3
REMARK    3  A    between atoms: C_8  and  C_9
REMARK                            x       y       z     vdW  Elec       q    Type
REMARK                         _______ _______ _______ _____ _____    ______ ____
ROOT
ATOM      1  C   UNL     1       6.158   4.888  14.676  0.00  0.00    +0.000 A 
ATOM      2  C   UNL     1       5.848   6.199  15.054  0.00  0.00    +0.000 A 
ATOM      3  C   UNL     1       5.059   6.469  16.180  0.00  0.00    +0.000 A 
ATOM      4  C   UNL     1       4.595   5.367  16.897  0.00  0.00    +0.000 A 
ATOM      5  N   UNL     1       3.818   5.257  18.017  0.00  0.00    +0.000 N 
ATOM      6  C   UNL     1       3.624   3.923  18.295  0.00  0.00    +0.000 A 
ATOM      7  N   UNL     1       4.270   3.175  17.415  0.00  0.00    +0.000 NA
ATOM      8  C   UNL     1       4.867   4.053  16.540  0.00  0.00    +0.000 A 
ATOM      9  C   UNL     1       5.657   3.802  15.409  0.00  0.00    +0.000 A 
ATOM     10  H   UNL     1       3.417   6.005  18.564  0.00  0.00    +0.000 HD
ENDROOT
BRANCH   6  11
ATOM     11  C   UNL     1       2.793   3.489  19.412  0.00  0.00    +0.000 A 
ATOM     12  C   UNL     1       1.414   3.660  19.399  0.00  0.00    +0.000 A 
ATOM     13  C   UNL     1       0.684   3.248  20.509  0.00  0.00    +0.000 A 
ATOM     14  C   UNL     1       1.351   2.679  21.590  0.00  0.00    +0.000 A 
ATOM     15  C   UNL     1       2.728   2.543  21.514  0.00  0.00    +0.000 A 
ATOM     16  N   UNL     1       3.470   2.929  20.453  0.00  0.00    +0.000 NA
ENDBRANCH   6  11
BRANCH   1  18
ATOM     17  C   UNL     1       6.326   3.590  12.705  0.00  0.00    +0.000 C 
ATOM     18  O   UNL     1       6.909   4.551  13.579  0.00  0.00    +0.000 OA
ENDBRANCH   1  18
TORSDOF 2
ENDMDL
MODEL 4
REMARK VINA RESULT:      -6.7      2.735      3.259
REMARK  Name = 
REMARK  3 active torsions:
REMARK  status: ('A' for Active; 'I' for Inactive)
REMARK    1  A    between atoms: C_1  and  O_2
REMARK    2  A    between atoms: O_2  and  C_3
REMARK    3  A    between atoms: C_8  and  C_9
REMARK                            x       y       z     vdW  Elec       q    Type
REMARK                         _______ _______ _______ _____ _____    ______ ____
ROOT
ATOM      1  C   UNL     1       7.570   7.484  17.770  0.00  0.00    +0.000 A 
ATOM      2  C   UNL     1       8.201   6.673  18.721  0.00  0.00    +0.000 A 
ATOM      3  C   UNL     1       7.540   5.588  19.312  0.00  0.00    +0.000 A 
ATOM      4  C   UNL     1       6.225   5.363  18.909  0.00  0.00    +0.000 A 
ATOM      5  N   UNL     1       5.299   4.422  19.268  0.00  0.00    +0.000 N 
ATOM      6  C   UNL     1       4.127   4.670  18.591  0.00  0.00    +0.000 A 
ATOM      7  N   UNL     1       4.274   5.713  17.789  0.00  0.00    +0.000 NA
ATOM      8  C   UNL     1       5.562   6.157  17.983  0.00  0.00    +0.000 A 
ATOM      9  C   UNL     1       6.239   7.240  17.403  0.00  0.00    +0.000 A 
ATOM     10  H   UNL     1       5.411   3.670  19.931  0.00  0.00    +0.000 HD
ENDROOT
BRANCH   6  11
ATOM     11  C   UNL     1       2.936   3.855  18.802  0.00  0.00    +0.000 A 
ATOM     12  C   UNL     1       1.946   4.237  19.700  0.00  0.00    +0.000 A 
ATOM     13  C   UNL     1       0.848   3.400  19.873  0.00  0.00    +0.000 A 
ATOM     14  C   UNL     1       0.775   2.215  19.148  0.00  0.00    +0.000 A 
ATOM     15  C   UNL     1       1.806   1.916  18.272  0.00  0.00    +0.000 A 
ATOM     16  N   UNL     1       2.885   2.704  18.074  0.00  0.00    +0.000 NA
ENDBRANCH   6  11
BRANCH   1  18
ATOM     17  C   UNL     1       8.485   9.650  18.028  0.00  0.00    +0.000 C 
ATOM     18  O   UNL     1       8.150   8.569  17.165  0.00  0.00    +0.000 OA
ENDBRANCH   1  18
TORSDOF 2
ENDMDL
MODEL 5
REMARK VINA RESULT:      -6.6      2.647      3.115
REMARK  Name = 
REMARK  3 active torsions:
REMARK  status: ('A' for Active; 'I' for Inactive)
REMARK    1  A    between atoms: C_1  and  O_2
REMARK    2  A    between atoms: O_2  and  C_3
REMARK    3  A    between atoms: C_8  and  C_9
REMARK                            x       y       z     vdW  Elec       q    Type
REMARK                         _______ _______ _______ _____ _____    ______ ____
ROOT
ATOM      1  C   UNL     1       7.481   7.369  17.773  0.00  0.00    +0.000 A 
ATOM      2  C   UNL     1       8.147   6.591  18.727  0.00  0.00    +0.000 A 
ATOM      3  C   UNL     1       7.507   5.531  19.383  0.00  0.00    +0.000 A 
ATOM      4  C   UNL     1       6.176   5.296  19.041  0.00  0.00    +0.000 A 
ATOM      5  N   UNL     1       5.263   4.373  19.470  0.00  0.00    +0.000 N 
ATOM      6  C   UNL     1       4.065   4.601  18.831  0.00  0.00    +0.000 A 
ATOM      7  N   UNL     1       4.183   5.614  17.987  0.00  0.00    +0.000 NA
ATOM      8  C   UNL     1       5.479   6.059  18.114  0.00  0.00    +0.000 A 
ATOM      9  C   UNL     1       6.135   7.118  17.468  0.00  0.00    +0.000 A 
ATOM     10  H   UNL     1       5.399   3.645  20.156  0.00  0.00    +0.000 HD
ENDROOT
BRANCH   6  11
ATOM     11  C   UNL     1       2.882   3.799  19.119  0.00  0.00    +0.000 A 
ATOM     12  C   UNL     1       2.262   3.040  18.133  0.00  0.00    +0.000 A 
ATOM     13  C   UNL     1       1.120   2.320  18.469  0.00  0.00    +0.000 A 
ATOM     14  C   UNL     1       0.637   2.380  19.772  0.00  0.00    +0.000 A 
ATOM     15  C   UNL     1       1.320   3.159  20.691  0.00  0.00    +0.000 A 
ATOM     16  N   UNL     1       2.433   3.870  20.404  0.00  0.00    +0.000 NA
ENDBRANCH   6  11
BRANCH   1  18
ATOM     17  C   UNL     1       8.406   9.542  17.914  0.00  0.00    +0.000 C 
ATOM     18  O   UNL     1       8.039   8.429  17.106  0.00  0.00    +0.000 OA
ENDBRANCH   1  18
TORSDOF 2
ENDMDL
MODEL 6
REMARK VINA RESULT:      -6.6      1.275      1.685
REMARK  Name = 
REMARK  3 active torsions:
REMARK  status: ('A' for Active; 'I' for Inactive)
REMARK    1  A    between atoms: C_1  and  O_2
REMARK    2  A    between atoms: O_2  and  C_3
REMARK    3  A    between atoms: C_8  and  C_9
REMARK                            x       y       z     vdW  Elec       q    Type
REMARK                         _______ _______ _______ _____ _____    ______ ____
ROOT
ATOM      1  C   UNL     1       6.140   4.800  14.612  0.00  0.00    +0.000 A 
ATOM      2  C   UNL     1       5.861   6.123  14.974  0.00  0.00    +0.000 A 
ATOM      3  C   UNL     1       5.102   6.426  16.112  0.00  0.00    +0.000 A 
ATOM      4  C   UNL     1       4.636   5.345  16.859  0.00  0.00    +0.000 A 
ATOM      5  N   UNL     1       3.883   5.267  17.997  0.00  0.00    +0.000 N 
ATOM      6  C   UNL     1       3.673   3.942  18.303  0.00  0.00    +0.000 A 
ATOM      7  N   UNL     1       4.287   3.167  17.422  0.00  0.00    +0.000 NA
ATOM      8  C   UNL     1       4.878   4.020  16.519  0.00  0.00    +0.000 A 
ATOM      9  C   UNL     1       5.638   3.735  15.375  0.00  0.00    +0.000 A 
ATOM     10  H   UNL     1       3.507   6.031  18.540  0.00  0.00    +0.000 HD
ENDROOT
BRANCH   6  11
ATOM     11  C   UNL     1       2.860   3.541  19.446  0.00  0.00    +0.000 A 
ATOM     12  C   UNL     1       3.413   2.863  20.526  0.00  0.00    +0.000 A 
ATOM     13  C   UNL     1       2.576   2.486  21.571  0.00  0.00    +0.000 A 
ATOM     14  C   UNL     1       1.221   2.798  21.505  0.00  0.00    +0.000 A 
ATOM     15  C   UNL     1       0.758   3.479  20.391  0.00  0.00    +0.000 A 
ATOM     16  N   UNL     1       1.539   3.864  19.359  0.00  0.00    +0.000 NA
ENDBRANCH   6  11
BRANCH   1  18
ATOM     17  C   UNL     1       6.225   3.497  12.639  0.00  0.00    +0.000 C 
ATOM     18  O   UNL     1       6.861   4.431  13.506  0.00  0.00    +0.000 OA
ENDBRANCH   1  18
TORSDOF 2
ENDMDL
MODEL 7
REMARK VINA RESULT:      -6.5      1.065      1.437
REMARK  Name = 
REMARK  3 active torsions:
REMARK  status: ('A' for Active; 'I' for Inactive)
REMARK    1  A    between atoms: C_1  and  O_2
REMARK    2  A    between atoms: O_2  and  C_3
REMARK    3  A    between atoms: C_8  and  C_9
REMARK                            x       y       z     vdW  Elec       q    Type
REMARK                         _______ _______ _______ _____ _____    ______ ____
ROOT
ATOM      1  C   UNL     1       6.983   5.344  15.650  0.00  0.00    +0.000 A 
ATOM      2  C   UNL     1       7.470   6.140  16.693  0.00  0.00    +0.000 A 
ATOM      3  C   UNL     1       6.889   6.111  17.968  0.00  0.00    +0.000 A 
ATOM      4  C   UNL     1       5.802   5.255  18.140  0.00  0.00    +0.000 A 
ATOM      5  N   UNL     1       5.008   4.980  19.219  0.00  0.00    +0.000 N 
ATOM      6  C   UNL     1       4.042   4.075  18.841  0.00  0.00    +0.000 A 
ATOM      7  N   UNL     1       4.204   3.738  17.571  0.00  0.00    +0.000 NA
ATOM      8  C   UNL     1       5.281   4.466  17.123  0.00  0.00    +0.000 A 
ATOM      9  C   UNL     1       5.874   4.509  15.853  0.00  0.00    +0.000 A 
ATOM     10  H   UNL     1       5.074   5.370  20.148  0.00  0.00    +0.000 HD
ENDROOT
BRANCH   6  11
ATOM     11  C   UNL     1       3.014   3.622  19.772  0.00  0.00    +0.000 A 
ATOM     12  C   UNL     1       3.334   2.864  20.893  0.00  0.00    +0.000 A 
ATOM     13  C   UNL     1       2.302   2.442  21.724  0.00  0.00    +0.000 A 
ATOM     14  C   UNL     1       0.991   2.788  21.412  0.00  0.00    +0.000 A 
ATOM     15  C   UNL     1       0.765   3.550  20.277  0.00  0.00    +0.000 A 
ATOM     16  N   UNL     1       1.740   3.981  19.447  0.00  0.00    +0.000 NA
ENDBRANCH   6  11
BRANCH   1  18
ATOM     17  C   UNL     1       6.931   4.363  13.497  0.00  0.00    +0.000 C 
ATOM     18  O   UNL     1       7.492   5.333  14.376  0.00  0.00    +0.000 OA
ENDBRANCH   1  18
TORSDOF 2
ENDMDL
MODEL 8
REMARK VINA RESULT:      -6.5      1.224      1.842
REMARK  Name = 
REMARK  3 active torsions:
REMARK  status: ('A' for Active; 'I' for Inactive)
REMARK    1  A    between atoms: C_1  and  O_2
REMARK    2  A    between atoms: O_2  and  C_3
REMARK    3  A    between atoms: C_8  and  C_9
REMARK                            x       y       z     vdW  Elec       q    Type
REMARK                         _______ _______ _______ _____ _____    ______ ____
ROOT
ATOM      1  C   UNL     1       7.102   5.088  14.706  0.00  0.00    +0.000 A 
ATOM      2  C   UNL     1       6.223   4.220  14.049  0.00  0.00    +0.000 A 
ATOM      3  C   UNL     1       5.118   3.662  14.705  0.00  0.00    +0.000 A 
ATOM      4  C   UNL     1       4.945   4.010  16.044  0.00  0.00    +0.000 A 
ATOM      5  N   UNL     1       4.004   3.661  16.973  0.00  0.00    +0.000 N 
ATOM      6  C   UNL     1       4.316   4.262  18.171  0.00  0.00    +0.000 A 
ATOM      7  N   UNL     1       5.403   5.007  18.039  0.00  0.00    +0.000 NA
ATOM      8  C   UNL     1       5.808   4.853  16.733  0.00  0.00    +0.000 A 
ATOM      9  C   UNL     1       6.910   5.401  16.060  0.00  0.00    +0.000 A 
ATOM     10  H   UNL     1       3.210   3.051  16.846  0.00  0.00    +0.000 HD
ENDROOT
BRANCH   6  11
ATOM     11  C   UNL     1       3.515   4.040  19.369  0.00  0.00    +0.000 A 
ATOM     12  C   UNL     1       2.658   5.018  19.861  0.00  0.00    +0.000 A 
ATOM     13  C   UNL     1       1.943   4.750  21.023  0.00  0.00    +0.000 A 
ATOM     14  C   UNL     1       2.105   3.520  21.654  0.00  0.00    +0.000 A 
ATOM     15  C   UNL     1       2.978   2.603  21.091  0.00  0.00    +0.000 A 
ATOM     16  N   UNL     1       3.686   2.825  19.963  0.00  0.00    +0.000 NA
ENDBRANCH   6  11
BRANCH   1  18
ATOM     17  C   UNL     1       8.222   5.680  12.708  0.00  0.00    +0.000 C 
ATOM     18  O   UNL     1       8.210   5.657  14.132  0.00  0.00    +0.000 OA
ENDBRANCH   1  18
TORSDOF 2
ENDMDL
MODEL 9
REMARK VINA RESULT:      -6.5      2.693      6.745
REMARK  Name = 
REMARK  3 active torsions:
REMARK  status: ('A' for Active; 'I' for Inactive)
REMARK    1  A    between atoms: C_1  and  O_2
REMARK    2  A    between atoms: O_2  and  C_3
REMARK    3  A    between atoms: C_8  and  C_9
REMARK                            x       y       z     vdW  Elec       q    Type
REMARK                         _______ _______ _______ _____ _____    ______ ____
ROOT
ATOM      1  C   UNL     1       3.422   3.746  19.746  0.00  0.00    +0.000 A 
ATOM      2  C   UNL     1       3.324   5.141  19.689  0.00  0.00    +0.000 A 
ATOM      3  C   UNL     1       3.809   5.864  18.591  0.00  0.00    +0.000 A 
ATOM      4  C   UNL     1       4.396   5.125  17.565  0.00  0.00    +0.000 A 
ATOM      5  N   UNL     1       4.965   5.488  16.376  0.00  0.00    +0.000 N 
ATOM      6  C   UNL     1       5.431   4.359  15.742  0.00  0.00    +0.000 A 
ATOM      7  N   UNL     1       5.157   3.284  16.464  0.00  0.00    +0.000 NA
ATOM      8  C   UNL     1       4.527   3.743  17.598  0.00  0.00    +0.000 A 
ATOM      9  C   UNL     1       4.038   3.035  18.706  0.00  0.00    +0.000 A 
ATOM     10  H   UNL     1       5.064   6.420  16.000  0.00  0.00    +0.000 HD
ENDROOT
BRANCH   6  11
ATOM     11  C   UNL     1       6.131   4.435  14.465  0.00  0.00    +0.000 A 
ATOM     12  C   UNL     1       5.704   3.708  13.360  0.00  0.00    +0.000 A 
ATOM     13  C   UNL     1       6.434   3.804  12.179  0.00  0.00    +0.000 A 
ATOM     14  C   UNL     1       7.561   4.621  12.141  0.00  0.00    +0.000 A 
ATOM     15  C   UNL     1       7.911   5.312  13.289  0.00  0.00    +0.000 A 
ATOM     16  N   UNL     1       7.226   5.246  14.452  0.00  0.00    +0.000 NA
ENDBRANCH   6  11
BRANCH   1  18
ATOM     17  C   UNL     1       1.879   3.501  21.523  0.00  0.00    +0.000 C 
ATOM     18  O   UNL     1       2.985   2.977  20.794  0.00  0.00    +0.000 OA
ENDBRANCH   1  18
TORSDOF 2
ENDMDL
