MODEL 1
REMARK VINA RESULT:      -7.2      0.000      0.000
REMARK  Name = 
REMARK  9 active torsions:
REMARK  status: ('A' for Active; 'I' for Inactive)
REMARK    1  A    between atoms: C_1  and  O_2
REMARK    2  A    between atoms: O_2  and  C_3
REMARK    3  A    between atoms: C_3  and  C_5
REMARK    4  A    between atoms: C_5  and  O_6
REMARK    5  A    between atoms: C_9  and  O_10
REMARK    6  A    between atoms: C_13  and  O_14
REMARK    7  A    between atoms: C_16  and  O_17
REMARK    8  A    between atoms: C_22  and  O_23
REMARK    9  A    between atoms: O_23  and  C_24
REMARK                            x       y       z     vdW  Elec       q    Type
REMARK                         _______ _______ _______ _____ _____    ______ ____
ROOT
ATOM      1  C   UNL     1       2.620   5.574  19.700  0.00  0.00    +0.000 C 
ATOM      2  C   UNL     1       1.638   6.340  20.610  0.00  0.00    +0.000 C 
ATOM      3  C   UNL     1       1.451   7.796  20.225  0.00  0.00    +0.000 A 
ATOM      4  C   UNL     1       0.919   8.729  21.143  0.00  0.00    +0.000 A 
ATOM      5  C   UNL     1       0.795  10.098  20.820  0.00  0.00    +0.000 A 
ATOM      6  C   UNL     1       1.192  10.527  19.560  0.00  0.00    +0.000 A 
ATOM      7  C   UNL     1       1.645   9.588  18.613  0.00  0.00    +0.000 A 
ATOM      8  C   UNL     1       1.794   8.231  18.927  0.00  0.00    +0.000 A 
ATOM      9  C   UNL     1       2.399   7.297  17.897  0.00  0.00    +0.000 C 
ATOM     10  C   UNL     1       2.233   5.819  18.238  0.00  0.00    +0.000 C 
ATOM     11  C   UNL     1       1.222  11.967  19.228  0.00  0.00    +0.000 C 
ATOM     12  O   UNL     1       1.879  12.258  18.236  0.00  0.00    +0.000 OA
ATOM     13  C   UNL     1       0.574  12.982  20.086  0.00  0.00    +0.000 A 
ATOM     14  C   UNL     1       0.409  14.348  19.767  0.00  0.00    +0.000 A 
ATOM     15  C   UNL     1      -0.177  15.202  20.727  0.00  0.00    +0.000 A 
ATOM     16  C   UNL     1      -0.602  14.746  21.966  0.00  0.00    +0.000 A 
ATOM     17  C   UNL     1      -0.456  13.406  22.272  0.00  0.00    +0.000 A 
ATOM     18  C   UNL     1       0.128  12.525  21.342  0.00  0.00    +0.000 A 
ATOM     19  C   UNL     1       0.255  11.105  21.762  0.00  0.00    +0.000 C 
ATOM     20  O   UNL     1      -0.122  10.798  22.891  0.00  0.00    +0.000 OA
ENDROOT
BRANCH   1  21
ATOM     21  C   UNL     1       2.533   4.068  20.013  0.00  0.00    +0.000 C 
ATOM     22  O   UNL     1       3.302   3.221  19.572  0.00  0.00    +0.000 OA
BRANCH  21  24
ATOM     23  C   UNL     1       1.640   2.631  21.641  0.00  0.00    +0.000 C 
ATOM     24  O   UNL     1       1.487   3.806  20.847  0.00  0.00    +0.000 OA
ENDBRANCH  21  24
ENDBRANCH   1  21
BRANCH   1  25
ATOM     25  O   UNL     1       3.962   6.053  19.905  0.00  0.00    +0.000 OA
ATOM     26  H   UNL     1       4.407   6.123  19.040  0.00  0.00    +0.000 HD
ENDBRANCH   1  25
BRANCH   4  27
ATOM     27  O   UNL     1       0.557   8.310  22.397  0.00  0.00    +0.000 OA
ATOM     28  H   UNL     1       1.315   8.256  22.998  0.00  0.00    +0.000 HD
ENDBRANCH   4  27
BRANCH   7  29
ATOM     29  O   UNL     1       1.961   9.958  17.328  0.00  0.00    +0.000 OA
ATOM     30  H   UNL     1       2.637   9.331  16.985  0.00  0.00    +0.000 HD
ENDBRANCH   7  29
BRANCH   9  31
ATOM     31  O   UNL     1       3.791   7.602  17.768  0.00  0.00    +0.000 OA
ATOM     32  H   UNL     1       4.086   7.242  16.907  0.00  0.00    +0.000 HD
ENDBRANCH   9  31
BRANCH  14  33
ATOM     33  O   UNL     1       0.697  15.105  18.666  0.00  0.00    +0.000 OA
ATOM     34  C   UNL     1       1.699  16.096  18.607  0.00  0.00    +0.000 C 
ENDBRANCH  14  33
TORSDOF 7
ENDMDL
MODEL 2
REMARK VINA RESULT:      -7.2      1.381      8.398
REMARK  Name = 
REMARK  9 active torsions:
REMARK  status: ('A' for Active; 'I' for Inactive)
REMARK    1  A    between atoms: C_1  and  O_2
REMARK    2  A    between atoms: O_2  and  C_3
REMARK    3  A    between atoms: C_3  and  C_5
REMARK    4  A    between atoms: C_5  and  O_6
REMARK    5  A    between atoms: C_9  and  O_10
REMARK    6  A    between atoms: C_13  and  O_14
REMARK    7  A    between atoms: C_16  and  O_17
REMARK    8  A    between atoms: C_22  and  O_23
REMARK    9  A    between atoms: O_23  and  C_24
REMARK                            x       y       z     vdW  Elec       q    Type
REMARK                         _______ _______ _______ _____ _____    ______ ____
ROOT
ATOM      1  C   UNL     1       0.134  12.605  20.391  0.00  0.00    +0.000 C 
ATOM      2  C   UNL     1       0.632  11.882  19.123  0.00  0.00    +0.000 C 
ATOM      3  C   UNL     1       0.968  10.418  19.341  0.00  0.00    +0.000 A 
ATOM      4  C   UNL     1       1.788   9.716  18.430  0.00  0.00    +0.000 A 
ATOM      5  C   UNL     1       2.157   8.371  18.650  0.00  0.00    +0.000 A 
ATOM      6  C   UNL     1       1.684   7.725  19.785  0.00  0.00    +0.000 A 
ATOM      7  C   UNL     1       0.800   8.394  20.653  0.00  0.00    +0.000 A 
ATOM      8  C   UNL     1       0.443   9.735  20.458  0.00  0.00    +0.000 A 
ATOM      9  C   UNL     1      -0.418  10.427  21.497  0.00  0.00    +0.000 C 
ATOM     10  C   UNL     1      -0.979  11.769  21.032  0.00  0.00    +0.000 C 
ATOM     11  C   UNL     1       2.162   6.371  20.136  0.00  0.00    +0.000 C 
ATOM     12  O   UNL     1       1.946   6.027  21.293  0.00  0.00    +0.000 OA
ATOM     13  C   UNL     1       2.918   5.535  19.179  0.00  0.00    +0.000 A 
ATOM     14  C   UNL     1       3.268   4.179  19.365  0.00  0.00    +0.000 A 
ATOM     15  C   UNL     1       4.051   3.540  18.379  0.00  0.00    +0.000 A 
ATOM     16  C   UNL     1       4.481   4.193  17.233  0.00  0.00    +0.000 A 
ATOM     17  C   UNL     1       4.125   5.515  17.044  0.00  0.00    +0.000 A 
ATOM     18  C   UNL     1       3.349   6.187  18.007  0.00  0.00    +0.000 A 
ATOM     19  C   UNL     1       3.025   7.609  17.723  0.00  0.00    +0.000 C 
ATOM     20  O   UNL     1       3.475   8.113  16.697  0.00  0.00    +0.000 OA
ENDROOT
BRANCH   1  21
ATOM     21  C   UNL     1      -0.419  13.990  20.003  0.00  0.00    +0.000 C 
ATOM     22  O   UNL     1      -1.234  14.623  20.664  0.00  0.00    +0.000 OA
BRANCH  21  24
ATOM     23  C   UNL     1       0.604  15.758  18.844  0.00  0.00    +0.000 C 
ATOM     24  O   UNL     1       0.123  14.415  18.826  0.00  0.00    +0.000 OA
ENDBRANCH  21  24
ENDBRANCH   1  21
BRANCH   1  25
ATOM     25  O   UNL     1       1.208  12.741  21.340  0.00  0.00    +0.000 OA
ATOM     26  H   UNL     1       1.572  13.643  21.277  0.00  0.00    +0.000 HD
ENDBRANCH   1  25
BRANCH   4  27
ATOM     27  O   UNL     1       2.278  10.365  17.327  0.00  0.00    +0.000 OA
ATOM     28  H   UNL     1       2.921   9.826  16.842  0.00  0.00    +0.000 HD
ENDBRANCH   4  27
BRANCH   7  29
ATOM     29  O   UNL     1       0.239   7.761  21.736  0.00  0.00    +0.000 OA
ATOM     30  H   UNL     1       0.358   8.339  22.524  0.00  0.00    +0.000 HD
ENDBRANCH   7  29
BRANCH   9  31
ATOM     31  O   UNL     1       0.364  10.623  22.680  0.00  0.00    +0.000 OA
ATOM     32  H   UNL     1       0.944   9.841  22.774  0.00  0.00    +0.000 HD
ENDBRANCH   9  31
BRANCH  14  33
ATOM     33  O   UNL     1       3.009   3.260  20.343  0.00  0.00    +0.000 OA
ATOM     34  C   UNL     1       1.797   2.552  20.485  0.00  0.00    +0.000 C 
ENDBRANCH  14  33
TORSDOF 7
ENDMDL
MODEL 3
REMARK VINA RESULT:      -7.1      2.048      7.546
REMARK  Name = 
REMARK  9 active torsions:
REMARK  status: ('A' for Active; 'I' for Inactive)
REMARK    1  A    between atoms: C_1  and  O_2
REMARK    2  A    between atoms: O_2  and  C_3
REMARK    3  A    between atoms: C_3  and  C_5
REMARK    4  A    between atoms: C_5  and  O_6
REMARK    5  A    between atoms: C_9  and  O_10
REMARK    6  A    between atoms: C_13  and  O_14
REMARK    7  A    between atoms: C_16  and  O_17
REMARK    8  A    between atoms: C_22  and  O_23
REMARK    9  A    between atoms: O_23  and  C_24
REMARK                            x       y       z     vdW  Elec       q    Type
REMARK                         _______ _______ _______ _____ _____    ______ ____
ROOT
ATOM      1  C   UNL     1      -1.451  12.100  20.681  0.00  0.00    +0.000 C 
ATOM      2  C   UNL     1      -0.784  10.895  21.374  0.00  0.00    +0.000 C 
ATOM      3  C   UNL     1       0.217  10.160  20.502  0.00  0.00    +0.000 A 
ATOM      4  C   UNL     1       0.621   8.841  20.809  0.00  0.00    +0.000 A 
ATOM      5  C   UNL     1       1.505   8.124  19.974  0.00  0.00    +0.000 A 
ATOM      6  C   UNL     1       1.999   8.743  18.834  0.00  0.00    +0.000 A 
ATOM      7  C   UNL     1       1.665  10.085  18.567  0.00  0.00    +0.000 A 
ATOM      8  C   UNL     1       0.772  10.801  19.374  0.00  0.00    +0.000 A 
ATOM      9  C   UNL     1       0.365  12.202  18.961  0.00  0.00    +0.000 C 
ATOM     10  C   UNL     1      -0.361  12.977  20.058  0.00  0.00    +0.000 C 
ATOM     11  C   UNL     1       2.805   7.986  17.854  0.00  0.00    +0.000 C 
ATOM     12  O   UNL     1       2.915   8.513  16.752  0.00  0.00    +0.000 OA
ATOM     13  C   UNL     1       3.363   6.652  18.162  0.00  0.00    +0.000 A 
ATOM     14  C   UNL     1       4.275   5.932  17.358  0.00  0.00    +0.000 A 
ATOM     15  C   UNL     1       4.663   4.637  17.766  0.00  0.00    +0.000 A 
ATOM     16  C   UNL     1       4.187   4.051  18.930  0.00  0.00    +0.000 A 
ATOM     17  C   UNL     1       3.308   4.762  19.726  0.00  0.00    +0.000 A 
ATOM     18  C   UNL     1       2.894   6.054  19.349  0.00  0.00    +0.000 A 
ATOM     19  C   UNL     1       1.939   6.737  20.260  0.00  0.00    +0.000 C 
ATOM     20  O   UNL     1       1.548   6.128  21.253  0.00  0.00    +0.000 OA
ENDROOT
BRANCH   1  21
ATOM     21  C   UNL     1      -2.237  12.916  21.725  0.00  0.00    +0.000 C 
ATOM     22  O   UNL     1      -2.810  13.974  21.493  0.00  0.00    +0.000 OA
BRANCH  21  24
ATOM     23  C   UNL     1      -3.399  12.452  23.712  0.00  0.00    +0.000 C 
ATOM     24  O   UNL     1      -2.209  12.301  22.942  0.00  0.00    +0.000 OA
ENDBRANCH  21  24
ENDBRANCH   1  21
BRANCH   1  25
ATOM     25  O   UNL     1      -2.329  11.647  19.634  0.00  0.00    +0.000 OA
ATOM     26  H   UNL     1      -1.862  10.981  19.097  0.00  0.00    +0.000 HD
ENDBRANCH   1  25
BRANCH   4  27
ATOM     27  O   UNL     1       0.108   8.221  21.919  0.00  0.00    +0.000 OA
ATOM     28  H   UNL     1       0.386   7.295  21.981  0.00  0.00    +0.000 HD
ENDBRANCH   4  27
BRANCH   7  29
ATOM     29  O   UNL     1       2.204  10.761  17.499  0.00  0.00    +0.000 OA
ATOM     30  H   UNL     1       2.403  11.681  17.786  0.00  0.00    +0.000 HD
ENDBRANCH   7  29
BRANCH   9  31
ATOM     31  O   UNL     1      -0.475  12.112  17.806  0.00  0.00    +0.000 OA
ATOM     32  H   UNL     1       0.113  12.080  17.025  0.00  0.00    +0.000 HD
ENDBRANCH   9  31
BRANCH  14  33
ATOM     33  O   UNL     1       4.929   6.207  16.190  0.00  0.00    +0.000 OA
ATOM     34  C   UNL     1       5.484   5.239  15.328  0.00  0.00    +0.000 C 
ENDBRANCH  14  33
TORSDOF 7
ENDMDL
MODEL 4
REMARK VINA RESULT:      -7.1      1.480      1.969
REMARK  Name = 
REMARK  9 active torsions:
REMARK  status: ('A' for Active; 'I' for Inactive)
REMARK    1  A    between atoms: C_1  and  O_2
REMARK    2  A    between atoms: O_2  and  C_3
REMARK    3  A    between atoms: C_3  and  C_5
REMARK    4  A    between atoms: C_5  and  O_6
REMARK    5  A    between atoms: C_9  and  O_10
REMARK    6  A    between atoms: C_13  and  O_14
REMARK    7  A    between atoms: C_16  and  O_17
REMARK    8  A    between atoms: C_22  and  O_23
REMARK    9  A    between atoms: O_23  and  C_24
REMARK                            x       y       z     vdW  Elec       q    Type
REMARK                         _______ _______ _______ _____ _____    ______ ____
ROOT
ATOM      1  C   UNL     1       4.190   4.803  18.897  0.00  0.00    +0.000 C 
ATOM      2  C   UNL     1       2.990   5.173  19.792  0.00  0.00    +0.000 C 
ATOM      3  C   UNL     1       2.466   6.580  19.568  0.00  0.00    +0.000 A 
ATOM      4  C   UNL     1       1.658   7.219  20.535  0.00  0.00    +0.000 A 
ATOM      5  C   UNL     1       1.214   8.548  20.367  0.00  0.00    +0.000 A 
ATOM      6  C   UNL     1       1.570   9.232  19.212  0.00  0.00    +0.000 A 
ATOM      7  C   UNL     1       2.305   8.573  18.209  0.00  0.00    +0.000 A 
ATOM      8  C   UNL     1       2.771   7.262  18.371  0.00  0.00    +0.000 A 
ATOM      9  C   UNL     1       3.658   6.657  17.301  0.00  0.00    +0.000 C 
ATOM     10  C   UNL     1       3.849   5.149  17.445  0.00  0.00    +0.000 C 
ATOM     11  C   UNL     1       1.257  10.668  19.060  0.00  0.00    +0.000 C 
ATOM     12  O   UNL     1       1.882  11.246  18.178  0.00  0.00    +0.000 OA
ATOM     13  C   UNL     1       0.319  11.367  19.965  0.00  0.00    +0.000 A 
ATOM     14  C   UNL     1      -0.165  12.683  19.798  0.00  0.00    +0.000 A 
ATOM     15  C   UNL     1      -1.008  13.227  20.791  0.00  0.00    +0.000 A 
ATOM     16  C   UNL     1      -1.384  12.512  21.920  0.00  0.00    +0.000 A 
ATOM     17  C   UNL     1      -0.924  11.218  22.075  0.00  0.00    +0.000 A 
ATOM     18  C   UNL     1      -0.077  10.644  21.108  0.00  0.00    +0.000 A 
ATOM     19  C   UNL     1       0.377   9.252  21.366  0.00  0.00    +0.000 C 
ATOM     20  O   UNL     1       0.017   8.709  22.408  0.00  0.00    +0.000 OA
ENDROOT
BRANCH   1  21
ATOM     21  C   UNL     1       4.467   3.292  19.018  0.00  0.00    +0.000 C 
ATOM     22  O   UNL     1       5.110   2.773  19.923  0.00  0.00    +0.000 OA
BRANCH  21  24
ATOM     23  C   UNL     1       2.879   1.692  18.362  0.00  0.00    +0.000 C 
ATOM     24  O   UNL     1       3.900   2.612  17.981  0.00  0.00    +0.000 OA
ENDBRANCH  21  24
ENDBRANCH   1  21
BRANCH   1  25
ATOM     25  O   UNL     1       5.352   5.559  19.287  0.00  0.00    +0.000 OA
ATOM     26  H   UNL     1       5.447   5.514  20.256  0.00  0.00    +0.000 HD
ENDBRANCH   1  25
BRANCH   4  27
ATOM     27  O   UNL     1       1.334   6.553  21.688  0.00  0.00    +0.000 OA
ATOM     28  H   UNL     1       2.119   6.274  22.183  0.00  0.00    +0.000 HD
ENDBRANCH   4  27
BRANCH   7  29
ATOM     29  O   UNL     1       2.600   9.185  17.014  0.00  0.00    +0.000 OA
ATOM     30  H   UNL     1       2.902   8.495  16.381  0.00  0.00    +0.000 HD
ENDBRANCH   7  29
BRANCH   9  31
ATOM     31  O   UNL     1       4.934   7.304  17.345  0.00  0.00    +0.000 OA
ATOM     32  H   UNL     1       5.601   6.645  17.066  0.00  0.00    +0.000 HD
ENDBRANCH   9  31
BRANCH  14  33
ATOM     33  O   UNL     1      -0.007  13.633  18.828  0.00  0.00    +0.000 OA
ATOM     34  C   UNL     1       0.883  14.725  18.906  0.00  0.00    +0.000 C 
ENDBRANCH  14  33
TORSDOF 7
ENDMDL
MODEL 5
REMARK VINA RESULT:      -7.0      1.866      4.060
REMARK  Name = 
REMARK  9 active torsions:
REMARK  status: ('A' for Active; 'I' for Inactive)
REMARK    1  A    between atoms: C_1  and  O_2
REMARK    2  A    between atoms: O_2  and  C_3
REMARK    3  A    between atoms: C_3  and  C_5
REMARK    4  A    between atoms: C_5  and  O_6
REMARK    5  A    between atoms: C_9  and  O_10
REMARK    6  A    between atoms: C_13  and  O_14
REMARK    7  A    between atoms: C_16  and  O_17
REMARK    8  A    between atoms: C_22  and  O_23
REMARK    9  A    between atoms: O_23  and  C_24
REMARK                            x       y       z     vdW  Elec       q    Type
REMARK                         _______ _______ _______ _____ _____    ______ ____
ROOT
ATOM      1  C   UNL     1       3.402   5.768  17.906  0.00  0.00    +0.000 C 
ATOM      2  C   UNL     1       3.287   7.285  17.651  0.00  0.00    +0.000 C 
ATOM      3  C   UNL     1       2.415   8.014  18.655  0.00  0.00    +0.000 A 
ATOM      4  C   UNL     1       1.885   9.292  18.367  0.00  0.00    +0.000 A 
ATOM      5  C   UNL     1       1.023   9.957  19.266  0.00  0.00    +0.000 A 
ATOM      6  C   UNL     1       0.707   9.340  20.469  0.00  0.00    +0.000 A 
ATOM      7  C   UNL     1       1.298   8.105  20.798  0.00  0.00    +0.000 A 
ATOM      8  C   UNL     1       2.137   7.424  19.906  0.00  0.00    +0.000 A 
ATOM      9  C   UNL     1       2.642   6.043  20.276  0.00  0.00    +0.000 C 
ATOM     10  C   UNL     1       3.768   5.541  19.376  0.00  0.00    +0.000 C 
ATOM     11  C   UNL     1      -0.305   9.925  21.374  0.00  0.00    +0.000 C 
ATOM     12  O   UNL     1      -0.742   9.163  22.228  0.00  0.00    +0.000 OA
ATOM     13  C   UNL     1      -0.807  11.305  21.199  0.00  0.00    +0.000 A 
ATOM     14  C   UNL     1      -1.642  12.000  22.102  0.00  0.00    +0.000 A 
ATOM     15  C   UNL     1      -2.087  13.294  21.755  0.00  0.00    +0.000 A 
ATOM     16  C   UNL     1      -1.728  13.909  20.564  0.00  0.00    +0.000 A 
ATOM     17  C   UNL     1      -0.898  13.235  19.687  0.00  0.00    +0.000 A 
ATOM     18  C   UNL     1      -0.438  11.941  19.997  0.00  0.00    +0.000 A 
ATOM     19  C   UNL     1       0.440  11.290  18.990  0.00  0.00    +0.000 C 
ATOM     20  O   UNL     1       0.680  11.898  17.950  0.00  0.00    +0.000 OA
ENDROOT
BRANCH   1  21
ATOM     21  C   UNL     1       4.502   5.181  17.002  0.00  0.00    +0.000 C 
ATOM     22  O   UNL     1       4.632   3.989  16.750  0.00  0.00    +0.000 OA
BRANCH  21  24
ATOM     23  C   UNL     1       6.700   5.976  16.778  0.00  0.00    +0.000 C 
ATOM     24  O   UNL     1       5.311   6.169  16.521  0.00  0.00    +0.000 OA
ENDBRANCH  21  24
ENDBRANCH   1  21
BRANCH   1  25
ATOM     25  O   UNL     1       2.141   5.124  17.645  0.00  0.00    +0.000 OA
ATOM     26  H   UNL     1       2.107   4.866  16.705  0.00  0.00    +0.000 HD
ENDBRANCH   1  25
BRANCH   4  27
ATOM     27  O   UNL     1       2.173   9.885  17.165  0.00  0.00    +0.000 OA
ATOM     28  H   UNL     1       1.566  10.612  16.961  0.00  0.00    +0.000 HD
ENDBRANCH   4  27
BRANCH   7  29
ATOM     29  O   UNL     1       1.082   7.505  22.015  0.00  0.00    +0.000 OA
ATOM     30  H   UNL     1       0.198   7.073  21.993  0.00  0.00    +0.000 HD
ENDBRANCH   7  29
BRANCH   9  31
ATOM     31  O   UNL     1       1.545   5.126  20.221  0.00  0.00    +0.000 OA
ATOM     32  H   UNL     1       1.304   5.021  19.279  0.00  0.00    +0.000 HD
ENDBRANCH   9  31
BRANCH  14  33
ATOM     33  O   UNL     1      -2.161  11.704  23.331  0.00  0.00    +0.000 OA
ATOM     34  C   UNL     1      -3.343  12.259  23.864  0.00  0.00    +0.000 C 
ENDBRANCH  14  33
TORSDOF 7
ENDMDL
MODEL 6
REMARK VINA RESULT:      -7.0      2.145      7.589
REMARK  Name = 
REMARK  9 active torsions:
REMARK  status: ('A' for Active; 'I' for Inactive)
REMARK    1  A    between atoms: C_1  and  O_2
REMARK    2  A    between atoms: O_2  and  C_3
REMARK    3  A    between atoms: C_3  and  C_5
REMARK    4  A    between atoms: C_5  and  O_6
REMARK    5  A    between atoms: C_9  and  O_10
REMARK    6  A    between atoms: C_13  and  O_14
REMARK    7  A    between atoms: C_16  and  O_17
REMARK    8  A    between atoms: C_22  and  O_23
REMARK    9  A    between atoms: O_23  and  C_24
REMARK                            x       y       z     vdW  Elec       q    Type
REMARK                         _______ _______ _______ _____ _____    ______ ____
ROOT
ATOM      1  C   UNL     1      -1.945  13.186  20.300  0.00  0.00    +0.000 C 
ATOM      2  C   UNL     1      -1.377  12.026  21.144  0.00  0.00    +0.000 C 
ATOM      3  C   UNL     1      -0.353  11.178  20.413  0.00  0.00    +0.000 A 
ATOM      4  C   UNL     1      -0.027   9.880  20.866  0.00  0.00    +0.000 A 
ATOM      5  C   UNL     1       0.879   9.056  20.163  0.00  0.00    +0.000 A 
ATOM      6  C   UNL     1       1.474   9.548  19.009  0.00  0.00    +0.000 A 
ATOM      7  C   UNL     1       1.216  10.870  18.599  0.00  0.00    +0.000 A 
ATOM      8  C   UNL     1       0.303  11.691  19.274  0.00  0.00    +0.000 A 
ATOM      9  C   UNL     1      -0.015  13.061  18.709  0.00  0.00    +0.000 C 
ATOM     10  C   UNL     1      -0.779  13.961  19.677  0.00  0.00    +0.000 C 
ATOM     11  C   UNL     1       2.310   8.673  18.160  0.00  0.00    +0.000 C 
ATOM     12  O   UNL     1       2.515   9.091  17.026  0.00  0.00    +0.000 OA
ATOM     13  C   UNL     1       2.789   7.354  18.626  0.00  0.00    +0.000 A 
ATOM     14  C   UNL     1       3.720   6.530  17.956  0.00  0.00    +0.000 A 
ATOM     15  C   UNL     1       4.024   5.265  18.505  0.00  0.00    +0.000 A 
ATOM     16  C   UNL     1       3.447   4.808  19.682  0.00  0.00    +0.000 A 
ATOM     17  C   UNL     1       2.548   5.621  20.346  0.00  0.00    +0.000 A 
ATOM     18  C   UNL     1       2.217   6.887  19.826  0.00  0.00    +0.000 A 
ATOM     19  C   UNL     1       1.233   7.686  20.602  0.00  0.00    +0.000 C 
ATOM     20  O   UNL     1       0.751   7.187  21.616  0.00  0.00    +0.000 OA
ENDROOT
BRANCH   1  21
ATOM     21  C   UNL     1      -2.762  14.124  21.208  0.00  0.00    +0.000 C 
ATOM     22  O   UNL     1      -2.920  15.322  21.008  0.00  0.00    +0.000 OA
BRANCH  21  24
ATOM     23  C   UNL     1      -4.703  13.284  22.228  0.00  0.00    +0.000 C 
ATOM     24  O   UNL     1      -3.286  13.439  22.265  0.00  0.00    +0.000 OA
ENDBRANCH  21  24
ENDBRANCH   1  21
BRANCH   1  25
ATOM     25  O   UNL     1      -2.770  12.670  19.238  0.00  0.00    +0.000 OA
ATOM     26  H   UNL     1      -2.429  12.999  18.386  0.00  0.00    +0.000 HD
ENDBRANCH   1  25
BRANCH   4  27
ATOM     27  O   UNL     1      -0.638   9.385  21.988  0.00  0.00    +0.000 OA
ATOM     28  H   UNL     1      -1.519   9.766  22.124  0.00  0.00    +0.000 HD
ENDBRANCH   4  27
BRANCH   7  29
ATOM     29  O   UNL     1       1.853  11.424  17.515  0.00  0.00    +0.000 OA
ATOM     30  H   UNL     1       1.379  12.251  17.269  0.00  0.00    +0.000 HD
ENDBRANCH   7  29
BRANCH   9  31
ATOM     31  O   UNL     1      -0.780  12.894  17.511  0.00  0.00    +0.000 OA
ATOM     32  H   UNL     1      -0.180  12.518  16.836  0.00  0.00    +0.000 HD
ENDBRANCH   9  31
BRANCH  14  33
ATOM     33  O   UNL     1       4.461   6.672  16.817  0.00  0.00    +0.000 OA
ATOM     34  C   UNL     1       5.870   6.634  16.760  0.00  0.00    +0.000 C 
ENDBRANCH  14  33
TORSDOF 7
ENDMDL
MODEL 7
REMARK VINA RESULT:      -6.9      1.602      8.397
REMARK  Name = 
REMARK  9 active torsions:
REMARK  status: ('A' for Active; 'I' for Inactive)
REMARK    1  A    between atoms: C_1  and  O_2
REMARK    2  A    between atoms: O_2  and  C_3
REMARK    3  A    between atoms: C_3  and  C_5
REMARK    4  A    between atoms: C_5  and  O_6
REMARK    5  A    between atoms: C_9  and  O_10
REMARK    6  A    between atoms: C_13  and  O_14
REMARK    7  A    between atoms: C_16  and  O_17
REMARK    8  A    between atoms: C_22  and  O_23
REMARK    9  A    between atoms: O_23  and  C_24
REMARK                            x       y       z     vdW  Elec       q    Type
REMARK                         _______ _______ _______ _____ _____    ______ ____
ROOT
ATOM      1  C   UNL     1       0.026  12.434  20.359  0.00  0.00    +0.000 C 
ATOM      2  C   UNL     1       0.545  11.751  19.077  0.00  0.00    +0.000 C 
ATOM      3  C   UNL     1       0.960  10.305  19.275  0.00  0.00    +0.000 A 
ATOM      4  C   UNL     1       1.804   9.656  18.345  0.00  0.00    +0.000 A 
ATOM      5  C   UNL     1       2.247   8.331  18.547  0.00  0.00    +0.000 A 
ATOM      6  C   UNL     1       1.825   7.649  19.681  0.00  0.00    +0.000 A 
ATOM      7  C   UNL     1       0.919   8.262  20.567  0.00  0.00    +0.000 A 
ATOM      8  C   UNL     1       0.489   9.584  20.392  0.00  0.00    +0.000 A 
ATOM      9  C   UNL     1      -0.393  10.219  21.449  0.00  0.00    +0.000 C 
ATOM     10  C   UNL     1      -1.031  11.533  21.006  0.00  0.00    +0.000 C 
ATOM     11  C   UNL     1       2.379   6.320  20.011  0.00  0.00    +0.000 C 
ATOM     12  O   UNL     1       2.199   5.953  21.167  0.00  0.00    +0.000 OA
ATOM     13  C   UNL     1       3.166   5.534  19.035  0.00  0.00    +0.000 A 
ATOM     14  C   UNL     1       3.590   4.197  19.202  0.00  0.00    +0.000 A 
ATOM     15  C   UNL     1       4.392   3.610  18.199  0.00  0.00    +0.000 A 
ATOM     16  C   UNL     1       4.770   4.297  17.054  0.00  0.00    +0.000 A 
ATOM     17  C   UNL     1       4.342   5.600  16.883  0.00  0.00    +0.000 A 
ATOM     18  C   UNL     1       3.545   6.220  17.864  0.00  0.00    +0.000 A 
ATOM     19  C   UNL     1       3.141   7.626  17.600  0.00  0.00    +0.000 C 
ATOM     20  O   UNL     1       3.550   8.163  16.573  0.00  0.00    +0.000 OA
ENDROOT
BRANCH   1  21
ATOM     21  C   UNL     1      -0.605  13.791  19.993  0.00  0.00    +0.000 C 
ATOM     22  O   UNL     1      -0.050  14.659  19.329  0.00  0.00    +0.000 OA
BRANCH  21  24
ATOM     23  C   UNL     1      -2.195  15.188  21.009  0.00  0.00    +0.000 C 
ATOM     24  O   UNL     1      -1.863  13.894  20.508  0.00  0.00    +0.000 OA
ENDBRANCH  21  24
ENDBRANCH   1  21
BRANCH   1  25
ATOM     25  O   UNL     1       1.105  12.617  21.295  0.00  0.00    +0.000 OA
ATOM     26  H   UNL     1       1.937  12.726  20.799  0.00  0.00    +0.000 HD
ENDBRANCH   1  25
BRANCH   4  27
ATOM     27  O   UNL     1       2.244  10.341  17.243  0.00  0.00    +0.000 OA
ATOM     28  H   UNL     1       1.557  10.915  16.871  0.00  0.00    +0.000 HD
ENDBRANCH   4  27
BRANCH   7  29
ATOM     29  O   UNL     1       0.408   7.589  21.652  0.00  0.00    +0.000 OA
ATOM     30  H   UNL     1      -0.428   8.032  21.921  0.00  0.00    +0.000 HD
ENDBRANCH   7  29
BRANCH   9  31
ATOM     31  O   UNL     1       0.393  10.444  22.624  0.00  0.00    +0.000 OA
ATOM     32  H   UNL     1       0.676   9.568  22.953  0.00  0.00    +0.000 HD
ENDBRANCH   9  31
BRANCH  14  33
ATOM     33  O   UNL     1       3.393   3.256  20.174  0.00  0.00    +0.000 OA
ATOM     34  C   UNL     1       4.239   2.153  20.412  0.00  0.00    +0.000 C 
ENDBRANCH  14  33
TORSDOF 7
ENDMDL
MODEL 8
REMARK VINA RESULT:      -6.8      1.813      8.364
REMARK  Name = 
REMARK  9 active torsions:
REMARK  status: ('A' for Active; 'I' for Inactive)
REMARK    1  A    between atoms: C_1  and  O_2
REMARK    2  A    between atoms: O_2  and  C_3
REMARK    3  A    between atoms: C_3  and  C_5
REMARK    4  A    between atoms: C_5  and  O_6
REMARK    5  A    between atoms: C_9  and  O_10
REMARK    6  A    between atoms: C_13  and  O_14
REMARK    7  A    between atoms: C_16  and  O_17
REMARK    8  A    between atoms: C_22  and  O_23
REMARK    9  A    between atoms: O_23  and  C_24
REMARK                            x       y       z     vdW  Elec       q    Type
REMARK                         _______ _______ _______ _____ _____    ______ ____
ROOT
ATOM      1  C   UNL     1      -1.366  13.933  21.196  0.00  0.00    +0.000 C 
ATOM      2  C   UNL     1      -0.843  13.313  19.884  0.00  0.00    +0.000 C 
ATOM      3  C   UNL     1      -0.324  11.895  20.037  0.00  0.00    +0.000 A 
ATOM      4  C   UNL     1       0.531  11.325  19.068  0.00  0.00    +0.000 A 
ATOM      5  C   UNL     1       1.070  10.029  19.226  0.00  0.00    +0.000 A 
ATOM      6  C   UNL     1       0.732   9.298  20.358  0.00  0.00    +0.000 A 
ATOM      7  C   UNL     1      -0.184   9.829  21.285  0.00  0.00    +0.000 A 
ATOM      8  C   UNL     1      -0.710  11.121  21.152  0.00  0.00    +0.000 A 
ATOM      9  C   UNL     1      -1.598  11.673  22.250  0.00  0.00    +0.000 C 
ATOM     10  C   UNL     1      -2.338  12.949  21.855  0.00  0.00    +0.000 C 
ATOM     11  C   UNL     1       1.386   8.003  20.641  0.00  0.00    +0.000 C 
ATOM     12  O   UNL     1       1.268   7.602  21.794  0.00  0.00    +0.000 OA
ATOM     13  C   UNL     1       2.192   7.293  19.625  0.00  0.00    +0.000 A 
ATOM     14  C   UNL     1       2.711   5.985  19.749  0.00  0.00    +0.000 A 
ATOM     15  C   UNL     1       3.518   5.475  18.709  0.00  0.00    +0.000 A 
ATOM     16  C   UNL     1       3.812   6.208  17.569  0.00  0.00    +0.000 A 
ATOM     17  C   UNL     1       3.291   7.482  17.440  0.00  0.00    +0.000 A 
ATOM     18  C   UNL     1       2.486   8.026  18.458  0.00  0.00    +0.000 A 
ATOM     19  C   UNL     1       1.979   9.406  18.237  0.00  0.00    +0.000 C 
ATOM     20  O   UNL     1       2.316   9.990  17.210  0.00  0.00    +0.000 OA
ENDROOT
BRANCH   1  21
ATOM     21  C   UNL     1      -2.099  15.250  20.880  0.00  0.00    +0.000 C 
ATOM     22  O   UNL     1      -1.639  16.153  20.191  0.00  0.00    +0.000 OA
BRANCH  21  24
ATOM     23  C   UNL     1      -3.602  16.455  22.223  0.00  0.00    +0.000 C 
ATOM     24  O   UNL     1      -3.328  15.274  21.471  0.00  0.00    +0.000 OA
ENDBRANCH  21  24
ENDBRANCH   1  21
BRANCH   1  25
ATOM     25  O   UNL     1      -0.272  14.172  22.102  0.00  0.00    +0.000 OA
ATOM     26  H   UNL     1       0.515  14.424  21.586  0.00  0.00    +0.000 HD
ENDBRANCH   1  25
BRANCH   4  27
ATOM     27  O   UNL     1       0.888  12.060  17.968  0.00  0.00    +0.000 OA
ATOM     28  H   UNL     1       1.806  12.365  18.014  0.00  0.00    +0.000 HD
ENDBRANCH   4  27
BRANCH   7  29
ATOM     29  O   UNL     1      -0.613   9.102  22.369  0.00  0.00    +0.000 OA
ATOM     30  H   UNL     1      -0.556   9.676  23.167  0.00  0.00    +0.000 HD
ENDBRANCH   7  29
BRANCH   9  31
ATOM     31  O   UNL     1      -0.791  11.929  23.404  0.00  0.00    +0.000 OA
ATOM     32  H   UNL     1      -1.128  12.751  23.814  0.00  0.00    +0.000 HD
ENDBRANCH   9  31
BRANCH  14  33
ATOM     33  O   UNL     1       2.611   5.014  20.706  0.00  0.00    +0.000 OA
ATOM     34  C   UNL     1       1.597   4.036  20.760  0.00  0.00    +0.000 C 
ENDBRANCH  14  33
TORSDOF 7
ENDMDL
MODEL 9
REMARK VINA RESULT:      -6.8      1.329      8.443
REMARK  Name = 
REMARK  9 active torsions:
REMARK  status: ('A' for Active; 'I' for Inactive)
REMARK    1  A    between atoms: C_1  and  O_2
REMARK    2  A    between atoms: O_2  and  C_3
REMARK    3  A    between atoms: C_3  and  C_5
REMARK    4  A    between atoms: C_5  and  O_6
REMARK    5  A    between atoms: C_9  and  O_10
REMARK    6  A    between atoms: C_13  and  O_14
REMARK    7  A    between atoms: C_16  and  O_17
REMARK    8  A    between atoms: C_22  and  O_23
REMARK    9  A    between atoms: O_23  and  C_24
REMARK                            x       y       z     vdW  Elec       q    Type
REMARK                         _______ _______ _______ _____ _____    ______ ____
ROOT
ATOM      1  C   UNL     1       0.526  13.873  19.700  0.00  0.00    +0.000 C 
ATOM      2  C   UNL     1       0.969  12.890  18.596  0.00  0.00    +0.000 C 
ATOM      3  C   UNL     1       1.032  11.443  19.049  0.00  0.00    +0.000 A 
ATOM      4  C   UNL     1       1.772  10.484  18.322  0.00  0.00    +0.000 A 
ATOM      5  C   UNL     1       1.889   9.149  18.763  0.00  0.00    +0.000 A 
ATOM      6  C   UNL     1       1.242   8.771  19.933  0.00  0.00    +0.000 A 
ATOM      7  C   UNL     1       0.436   9.701  20.616  0.00  0.00    +0.000 A 
ATOM      8  C   UNL     1       0.329  11.036  20.202  0.00  0.00    +0.000 A 
ATOM      9  C   UNL     1      -0.461  12.011  21.053  0.00  0.00    +0.000 C 
ATOM     10  C   UNL     1      -0.751  13.337  20.354  0.00  0.00    +0.000 C 
ATOM     11  C   UNL     1       1.456   7.429  20.513  0.00  0.00    +0.000 C 
ATOM     12  O   UNL     1       1.113   7.308  21.684  0.00  0.00    +0.000 OA
ATOM     13  C   UNL     1       2.113   6.343  19.755  0.00  0.00    +0.000 A 
ATOM     14  C   UNL     1       2.211   4.994  20.162  0.00  0.00    +0.000 A 
ATOM     15  C   UNL     1       2.930   4.091  19.349  0.00  0.00    +0.000 A 
ATOM     16  C   UNL     1       3.536   4.480  18.164  0.00  0.00    +0.000 A 
ATOM     17  C   UNL     1       3.427   5.796  17.757  0.00  0.00    +0.000 A 
ATOM     18  C   UNL     1       2.722   6.727  18.544  0.00  0.00    +0.000 A 
ATOM     19  C   UNL     1       2.666   8.122  18.033  0.00  0.00    +0.000 C 
ATOM     20  O   UNL     1       3.259   8.380  16.988  0.00  0.00    +0.000 OA
ENDROOT
BRANCH   1  21
ATOM     21  C   UNL     1       0.247  15.251  19.072  0.00  0.00    +0.000 C 
ATOM     22  O   UNL     1      -0.848  15.802  19.063  0.00  0.00    +0.000 OA
BRANCH  21  24
ATOM     23  C   UNL     1       1.663  17.118  18.915  0.00  0.00    +0.000 C 
ATOM     24  O   UNL     1       1.383  15.774  18.527  0.00  0.00    +0.000 OA
ENDBRANCH  21  24
ENDBRANCH   1  21
BRANCH   1  25
ATOM     25  O   UNL     1       1.548  13.978  20.709  0.00  0.00    +0.000 OA
ATOM     26  H   UNL     1       1.657  13.110  21.139  0.00  0.00    +0.000 HD
ENDBRANCH   1  25
BRANCH   4  27
ATOM     27  O   UNL     1       2.435  10.866  17.184  0.00  0.00    +0.000 OA
ATOM     28  H   UNL     1       2.045  11.657  16.782  0.00  0.00    +0.000 HD
ENDBRANCH   4  27
BRANCH   7  29
ATOM     29  O   UNL     1      -0.291   9.344  21.726  0.00  0.00    +0.000 OA
ATOM     30  H   UNL     1      -0.090   8.404  21.936  0.00  0.00    +0.000 HD
ENDBRANCH   7  29
BRANCH   9  31
ATOM     31  O   UNL     1       0.268  12.259  22.259  0.00  0.00    +0.000 OA
ATOM     32  H   UNL     1      -0.389  12.449  22.959  0.00  0.00    +0.000 HD
ENDBRANCH   9  31
BRANCH  14  33
ATOM     33  O   UNL     1       1.737   4.292  21.235  0.00  0.00    +0.000 OA
ATOM     34  C   UNL     1       1.405   2.922  21.221  0.00  0.00    +0.000 C 
ENDBRANCH  14  33
TORSDOF 7
ENDMDL
