MODEL 1
REMARK VINA RESULT:      -6.9      0.000      0.000
REMARK  Name = 
REMARK  5 active torsions:
REMARK  status: ('A' for Active; 'I' for Inactive)
REMARK    1  A    between atoms: C_1  and  C_2
REMARK    2  A    between atoms: C_5  and  C_6
REMARK    3  A    between atoms: C_6  and  N_7
REMARK    4  A    between atoms: N_7  and  C_8
REMARK    5  A    between atoms: C_9  and  C_11
REMARK                            x       y       z     vdW  Elec       q    Type
REMARK                         _______ _______ _______ _____ _____    ______ ____
ROOT
ATOM      1  N   UNL     1       6.190   5.296  16.428  0.00  0.00    +0.000 N 
ATOM      2  C   UNL     1       5.028   5.950  15.850  0.00  0.00    +0.000 C 
ATOM      3  C   UNL     1       6.189   4.617  17.650  0.00  0.00    +0.000 C 
ATOM      4  O   UNL     1       7.235   4.190  18.141  0.00  0.00    +0.000 OA
ENDROOT
BRANCH   3   5
ATOM      5  C   UNL     1       4.907   4.398  18.359  0.00  0.00    +0.000 A 
ATOM      6  C   UNL     1       4.377   5.246  19.365  0.00  0.00    +0.000 A 
ATOM      7  C   UNL     1       3.226   4.640  19.805  0.00  0.00    +0.000 A 
ATOM      8  N   UNL     1       2.311   4.999  20.758  0.00  0.00    +0.000 NA
ATOM      9  C   UNL     1       1.329   4.167  20.938  0.00  0.00    +0.000 A 
ATOM     10  C   UNL     1       1.113   2.888  20.206  0.00  0.00    +0.000 A 
ATOM     11  C   UNL     1       2.043   2.596  19.289  0.00  0.00    +0.000 A 
ATOM     12  N   UNL     1       3.114   3.461  19.070  0.00  0.00    +0.000 N 
ATOM     13  N   UNL     1       4.133   3.309  18.190  0.00  0.00    +0.000 NA
ENDBRANCH   3   5
BRANCH   1  14
ATOM     14  C   UNL     1       7.399   5.243  15.609  0.00  0.00    +0.000 C 
BRANCH  14  19
ATOM     15  C   UNL     1       5.486   2.557  11.879  0.00  0.00    +0.000 C 
ATOM     16  C   UNL     1       6.355   3.599  12.482  0.00  0.00    +0.000 A 
ATOM     17  C   UNL     1       7.282   4.372  11.812  0.00  0.00    +0.000 A 
ATOM     18  S   UNL     1       8.053   5.445  12.897  0.00  0.00    +0.000 S 
ATOM     19  C   UNL     1       7.122   4.796  14.195  0.00  0.00    +0.000 A 
ATOM     20  N   UNL     1       6.269   3.848  13.848  0.00  0.00    +0.000 NA
ENDBRANCH  14  19
ENDBRANCH   1  14
TORSDOF 3
ENDMDL
MODEL 2
REMARK VINA RESULT:      -6.7      0.839      1.323
REMARK  Name = 
REMARK  5 active torsions:
REMARK  status: ('A' for Active; 'I' for Inactive)
REMARK    1  A    between atoms: C_1  and  C_2
REMARK    2  A    between atoms: C_5  and  C_6
REMARK    3  A    between atoms: C_6  and  N_7
REMARK    4  A    between atoms: N_7  and  C_8
REMARK    5  A    between atoms: C_9  and  C_11
REMARK                            x       y       z     vdW  Elec       q    Type
REMARK                         _______ _______ _______ _____ _____    ______ ____
ROOT
ATOM      1  N   UNL     1       6.188   5.141  16.486  0.00  0.00    +0.000 N 
ATOM      2  C   UNL     1       4.956   5.627  15.888  0.00  0.00    +0.000 C 
ATOM      3  C   UNL     1       6.275   4.551  17.750  0.00  0.00    +0.000 C 
ATOM      4  O   UNL     1       7.366   4.271  18.248  0.00  0.00    +0.000 OA
ENDROOT
BRANCH   3   5
ATOM      5  C   UNL     1       5.032   4.247  18.497  0.00  0.00    +0.000 A 
ATOM      6  C   UNL     1       4.301   3.036  18.403  0.00  0.00    +0.000 A 
ATOM      7  C   UNL     1       3.189   3.201  19.192  0.00  0.00    +0.000 A 
ATOM      8  N   UNL     1       2.138   2.371  19.475  0.00  0.00    +0.000 NA
ATOM      9  C   UNL     1       1.227   2.863  20.261  0.00  0.00    +0.000 A 
ATOM     10  C   UNL     1       1.233   4.220  20.874  0.00  0.00    +0.000 A 
ATOM     11  C   UNL     1       2.287   4.982  20.556  0.00  0.00    +0.000 A 
ATOM     12  N   UNL     1       3.282   4.491  19.712  0.00  0.00    +0.000 N 
ATOM     13  N   UNL     1       4.401   5.131  19.294  0.00  0.00    +0.000 NA
ENDBRANCH   3   5
BRANCH   1  14
ATOM     14  C   UNL     1       7.386   5.159  15.649  0.00  0.00    +0.000 C 
BRANCH  14  19
ATOM     15  C   UNL     1       5.513   2.540  11.851  0.00  0.00    +0.000 C 
ATOM     16  C   UNL     1       6.354   3.591  12.480  0.00  0.00    +0.000 A 
ATOM     17  C   UNL     1       7.243   4.420  11.825  0.00  0.00    +0.000 A 
ATOM     18  S   UNL     1       7.991   5.481  12.936  0.00  0.00    +0.000 S 
ATOM     19  C   UNL     1       7.104   4.753  14.223  0.00  0.00    +0.000 A 
ATOM     20  N   UNL     1       6.280   3.788  13.854  0.00  0.00    +0.000 NA
ENDBRANCH  14  19
ENDBRANCH   1  14
TORSDOF 3
ENDMDL
MODEL 3
REMARK VINA RESULT:      -6.4      3.094      3.760
REMARK  Name = 
REMARK  5 active torsions:
REMARK  status: ('A' for Active; 'I' for Inactive)
REMARK    1  A    between atoms: C_1  and  C_2
REMARK    2  A    between atoms: C_5  and  C_6
REMARK    3  A    between atoms: C_6  and  N_7
REMARK    4  A    between atoms: N_7  and  C_8
REMARK    5  A    between atoms: C_9  and  C_11
REMARK                            x       y       z     vdW  Elec       q    Type
REMARK                         _______ _______ _______ _____ _____    ______ ____
ROOT
ATOM      1  N   UNL     1       6.049   5.767  17.812  0.00  0.00    +0.000 N 
ATOM      2  C   UNL     1       6.528   7.136  17.715  0.00  0.00    +0.000 C 
ATOM      3  C   UNL     1       4.755   5.410  18.201  0.00  0.00    +0.000 C 
ATOM      4  O   UNL     1       4.448   4.230  18.381  0.00  0.00    +0.000 OA
ENDROOT
BRANCH   3   5
ATOM      5  C   UNL     1       3.733   6.466  18.388  0.00  0.00    +0.000 A 
ATOM      6  C   UNL     1       3.404   7.459  17.431  0.00  0.00    +0.000 A 
ATOM      7  C   UNL     1       2.476   8.274  18.033  0.00  0.00    +0.000 A 
ATOM      8  N   UNL     1       1.812   9.386  17.590  0.00  0.00    +0.000 NA
ATOM      9  C   UNL     1       1.000   9.935  18.443  0.00  0.00    +0.000 A 
ATOM     10  C   UNL     1       0.728   9.463  19.829  0.00  0.00    +0.000 A 
ATOM     11  C   UNL     1       1.410   8.371  20.200  0.00  0.00    +0.000 A 
ATOM     12  N   UNL     1       2.293   7.757  19.315  0.00  0.00    +0.000 N 
ATOM     13  N   UNL     1       3.054   6.658  19.536  0.00  0.00    +0.000 NA
ENDBRANCH   3   5
BRANCH   1  14
ATOM     14  C   UNL     1       6.948   4.713  17.349  0.00  0.00    +0.000 C 
BRANCH  14  19
ATOM     15  C   UNL     1       8.024   5.557  12.562  0.00  0.00    +0.000 C 
ATOM     16  C   UNL     1       7.306   4.907  13.688  0.00  0.00    +0.000 A 
ATOM     17  C   UNL     1       6.265   4.007  13.578  0.00  0.00    +0.000 A 
ATOM     18  S   UNL     1       5.744   3.511  15.128  0.00  0.00    +0.000 S 
ATOM     19  C   UNL     1       6.920   4.544  15.850  0.00  0.00    +0.000 A 
ATOM     20  N   UNL     1       7.676   5.210  14.994  0.00  0.00    +0.000 NA
ENDBRANCH  14  19
ENDBRANCH   1  14
TORSDOF 3
ENDMDL
MODEL 4
REMARK VINA RESULT:      -6.4      2.370      7.155
REMARK  Name = 
REMARK  5 active torsions:
REMARK  status: ('A' for Active; 'I' for Inactive)
REMARK    1  A    between atoms: C_1  and  C_2
REMARK    2  A    between atoms: C_5  and  C_6
REMARK    3  A    between atoms: C_6  and  N_7
REMARK    4  A    between atoms: N_7  and  C_8
REMARK    5  A    between atoms: C_9  and  C_11
REMARK                            x       y       z     vdW  Elec       q    Type
REMARK                         _______ _______ _______ _____ _____    ______ ____
ROOT
ATOM      1  N   UNL     1       5.018   5.119  18.037  0.00  0.00    +0.000 N 
ATOM      2  C   UNL     1       3.893   5.387  17.156  0.00  0.00    +0.000 C 
ATOM      3  C   UNL     1       6.258   4.637  17.610  0.00  0.00    +0.000 C 
ATOM      4  O   UNL     1       7.129   4.315  18.420  0.00  0.00    +0.000 OA
ENDROOT
BRANCH   3   5
ATOM      5  C   UNL     1       6.534   4.522  16.159  0.00  0.00    +0.000 A 
ATOM      6  C   UNL     1       7.348   5.411  15.412  0.00  0.00    +0.000 A 
ATOM      7  C   UNL     1       7.271   4.990  14.106  0.00  0.00    +0.000 A 
ATOM      8  N   UNL     1       7.843   5.467  12.958  0.00  0.00    +0.000 NA
ATOM      9  C   UNL     1       7.536   4.828  11.868  0.00  0.00    +0.000 A 
ATOM     10  C   UNL     1       6.642   3.641  11.766  0.00  0.00    +0.000 A 
ATOM     11  C   UNL     1       6.115   3.227  12.925  0.00  0.00    +0.000 A 
ATOM     12  N   UNL     1       6.417   3.889  14.114  0.00  0.00    +0.000 N 
ATOM     13  N   UNL     1       5.966   3.600  15.358  0.00  0.00    +0.000 NA
ENDBRANCH   3   5
BRANCH   1  14
ATOM     14  C   UNL     1       4.871   5.503  19.439  0.00  0.00    +0.000 C 
BRANCH  14  19
ATOM     15  C   UNL     1       1.282   2.572  21.262  0.00  0.00    +0.000 C 
ATOM     16  C   UNL     1       1.861   3.850  20.773  0.00  0.00    +0.000 A 
ATOM     17  C   UNL     1       1.182   5.040  20.607  0.00  0.00    +0.000 A 
ATOM     18  S   UNL     1       2.240   6.250  20.028  0.00  0.00    +0.000 S 
ATOM     19  C   UNL     1       3.532   5.108  20.011  0.00  0.00    +0.000 A 
ATOM     20  N   UNL     1       3.208   3.897  20.430  0.00  0.00    +0.000 NA
ENDBRANCH  14  19
ENDBRANCH   1  14
TORSDOF 3
ENDMDL
MODEL 5
REMARK VINA RESULT:      -6.4      2.893      6.985
REMARK  Name = 
REMARK  5 active torsions:
REMARK  status: ('A' for Active; 'I' for Inactive)
REMARK    1  A    between atoms: C_1  and  C_2
REMARK    2  A    between atoms: C_5  and  C_6
REMARK    3  A    between atoms: C_6  and  N_7
REMARK    4  A    between atoms: N_7  and  C_8
REMARK    5  A    between atoms: C_9  and  C_11
REMARK                            x       y       z     vdW  Elec       q    Type
REMARK                         _______ _______ _______ _____ _____    ______ ____
ROOT
ATOM      1  N   UNL     1       4.310   3.888  18.159  0.00  0.00    +0.000 N 
ATOM      2  C   UNL     1       3.398   3.363  17.156  0.00  0.00    +0.000 C 
ATOM      3  C   UNL     1       5.628   4.277  17.901  0.00  0.00    +0.000 C 
ATOM      4  O   UNL     1       6.386   4.598  18.818  0.00  0.00    +0.000 OA
ENDROOT
BRANCH   3   5
ATOM      5  C   UNL     1       6.115   4.315  16.503  0.00  0.00    +0.000 A 
ATOM      6  C   UNL     1       7.050   5.251  15.991  0.00  0.00    +0.000 A 
ATOM      7  C   UNL     1       7.161   4.983  14.649  0.00  0.00    +0.000 A 
ATOM      8  N   UNL     1       7.907   5.563  13.660  0.00  0.00    +0.000 NA
ATOM      9  C   UNL     1       7.754   5.062  12.471  0.00  0.00    +0.000 A 
ATOM     10  C   UNL     1       6.862   3.929  12.101  0.00  0.00    +0.000 A 
ATOM     11  C   UNL     1       6.159   3.407  13.114  0.00  0.00    +0.000 A 
ATOM     12  N   UNL     1       6.293   3.920  14.403  0.00  0.00    +0.000 N 
ATOM     13  N   UNL     1       5.656   3.510  15.526  0.00  0.00    +0.000 NA
ENDBRANCH   3   5
BRANCH   1  14
ATOM     14  C   UNL     1       3.763   4.138  19.490  0.00  0.00    +0.000 C 
BRANCH  14  19
ATOM     15  C   UNL     1       2.157   8.685  18.252  0.00  0.00    +0.000 C 
ATOM     16  C   UNL     1       2.236   7.467  19.099  0.00  0.00    +0.000 A 
ATOM     17  C   UNL     1       1.615   7.283  20.318  0.00  0.00    +0.000 A 
ATOM     18  S   UNL     1       1.976   5.732  20.938  0.00  0.00    +0.000 S 
ATOM     19  C   UNL     1       2.957   5.412  19.556  0.00  0.00    +0.000 A 
ATOM     20  N   UNL     1       3.004   6.390  18.668  0.00  0.00    +0.000 NA
ENDBRANCH  14  19
ENDBRANCH   1  14
TORSDOF 3
ENDMDL
MODEL 6
REMARK VINA RESULT:      -6.4      5.352      7.324
REMARK  Name = 
REMARK  5 active torsions:
REMARK  status: ('A' for Active; 'I' for Inactive)
REMARK    1  A    between atoms: C_1  and  C_2
REMARK    2  A    between atoms: C_5  and  C_6
REMARK    3  A    between atoms: C_6  and  N_7
REMARK    4  A    between atoms: N_7  and  C_8
REMARK    5  A    between atoms: C_9  and  C_11
REMARK                            x       y       z     vdW  Elec       q    Type
REMARK                         _______ _______ _______ _____ _____    ______ ____
ROOT
ATOM      1  N   UNL     1       1.857   8.702  19.156  0.00  0.00    +0.000 N 
ATOM      2  C   UNL     1       1.417   8.241  20.462  0.00  0.00    +0.000 C 
ATOM      3  C   UNL     1       2.509   7.901  18.214  0.00  0.00    +0.000 C 
ATOM      4  O   UNL     1       2.965   8.383  17.175  0.00  0.00    +0.000 OA
ENDROOT
BRANCH   3   5
ATOM      5  C   UNL     1       2.643   6.447  18.463  0.00  0.00    +0.000 A 
ATOM      6  C   UNL     1       3.736   5.831  19.126  0.00  0.00    +0.000 A 
ATOM      7  C   UNL     1       3.500   4.479  19.072  0.00  0.00    +0.000 A 
ATOM      8  N   UNL     1       4.211   3.409  19.541  0.00  0.00    +0.000 NA
ATOM      9  C   UNL     1       3.698   2.240  19.296  0.00  0.00    +0.000 A 
ATOM     10  C   UNL     1       2.425   1.972  18.571  0.00  0.00    +0.000 A 
ATOM     11  C   UNL     1       1.779   3.062  18.138  0.00  0.00    +0.000 A 
ATOM     12  N   UNL     1       2.300   4.332  18.378  0.00  0.00    +0.000 N 
ATOM     13  N   UNL     1       1.775   5.524  18.006  0.00  0.00    +0.000 NA
ENDBRANCH   3   5
BRANCH   1  14
ATOM     14  C   UNL     1       1.475  10.057  18.765  0.00  0.00    +0.000 C 
BRANCH  14  19
ATOM     15  C   UNL     1      -2.908   9.757  16.423  0.00  0.00    +0.000 C 
ATOM     16  C   UNL     1      -1.991  10.153  17.522  0.00  0.00    +0.000 A 
ATOM     17  C   UNL     1      -2.321  10.925  18.619  0.00  0.00    +0.000 A 
ATOM     18  S   UNL     1      -0.960  11.128  19.631  0.00  0.00    +0.000 S 
ATOM     19  C   UNL     1      -0.009  10.197  18.534  0.00  0.00    +0.000 A 
ATOM     20  N   UNL     1      -0.664   9.740  17.481  0.00  0.00    +0.000 NA
ENDBRANCH  14  19
ENDBRANCH   1  14
TORSDOF 3
ENDMDL
MODEL 7
REMARK VINA RESULT:      -6.3      5.404      7.385
REMARK  Name = 
REMARK  5 active torsions:
REMARK  status: ('A' for Active; 'I' for Inactive)
REMARK    1  A    between atoms: C_1  and  C_2
REMARK    2  A    between atoms: C_5  and  C_6
REMARK    3  A    between atoms: C_6  and  N_7
REMARK    4  A    between atoms: N_7  and  C_8
REMARK    5  A    between atoms: C_9  and  C_11
REMARK                            x       y       z     vdW  Elec       q    Type
REMARK                         _______ _______ _______ _____ _____    ______ ____
ROOT
ATOM      1  N   UNL     1       1.836   8.655  19.249  0.00  0.00    +0.000 N 
ATOM      2  C   UNL     1       1.421   8.069  20.512  0.00  0.00    +0.000 C 
ATOM      3  C   UNL     1       2.457   7.948  18.215  0.00  0.00    +0.000 C 
ATOM      4  O   UNL     1       2.893   8.529  17.220  0.00  0.00    +0.000 OA
ENDROOT
BRANCH   3   5
ATOM      5  C   UNL     1       2.582   6.476  18.314  0.00  0.00    +0.000 A 
ATOM      6  C   UNL     1       1.627   5.543  17.835  0.00  0.00    +0.000 A 
ATOM      7  C   UNL     1       2.092   4.302  18.197  0.00  0.00    +0.000 A 
ATOM      8  N   UNL     1       1.586   3.045  18.004  0.00  0.00    +0.000 NA
ATOM      9  C   UNL     1       2.288   2.073  18.505  0.00  0.00    +0.000 A 
ATOM     10  C   UNL     1       3.572   2.205  19.248  0.00  0.00    +0.000 A 
ATOM     11  C   UNL     1       4.011   3.461  19.402  0.00  0.00    +0.000 A 
ATOM     12  N   UNL     1       3.284   4.531  18.883  0.00  0.00    +0.000 N 
ATOM     13  N   UNL     1       3.586   5.849  18.956  0.00  0.00    +0.000 NA
ENDBRANCH   3   5
BRANCH   1  14
ATOM     14  C   UNL     1       1.459  10.046  19.005  0.00  0.00    +0.000 C 
BRANCH  14  19
ATOM     15  C   UNL     1      -2.723   9.788  16.314  0.00  0.00    +0.000 C 
ATOM     16  C   UNL     1      -1.894  10.173  17.486  0.00  0.00    +0.000 A 
ATOM     17  C   UNL     1      -2.307  10.943  18.555  0.00  0.00    +0.000 A 
ATOM     18  S   UNL     1      -1.030  11.133  19.675  0.00  0.00    +0.000 S 
ATOM     19  C   UNL     1      -0.001  10.199  18.656  0.00  0.00    +0.000 A 
ATOM     20  N   UNL     1      -0.571   9.750  17.550  0.00  0.00    +0.000 NA
ENDBRANCH  14  19
ENDBRANCH   1  14
TORSDOF 3
ENDMDL
MODEL 8
REMARK VINA RESULT:      -6.3      2.791      7.024
REMARK  Name = 
REMARK  5 active torsions:
REMARK  status: ('A' for Active; 'I' for Inactive)
REMARK    1  A    between atoms: C_1  and  C_2
REMARK    2  A    between atoms: C_5  and  C_6
REMARK    3  A    between atoms: C_6  and  N_7
REMARK    4  A    between atoms: N_7  and  C_8
REMARK    5  A    between atoms: C_9  and  C_11
REMARK                            x       y       z     vdW  Elec       q    Type
REMARK                         _______ _______ _______ _____ _____    ______ ____
ROOT
ATOM      1  N   UNL     1       4.809   5.238  18.637  0.00  0.00    +0.000 N 
ATOM      2  C   UNL     1       5.776   4.172  18.837  0.00  0.00    +0.000 C 
ATOM      3  C   UNL     1       4.625   5.922  17.432  0.00  0.00    +0.000 C 
ATOM      4  O   UNL     1       3.874   6.897  17.362  0.00  0.00    +0.000 OA
ENDROOT
BRANCH   3   5
ATOM      5  C   UNL     1       5.335   5.460  16.217  0.00  0.00    +0.000 A 
ATOM      6  C   UNL     1       6.559   5.992  15.736  0.00  0.00    +0.000 A 
ATOM      7  C   UNL     1       6.820   5.338  14.557  0.00  0.00    +0.000 A 
ATOM      8  N   UNL     1       7.852   5.443  13.664  0.00  0.00    +0.000 NA
ATOM      9  C   UNL     1       7.775   4.671  12.621  0.00  0.00    +0.000 A 
ATOM     10  C   UNL     1       6.688   3.697  12.324  0.00  0.00    +0.000 A 
ATOM     11  C   UNL     1       5.709   3.645  13.237  0.00  0.00    +0.000 A 
ATOM     12  N   UNL     1       5.754   4.460  14.367  0.00  0.00    +0.000 N 
ATOM     13  N   UNL     1       4.850   4.529  15.373  0.00  0.00    +0.000 NA
ENDBRANCH   3   5
BRANCH   1  14
ATOM     14  C   UNL     1       3.888   5.516  19.737  0.00  0.00    +0.000 C 
BRANCH  14  19
ATOM     15  C   UNL     1       0.466   2.065  18.658  0.00  0.00    +0.000 C 
ATOM     16  C   UNL     1       1.316   2.886  19.557  0.00  0.00    +0.000 A 
ATOM     17  C   UNL     1       1.277   2.884  20.938  0.00  0.00    +0.000 A 
ATOM     18  S   UNL     1       2.432   3.977  21.564  0.00  0.00    +0.000 S 
ATOM     19  C   UNL     1       2.895   4.402  19.958  0.00  0.00    +0.000 A 
ATOM     20  N   UNL     1       2.246   3.758  19.003  0.00  0.00    +0.000 NA
ENDBRANCH  14  19
ENDBRANCH   1  14
TORSDOF 3
ENDMDL
MODEL 9
REMARK VINA RESULT:      -6.3      2.445      7.287
REMARK  Name = 
REMARK  5 active torsions:
REMARK  status: ('A' for Active; 'I' for Inactive)
REMARK    1  A    between atoms: C_1  and  C_2
REMARK    2  A    between atoms: C_5  and  C_6
REMARK    3  A    between atoms: C_6  and  N_7
REMARK    4  A    between atoms: N_7  and  C_8
REMARK    5  A    between atoms: C_9  and  C_11
REMARK                            x       y       z     vdW  Elec       q    Type
REMARK                         _______ _______ _______ _____ _____    ______ ____
ROOT
ATOM      1  N   UNL     1       4.973   5.437  17.932  0.00  0.00    +0.000 N 
ATOM      2  C   UNL     1       3.942   6.003  17.078  0.00  0.00    +0.000 C 
ATOM      3  C   UNL     1       6.084   4.729  17.465  0.00  0.00    +0.000 C 
ATOM      4  O   UNL     1       6.855   4.170  18.247  0.00  0.00    +0.000 OA
ENDROOT
BRANCH   3   5
ATOM      5  C   UNL     1       6.344   4.660  16.009  0.00  0.00    +0.000 A 
ATOM      6  C   UNL     1       5.792   3.696  15.127  0.00  0.00    +0.000 A 
ATOM      7  C   UNL     1       6.349   3.944  13.896  0.00  0.00    +0.000 A 
ATOM      8  N   UNL     1       6.190   3.333  12.682  0.00  0.00    +0.000 NA
ATOM      9  C   UNL     1       6.899   3.821  11.708  0.00  0.00    +0.000 A 
ATOM     10  C   UNL     1       7.845   4.968  11.797  0.00  0.00    +0.000 A 
ATOM     11  C   UNL     1       7.955   5.520  13.012  0.00  0.00    +0.000 A 
ATOM     12  N   UNL     1       7.213   5.022  14.082  0.00  0.00    +0.000 N 
ATOM     13  N   UNL     1       7.214   5.461  15.364  0.00  0.00    +0.000 NA
ENDBRANCH   3   5
BRANCH   1  14
ATOM     14  C   UNL     1       4.897   5.743  19.359  0.00  0.00    +0.000 C 
BRANCH  14  19
ATOM     15  C   UNL     1       1.453   2.681  21.244  0.00  0.00    +0.000 C 
ATOM     16  C   UNL     1       1.985   3.986  20.773  0.00  0.00    +0.000 A 
ATOM     17  C   UNL     1       1.276   5.167  20.680  0.00  0.00    +0.000 A 
ATOM     18  S   UNL     1       2.284   6.417  20.094  0.00  0.00    +0.000 S 
ATOM     19  C   UNL     1       3.594   5.303  19.978  0.00  0.00    +0.000 A 
ATOM     20  N   UNL     1       3.313   4.071  20.369  0.00  0.00    +0.000 NA
ENDBRANCH  14  19
ENDBRANCH   1  14
TORSDOF 3
ENDMDL
