MODEL 1
REMARK VINA RESULT:      -7.8      0.000      0.000
REMARK  Name = 
REMARK  8 active torsions:
REMARK  status: ('A' for Active; 'I' for Inactive)
REMARK    1  A    between atoms: C_1  and  O_2
REMARK    2  A    between atoms: O_2  and  C_3
REMARK    3  A    between atoms: C_6  and  O_7
REMARK    4  A    between atoms: O_7  and  C_8
REMARK    5  A    between atoms: C_9  and  C_10
REMARK    6  A    between atoms: C_10  and  C_11
REMARK    7  A    between atoms: C_17  and  C_18
REMARK    8  A    between atoms: N_21  and  C_22
REMARK                            x       y       z     vdW  Elec       q    Type
REMARK                         _______ _______ _______ _____ _____    ______ ____
ROOT
ATOM      1  C   UNL     1       4.849   4.082  17.200  0.00  0.00    +0.000 A 
ATOM      2  C   UNL     1       5.783   4.923  18.013  0.00  0.00    +0.000 A 
ATOM      3  C   UNL     1       6.804   5.517  17.384  0.00  0.00    +0.000 A 
ATOM      4  C   UNL     1       6.979   5.303  16.002  0.00  0.00    +0.000 A 
ATOM      5  N   UNL     1       7.893   5.709  15.146  0.00  0.00    +0.000 NA
ATOM      6  N   UNL     1       7.590   5.158  13.919  0.00  0.00    +0.000 NA
ATOM      7  C   UNL     1       6.486   4.448  14.047  0.00  0.00    +0.000 A 
ATOM      8  N   UNL     1       6.059   4.500  15.360  0.00  0.00    +0.000 N 
ATOM      9  N   UNL     1       4.970   3.875  15.920  0.00  0.00    +0.000 NA
ENDROOT
BRANCH   7  10
ATOM     10  C   UNL     1       5.827   3.696  12.952  0.00  0.00    +0.000 A 
ATOM     11  C   UNL     1       6.284   2.564  12.250  0.00  0.00    +0.000 A 
ATOM     12  N   UNL     1       5.430   2.174  11.302  0.00  0.00    +0.000 NA
ATOM     13  N   UNL     1       4.423   3.063  11.401  0.00  0.00    +0.000 N 
ATOM     14  C   UNL     1       3.310   2.995  10.485  0.00  0.00    +0.000 C 
ATOM     15  C   UNL     1       4.602   3.985  12.393  0.00  0.00    +0.000 A 
ENDBRANCH   7  10
BRANCH   1  16
ATOM     16  C   UNL     1       3.652   3.483  17.917  0.00  0.00    +0.000 C 
BRANCH  16  21
ATOM     17  C   UNL     1       2.243   6.764  19.246  0.00  0.00    +0.000 A 
ATOM     18  C   UNL     1       1.697   6.361  20.461  0.00  0.00    +0.000 A 
ATOM     19  C   UNL     1       1.730   5.021  20.847  0.00  0.00    +0.000 A 
ATOM     20  C   UNL     1       2.349   4.063  20.036  0.00  0.00    +0.000 A 
ATOM     21  C   UNL     1       2.902   4.454  18.803  0.00  0.00    +0.000 A 
ATOM     22  C   UNL     1       2.819   5.807  18.409  0.00  0.00    +0.000 A 
BRANCH  17  24
ATOM     23  C   UNL     1       2.404   8.546  17.681  0.00  0.00    +0.000 C 
ATOM     24  O   UNL     1       2.168   8.107  19.012  0.00  0.00    +0.000 OA
ENDBRANCH  17  24
BRANCH  20  25
ATOM     25  O   UNL     1       2.449   2.737  20.370  0.00  0.00    +0.000 OA
ATOM     26  C   UNL     1       2.222   2.435  21.746  0.00  0.00    +0.000 C 
ENDBRANCH  20  25
ENDBRANCH  16  21
ENDBRANCH   1  16
TORSDOF 5
ENDMDL
MODEL 2
REMARK VINA RESULT:      -7.7      3.679      6.298
REMARK  Name = 
REMARK  8 active torsions:
REMARK  status: ('A' for Active; 'I' for Inactive)
REMARK    1  A    between atoms: C_1  and  O_2
REMARK    2  A    between atoms: O_2  and  C_3
REMARK    3  A    between atoms: C_6  and  O_7
REMARK    4  A    between atoms: O_7  and  C_8
REMARK    5  A    between atoms: C_9  and  C_10
REMARK    6  A    between atoms: C_10  and  C_11
REMARK    7  A    between atoms: C_17  and  C_18
REMARK    8  A    between atoms: N_21  and  C_22
REMARK                            x       y       z     vdW  Elec       q    Type
REMARK                         _______ _______ _______ _____ _____    ______ ____
ROOT
ATOM      1  C   UNL     1       1.886   8.533  18.908  0.00  0.00    +0.000 A 
ATOM      2  C   UNL     1       1.275   8.162  20.223  0.00  0.00    +0.000 A 
ATOM      3  C   UNL     1       1.600   6.978  20.756  0.00  0.00    +0.000 A 
ATOM      4  C   UNL     1       2.466   6.120  20.050  0.00  0.00    +0.000 A 
ATOM      5  N   UNL     1       2.917   4.908  20.298  0.00  0.00    +0.000 NA
ATOM      6  N   UNL     1       3.709   4.532  19.234  0.00  0.00    +0.000 NA
ATOM      7  C   UNL     1       3.745   5.530  18.373  0.00  0.00    +0.000 A 
ATOM      8  N   UNL     1       2.960   6.566  18.842  0.00  0.00    +0.000 N 
ATOM      9  N   UNL     1       2.703   7.773  18.236  0.00  0.00    +0.000 NA
ENDROOT
BRANCH   7  10
ATOM     10  C   UNL     1       4.494   5.523  17.093  0.00  0.00    +0.000 A 
ATOM     11  C   UNL     1       5.005   6.609  16.357  0.00  0.00    +0.000 A 
ATOM     12  N   UNL     1       5.602   6.221  15.227  0.00  0.00    +0.000 NA
ATOM     13  N   UNL     1       5.469   4.881  15.246  0.00  0.00    +0.000 N 
ATOM     14  C   UNL     1       5.957   4.095  14.139  0.00  0.00    +0.000 C 
ATOM     15  C   UNL     1       4.830   4.410  16.357  0.00  0.00    +0.000 A 
ENDBRANCH   7  10
BRANCH   1  16
ATOM     16  C   UNL     1       1.569   9.913  18.360  0.00  0.00    +0.000 C 
BRANCH  16  21
ATOM     17  C   UNL     1      -2.097  10.107  17.343  0.00  0.00    +0.000 A 
ATOM     18  C   UNL     1      -2.592  11.030  18.260  0.00  0.00    +0.000 A 
ATOM     19  C   UNL     1      -1.766  11.565  19.248  0.00  0.00    +0.000 A 
ATOM     20  C   UNL     1      -0.413  11.212  19.310  0.00  0.00    +0.000 A 
ATOM     21  C   UNL     1       0.101  10.278  18.394  0.00  0.00    +0.000 A 
ATOM     22  C   UNL     1      -0.761   9.713  17.429  0.00  0.00    +0.000 A 
BRANCH  17  24
ATOM     23  C   UNL     1      -3.027  10.385  15.173  0.00  0.00    +0.000 C 
ATOM     24  O   UNL     1      -3.008   9.691  16.413  0.00  0.00    +0.000 OA
ENDBRANCH  17  24
BRANCH  20  25
ATOM     25  O   UNL     1       0.463  11.726  20.232  0.00  0.00    +0.000 OA
ATOM     26  C   UNL     1      -0.042  11.828  21.564  0.00  0.00    +0.000 C 
ENDBRANCH  20  25
ENDBRANCH  16  21
ENDBRANCH   1  16
TORSDOF 5
ENDMDL
MODEL 3
REMARK VINA RESULT:      -7.7      5.302      8.750
REMARK  Name = 
REMARK  8 active torsions:
REMARK  status: ('A' for Active; 'I' for Inactive)
REMARK    1  A    between atoms: C_1  and  O_2
REMARK    2  A    between atoms: O_2  and  C_3
REMARK    3  A    between atoms: C_6  and  O_7
REMARK    4  A    between atoms: O_7  and  C_8
REMARK    5  A    between atoms: C_9  and  C_10
REMARK    6  A    between atoms: C_10  and  C_11
REMARK    7  A    between atoms: C_17  and  C_18
REMARK    8  A    between atoms: N_21  and  C_22
REMARK                            x       y       z     vdW  Elec       q    Type
REMARK                         _______ _______ _______ _____ _____    ______ ____
ROOT
ATOM      1  C   UNL     1       2.075   7.272  19.528  0.00  0.00    +0.000 A 
ATOM      2  C   UNL     1       2.674   7.501  18.176  0.00  0.00    +0.000 A 
ATOM      3  C   UNL     1       2.553   8.717  17.631  0.00  0.00    +0.000 A 
ATOM      4  C   UNL     1       1.842   9.715  18.326  0.00  0.00    +0.000 A 
ATOM      5  N   UNL     1       1.530  10.958  18.028  0.00  0.00    +0.000 NA
ATOM      6  N   UNL     1       0.781  11.462  19.071  0.00  0.00    +0.000 NA
ATOM      7  C   UNL     1       0.672  10.524  19.992  0.00  0.00    +0.000 A 
ATOM      8  N   UNL     1       1.325   9.385  19.563  0.00  0.00    +0.000 N 
ATOM      9  N   UNL     1       1.427   8.175  20.207  0.00  0.00    +0.000 NA
ENDROOT
BRANCH   7  10
ATOM     10  C   UNL     1      -0.057  10.672  21.274  0.00  0.00    +0.000 A 
ATOM     11  C   UNL     1       0.129   9.982  22.487  0.00  0.00    +0.000 A 
ATOM     12  N   UNL     1      -0.740  10.361  23.427  0.00  0.00    +0.000 NA
ATOM     13  N   UNL     1      -1.484  11.299  22.807  0.00  0.00    +0.000 N 
ATOM     14  C   UNL     1      -2.584  11.920  23.504  0.00  0.00    +0.000 C 
ATOM     15  C   UNL     1      -1.099  11.539  21.519  0.00  0.00    +0.000 A 
ENDBRANCH   7  10
BRANCH   1  16
ATOM     16  C   UNL     1       2.294   5.911  20.164  0.00  0.00    +0.000 C 
BRANCH  16  21
ATOM     17  C   UNL     1       5.446   4.387  18.662  0.00  0.00    +0.000 A 
ATOM     18  C   UNL     1       4.911   3.440  17.794  0.00  0.00    +0.000 A 
ATOM     19  C   UNL     1       3.532   3.243  17.716  0.00  0.00    +0.000 A 
ATOM     20  C   UNL     1       2.660   4.025  18.482  0.00  0.00    +0.000 A 
ATOM     21  C   UNL     1       3.185   4.984  19.366  0.00  0.00    +0.000 A 
ATOM     22  C   UNL     1       4.584   5.136  19.465  0.00  0.00    +0.000 A 
BRANCH  17  24
ATOM     23  C   UNL     1       7.399   4.605  17.324  0.00  0.00    +0.000 C 
ATOM     24  O   UNL     1       6.807   4.494  18.611  0.00  0.00    +0.000 OA
ENDBRANCH  17  24
BRANCH  20  25
ATOM     25  O   UNL     1       1.294   3.910  18.428  0.00  0.00    +0.000 OA
ATOM     26  C   UNL     1       0.763   2.686  18.937  0.00  0.00    +0.000 C 
ENDBRANCH  20  25
ENDBRANCH  16  21
ENDBRANCH   1  16
TORSDOF 5
ENDMDL
MODEL 4
REMARK VINA RESULT:      -7.5      0.584      1.017
REMARK  Name = 
REMARK  8 active torsions:
REMARK  status: ('A' for Active; 'I' for Inactive)
REMARK    1  A    between atoms: C_1  and  O_2
REMARK    2  A    between atoms: O_2  and  C_3
REMARK    3  A    between atoms: C_6  and  O_7
REMARK    4  A    between atoms: O_7  and  C_8
REMARK    5  A    between atoms: C_9  and  C_10
REMARK    6  A    between atoms: C_10  and  C_11
REMARK    7  A    between atoms: C_17  and  C_18
REMARK    8  A    between atoms: N_21  and  C_22
REMARK                            x       y       z     vdW  Elec       q    Type
REMARK                         _______ _______ _______ _____ _____    ______ ____
ROOT
ATOM      1  C   UNL     1       4.637   4.368  17.126  0.00  0.00    +0.000 A 
ATOM      2  C   UNL     1       5.486   5.283  17.951  0.00  0.00    +0.000 A 
ATOM      3  C   UNL     1       6.556   5.841  17.372  0.00  0.00    +0.000 A 
ATOM      4  C   UNL     1       6.858   5.523  16.033  0.00  0.00    +0.000 A 
ATOM      5  N   UNL     1       7.844   5.875  15.235  0.00  0.00    +0.000 NA
ATOM      6  N   UNL     1       7.658   5.226  14.032  0.00  0.00    +0.000 NA
ATOM      7  C   UNL     1       6.552   4.512  14.115  0.00  0.00    +0.000 A 
ATOM      8  N   UNL     1       6.007   4.659  15.375  0.00  0.00    +0.000 N 
ATOM      9  N   UNL     1       4.876   4.064  15.882  0.00  0.00    +0.000 NA
ENDROOT
BRANCH   7  10
ATOM     10  C   UNL     1       6.001   3.668  13.027  0.00  0.00    +0.000 A 
ATOM     11  C   UNL     1       4.779   3.792  12.339  0.00  0.00    +0.000 A 
ATOM     12  N   UNL     1       4.605   2.824  11.435  0.00  0.00    +0.000 NA
ATOM     13  N   UNL     1       5.723   2.081  11.550  0.00  0.00    +0.000 N 
ATOM     14  C   UNL     1       5.879   0.890  10.751  0.00  0.00    +0.000 C 
ATOM     15  C   UNL     1       6.604   2.559  12.477  0.00  0.00    +0.000 A 
ENDBRANCH   7  10
BRANCH   1  16
ATOM     16  C   UNL     1       3.384   3.809  17.776  0.00  0.00    +0.000 C 
BRANCH  16  21
ATOM     17  C   UNL     1       2.045   7.029  19.311  0.00  0.00    +0.000 A 
ATOM     18  C   UNL     1       1.663   6.596  20.577  0.00  0.00    +0.000 A 
ATOM     19  C   UNL     1       1.783   5.254  20.937  0.00  0.00    +0.000 A 
ATOM     20  C   UNL     1       2.330   4.326  20.044  0.00  0.00    +0.000 A 
ATOM     21  C   UNL     1       2.717   4.746  18.760  0.00  0.00    +0.000 A 
ATOM     22  C   UNL     1       2.545   6.100  18.397  0.00  0.00    +0.000 A 
BRANCH  17  24
ATOM     23  C   UNL     1       2.178   8.860  17.800  0.00  0.00    +0.000 C 
ATOM     24  O   UNL     1       1.901   8.372  19.106  0.00  0.00    +0.000 OA
ENDBRANCH  17  24
BRANCH  20  25
ATOM     25  O   UNL     1       2.510   3.000  20.345  0.00  0.00    +0.000 OA
ATOM     26  C   UNL     1       1.831   2.540  21.514  0.00  0.00    +0.000 C 
ENDBRANCH  20  25
ENDBRANCH  16  21
ENDBRANCH   1  16
TORSDOF 5
ENDMDL
MODEL 5
REMARK VINA RESULT:      -7.5      3.672      6.219
REMARK  Name = 
REMARK  8 active torsions:
REMARK  status: ('A' for Active; 'I' for Inactive)
REMARK    1  A    between atoms: C_1  and  O_2
REMARK    2  A    between atoms: O_2  and  C_3
REMARK    3  A    between atoms: C_6  and  O_7
REMARK    4  A    between atoms: O_7  and  C_8
REMARK    5  A    between atoms: C_9  and  C_10
REMARK    6  A    between atoms: C_10  and  C_11
REMARK    7  A    between atoms: C_17  and  C_18
REMARK    8  A    between atoms: N_21  and  C_22
REMARK                            x       y       z     vdW  Elec       q    Type
REMARK                         _______ _______ _______ _____ _____    ______ ____
ROOT
ATOM      1  C   UNL     1       2.048   8.522  18.663  0.00  0.00    +0.000 A 
ATOM      2  C   UNL     1       1.433   8.193  19.988  0.00  0.00    +0.000 A 
ATOM      3  C   UNL     1       1.746   7.022  20.554  0.00  0.00    +0.000 A 
ATOM      4  C   UNL     1       2.605   6.136  19.873  0.00  0.00    +0.000 A 
ATOM      5  N   UNL     1       3.044   4.928  20.154  0.00  0.00    +0.000 NA
ATOM      6  N   UNL     1       3.834   4.515  19.102  0.00  0.00    +0.000 NA
ATOM      7  C   UNL     1       3.879   5.488  18.213  0.00  0.00    +0.000 A 
ATOM      8  N   UNL     1       3.104   6.544  18.653  0.00  0.00    +0.000 N 
ATOM      9  N   UNL     1       2.858   7.736  18.013  0.00  0.00    +0.000 NA
ENDROOT
BRANCH   7  10
ATOM     10  C   UNL     1       4.628   5.438  16.935  0.00  0.00    +0.000 A 
ATOM     11  C   UNL     1       5.171   6.497  16.181  0.00  0.00    +0.000 A 
ATOM     12  N   UNL     1       5.757   6.074  15.059  0.00  0.00    +0.000 NA
ATOM     13  N   UNL     1       5.586   4.738  15.100  0.00  0.00    +0.000 N 
ATOM     14  C   UNL     1       6.054   3.920  14.007  0.00  0.00    +0.000 C 
ATOM     15  C   UNL     1       4.934   4.303  16.218  0.00  0.00    +0.000 A 
ENDBRANCH   7  10
BRANCH   1  16
ATOM     16  C   UNL     1       1.744   9.888  18.076  0.00  0.00    +0.000 C 
BRANCH  16  21
ATOM     17  C   UNL     1       0.107  12.119  20.695  0.00  0.00    +0.000 A 
ATOM     18  C   UNL     1      -1.240  11.995  20.364  0.00  0.00    +0.000 A 
ATOM     19  C   UNL     1      -1.635  11.233  19.265  0.00  0.00    +0.000 A 
ATOM     20  C   UNL     1      -0.687  10.547  18.499  0.00  0.00    +0.000 A 
ATOM     21  C   UNL     1       0.677  10.665  18.818  0.00  0.00    +0.000 A 
ATOM     22  C   UNL     1       1.062  11.478  19.906  0.00  0.00    +0.000 A 
BRANCH  17  24
ATOM     23  C   UNL     1      -0.771  13.179  22.634  0.00  0.00    +0.000 C 
ATOM     24  O   UNL     1       0.347  12.869  21.812  0.00  0.00    +0.000 OA
ENDBRANCH  17  24
BRANCH  20  25
ATOM     25  O   UNL     1      -1.009   9.752  17.429  0.00  0.00    +0.000 OA
ATOM     26  C   UNL     1      -2.201  10.116  16.733  0.00  0.00    +0.000 C 
ENDBRANCH  20  25
ENDBRANCH  16  21
ENDBRANCH   1  16
TORSDOF 5
ENDMDL
MODEL 6
REMARK VINA RESULT:      -7.4      2.979      5.566
REMARK  Name = 
REMARK  8 active torsions:
REMARK  status: ('A' for Active; 'I' for Inactive)
REMARK    1  A    between atoms: C_1  and  O_2
REMARK    2  A    between atoms: O_2  and  C_3
REMARK    3  A    between atoms: C_6  and  O_7
REMARK    4  A    between atoms: O_7  and  C_8
REMARK    5  A    between atoms: C_9  and  C_10
REMARK    6  A    between atoms: C_10  and  C_11
REMARK    7  A    between atoms: C_17  and  C_18
REMARK    8  A    between atoms: N_21  and  C_22
REMARK                            x       y       z     vdW  Elec       q    Type
REMARK                         _______ _______ _______ _____ _____    ______ ____
ROOT
ATOM      1  C   UNL     1       2.556   7.320  19.064  0.00  0.00    +0.000 A 
ATOM      2  C   UNL     1       1.640   6.825  20.139  0.00  0.00    +0.000 A 
ATOM      3  C   UNL     1       1.799   5.569  20.572  0.00  0.00    +0.000 A 
ATOM      4  C   UNL     1       2.789   4.758  19.983  0.00  0.00    +0.000 A 
ATOM      5  N   UNL     1       3.138   3.503  20.167  0.00  0.00    +0.000 NA
ATOM      6  N   UNL     1       4.154   3.217  19.278  0.00  0.00    +0.000 NA
ATOM      7  C   UNL     1       4.417   4.310  18.588  0.00  0.00    +0.000 A 
ATOM      8  N   UNL     1       3.568   5.321  18.993  0.00  0.00    +0.000 N 
ATOM      9  N   UNL     1       3.491   6.605  18.508  0.00  0.00    +0.000 NA
ENDROOT
BRANCH   7  10
ATOM     10  C   UNL     1       5.450   4.418  17.530  0.00  0.00    +0.000 A 
ATOM     11  C   UNL     1       6.830   4.667  17.657  0.00  0.00    +0.000 A 
ATOM     12  N   UNL     1       7.447   4.727  16.475  0.00  0.00    +0.000 NA
ATOM     13  N   UNL     1       6.453   4.515  15.591  0.00  0.00    +0.000 N 
ATOM     14  C   UNL     1       6.730   4.557  14.175  0.00  0.00    +0.000 C 
ATOM     15  C   UNL     1       5.237   4.301  16.175  0.00  0.00    +0.000 A 
ENDBRANCH   7  10
BRANCH   1  16
ATOM     16  C   UNL     1       2.412   8.772  18.643  0.00  0.00    +0.000 C 
BRANCH  16  21
ATOM     17  C   UNL     1      -1.099   9.844  17.623  0.00  0.00    +0.000 A 
ATOM     18  C   UNL     1      -1.551  10.461  18.786  0.00  0.00    +0.000 A 
ATOM     19  C   UNL     1      -0.753  10.497  19.930  0.00  0.00    +0.000 A 
ATOM     20  C   UNL     1       0.534   9.948  19.914  0.00  0.00    +0.000 A 
ATOM     21  C   UNL     1       1.004   9.317  18.748  0.00  0.00    +0.000 A 
ATOM     22  C   UNL     1       0.164   9.250  17.616  0.00  0.00    +0.000 A 
BRANCH  17  24
ATOM     23  C   UNL     1      -2.700  11.121  16.416  0.00  0.00    +0.000 C 
ATOM     24  O   UNL     1      -1.971   9.912  16.574  0.00  0.00    +0.000 OA
ENDBRANCH  17  24
BRANCH  20  25
ATOM     25  O   UNL     1       1.385   9.980  20.989  0.00  0.00    +0.000 OA
ATOM     26  C   UNL     1       0.789   9.674  22.250  0.00  0.00    +0.000 C 
ENDBRANCH  20  25
ENDBRANCH  16  21
ENDBRANCH   1  16
TORSDOF 5
ENDMDL
MODEL 7
REMARK VINA RESULT:      -7.3      5.060      8.475
REMARK  Name = 
REMARK  8 active torsions:
REMARK  status: ('A' for Active; 'I' for Inactive)
REMARK    1  A    between atoms: C_1  and  O_2
REMARK    2  A    between atoms: O_2  and  C_3
REMARK    3  A    between atoms: C_6  and  O_7
REMARK    4  A    between atoms: O_7  and  C_8
REMARK    5  A    between atoms: C_9  and  C_10
REMARK    6  A    between atoms: C_10  and  C_11
REMARK    7  A    between atoms: C_17  and  C_18
REMARK    8  A    between atoms: N_21  and  C_22
REMARK                            x       y       z     vdW  Elec       q    Type
REMARK                         _______ _______ _______ _____ _____    ______ ____
ROOT
ATOM      1  C   UNL     1       2.316   6.940  19.605  0.00  0.00    +0.000 A 
ATOM      2  C   UNL     1       2.843   7.066  18.210  0.00  0.00    +0.000 A 
ATOM      3  C   UNL     1       2.665   8.229  17.572  0.00  0.00    +0.000 A 
ATOM      4  C   UNL     1       1.965   9.267  18.218  0.00  0.00    +0.000 A 
ATOM      5  N   UNL     1       1.608  10.474  17.833  0.00  0.00    +0.000 NA
ATOM      6  N   UNL     1       0.898  11.048  18.867  0.00  0.00    +0.000 NA
ATOM      7  C   UNL     1       0.858  10.190  19.867  0.00  0.00    +0.000 A 
ATOM      8  N   UNL     1       1.517   9.033  19.501  0.00  0.00    +0.000 N 
ATOM      9  N   UNL     1       1.679   7.883  20.238  0.00  0.00    +0.000 NA
ENDROOT
BRANCH   7  10
ATOM     10  C   UNL     1       0.187  10.430  21.167  0.00  0.00    +0.000 A 
ATOM     11  C   UNL     1       0.469   9.871  22.429  0.00  0.00    +0.000 A 
ATOM     12  N   UNL     1      -0.369  10.302  23.374  0.00  0.00    +0.000 NA
ATOM     13  N   UNL     1      -1.189  11.140  22.710  0.00  0.00    +0.000 N 
ATOM     14  C   UNL     1      -2.282  11.776  23.404  0.00  0.00    +0.000 C 
ATOM     15  C   UNL     1      -0.882  11.269  21.385  0.00  0.00    +0.000 A 
ENDBRANCH   7  10
BRANCH   1  16
ATOM     16  C   UNL     1       2.599   5.642  20.340  0.00  0.00    +0.000 C 
BRANCH  16  21
ATOM     17  C   UNL     1       4.031   3.486  17.544  0.00  0.00    +0.000 A 
ATOM     18  C   UNL     1       3.204   2.368  17.603  0.00  0.00    +0.000 A 
ATOM     19  C   UNL     1       2.208   2.270  18.574  0.00  0.00    +0.000 A 
ATOM     20  C   UNL     1       1.995   3.313  19.482  0.00  0.00    +0.000 A 
ATOM     21  C   UNL     1       2.825   4.448  19.437  0.00  0.00    +0.000 A 
ATOM     22  C   UNL     1       3.858   4.509  18.477  0.00  0.00    +0.000 A 
BRANCH  17  24
ATOM     23  C   UNL     1       6.058   4.333  16.636  0.00  0.00    +0.000 C 
ATOM     24  O   UNL     1       4.940   3.462  16.525  0.00  0.00    +0.000 OA
ENDBRANCH  17  24
BRANCH  20  25
ATOM     25  O   UNL     1       1.012   3.299  20.437  0.00  0.00    +0.000 OA
ATOM     26  C   UNL     1       1.345   2.618  21.647  0.00  0.00    +0.000 C 
ENDBRANCH  20  25
ENDBRANCH  16  21
ENDBRANCH   1  16
TORSDOF 5
ENDMDL
MODEL 8
REMARK VINA RESULT:      -7.3      2.794      5.348
REMARK  Name = 
REMARK  8 active torsions:
REMARK  status: ('A' for Active; 'I' for Inactive)
REMARK    1  A    between atoms: C_1  and  O_2
REMARK    2  A    between atoms: O_2  and  C_3
REMARK    3  A    between atoms: C_6  and  O_7
REMARK    4  A    between atoms: O_7  and  C_8
REMARK    5  A    between atoms: C_9  and  C_10
REMARK    6  A    between atoms: C_10  and  C_11
REMARK    7  A    between atoms: C_17  and  C_18
REMARK    8  A    between atoms: N_21  and  C_22
REMARK                            x       y       z     vdW  Elec       q    Type
REMARK                         _______ _______ _______ _____ _____    ______ ____
ROOT
ATOM      1  C   UNL     1       2.562   7.057  18.576  0.00  0.00    +0.000 A 
ATOM      2  C   UNL     1       1.930   6.513  19.818  0.00  0.00    +0.000 A 
ATOM      3  C   UNL     1       2.424   5.381  20.332  0.00  0.00    +0.000 A 
ATOM      4  C   UNL     1       3.486   4.732  19.672  0.00  0.00    +0.000 A 
ATOM      5  N   UNL     1       4.132   3.610  19.912  0.00  0.00    +0.000 NA
ATOM      6  N   UNL     1       5.061   3.440  18.907  0.00  0.00    +0.000 NA
ATOM      7  C   UNL     1       4.978   4.472  18.090  0.00  0.00    +0.000 A 
ATOM      8  N   UNL     1       3.982   5.323  18.528  0.00  0.00    +0.000 N 
ATOM      9  N   UNL     1       3.555   6.494  17.948  0.00  0.00    +0.000 NA
ENDROOT
BRANCH   7  10
ATOM     10  C   UNL     1       5.813   4.668  16.880  0.00  0.00    +0.000 A 
ATOM     11  C   UNL     1       6.929   5.507  16.697  0.00  0.00    +0.000 A 
ATOM     12  N   UNL     1       7.413   5.444  15.454  0.00  0.00    +0.000 NA
ATOM     13  N   UNL     1       6.600   4.560  14.844  0.00  0.00    +0.000 N 
ATOM     14  C   UNL     1       6.782   4.264  13.444  0.00  0.00    +0.000 C 
ATOM     15  C   UNL     1       5.636   4.047  15.664  0.00  0.00    +0.000 A 
ENDBRANCH   7  10
BRANCH   1  16
ATOM     16  C   UNL     1       2.040   8.384  18.054  0.00  0.00    +0.000 C 
BRANCH  16  21
ATOM     17  C   UNL     1       0.807   9.804  21.368  0.00  0.00    +0.000 A 
ATOM     18  C   UNL     1      -0.388  10.407  20.985  0.00  0.00    +0.000 A 
ATOM     19  C   UNL     1      -0.788  10.409  19.649  0.00  0.00    +0.000 A 
ATOM     20  C   UNL     1      -0.014   9.769  18.675  0.00  0.00    +0.000 A 
ATOM     21  C   UNL     1       1.197   9.158  19.045  0.00  0.00    +0.000 A 
ATOM     22  C   UNL     1       1.609   9.206  20.394  0.00  0.00    +0.000 A 
BRANCH  17  24
ATOM     23  C   UNL     1      -0.028   9.560  23.580  0.00  0.00    +0.000 C 
ATOM     24  O   UNL     1       1.057   9.850  22.710  0.00  0.00    +0.000 OA
ENDBRANCH  17  24
BRANCH  20  25
ATOM     25  O   UNL     1      -0.366   9.701  17.351  0.00  0.00    +0.000 OA
ATOM     26  C   UNL     1      -1.752   9.903  17.075  0.00  0.00    +0.000 C 
ENDBRANCH  20  25
ENDBRANCH  16  21
ENDBRANCH   1  16
TORSDOF 5
ENDMDL
MODEL 9
REMARK VINA RESULT:      -7.3      1.735      2.416
REMARK  Name = 
REMARK  8 active torsions:
REMARK  status: ('A' for Active; 'I' for Inactive)
REMARK    1  A    between atoms: C_1  and  O_2
REMARK    2  A    between atoms: O_2  and  C_3
REMARK    3  A    between atoms: C_6  and  O_7
REMARK    4  A    between atoms: O_7  and  C_8
REMARK    5  A    between atoms: C_9  and  C_10
REMARK    6  A    between atoms: C_10  and  C_11
REMARK    7  A    between atoms: C_17  and  C_18
REMARK    8  A    between atoms: N_21  and  C_22
REMARK                            x       y       z     vdW  Elec       q    Type
REMARK                         _______ _______ _______ _____ _____    ______ ____
ROOT
ATOM      1  C   UNL     1       3.987   5.237  17.969  0.00  0.00    +0.000 A 
ATOM      2  C   UNL     1       4.637   5.338  19.314  0.00  0.00    +0.000 A 
ATOM      3  C   UNL     1       5.962   5.166  19.387  0.00  0.00    +0.000 A 
ATOM      4  C   UNL     1       6.683   4.865  18.215  0.00  0.00    +0.000 A 
ATOM      5  N   UNL     1       7.954   4.606  17.992  0.00  0.00    +0.000 NA
ATOM      6  N   UNL     1       8.095   4.337  16.647  0.00  0.00    +0.000 NA
ATOM      7  C   UNL     1       6.914   4.461  16.075  0.00  0.00    +0.000 A 
ATOM      8  N   UNL     1       5.975   4.788  17.033  0.00  0.00    +0.000 N 
ATOM      9  N   UNL     1       4.623   4.977  16.863  0.00  0.00    +0.000 NA
ENDROOT
BRANCH   7  10
ATOM     10  C   UNL     1       6.642   4.255  14.631  0.00  0.00    +0.000 A 
ATOM     11  C   UNL     1       7.369   4.712  13.516  0.00  0.00    +0.000 A 
ATOM     12  N   UNL     1       6.804   4.357  12.360  0.00  0.00    +0.000 NA
ATOM     13  N   UNL     1       5.710   3.670  12.743  0.00  0.00    +0.000 N 
ATOM     14  C   UNL     1       4.799   3.157  11.749  0.00  0.00    +0.000 C 
ATOM     15  C   UNL     1       5.579   3.560  14.098  0.00  0.00    +0.000 A 
ENDBRANCH   7  10
BRANCH   1  16
ATOM     16  C   UNL     1       2.497   5.515  17.896  0.00  0.00    +0.000 C 
BRANCH  16  21
ATOM     17  C   UNL     1       1.630   9.116  18.791  0.00  0.00    +0.000 A 
ATOM     18  C   UNL     1       1.386   9.012  20.157  0.00  0.00    +0.000 A 
ATOM     19  C   UNL     1       1.447   7.776  20.800  0.00  0.00    +0.000 A 
ATOM     20  C   UNL     1       1.796   6.623  20.088  0.00  0.00    +0.000 A 
ATOM     21  C   UNL     1       2.042   6.710  18.706  0.00  0.00    +0.000 A 
ATOM     22  C   UNL     1       1.930   7.962  18.064  0.00  0.00    +0.000 A 
BRANCH  17  24
ATOM     23  C   UNL     1       1.197  11.415  19.213  0.00  0.00    +0.000 C 
ATOM     24  O   UNL     1       1.566  10.389  18.301  0.00  0.00    +0.000 OA
ENDBRANCH  17  24
BRANCH  20  25
ATOM     25  O   UNL     1       1.910   5.383  20.663  0.00  0.00    +0.000 OA
ATOM     26  C   UNL     1       0.837   4.482  20.391  0.00  0.00    +0.000 C 
ENDBRANCH  20  25
ENDBRANCH  16  21
ENDBRANCH   1  16
TORSDOF 5
ENDMDL
