MODEL 1
REMARK VINA RESULT:      -7.3      0.000      0.000
REMARK  Name = 
REMARK  9 active torsions:
REMARK  status: ('A' for Active; 'I' for Inactive)
REMARK    1  A    between atoms: C_1  and  C_2
REMARK    2  A    between atoms: C_2  and  N_3
REMARK    3  A    between atoms: C_4  and  C_5
REMARK    4  A    between atoms: C_6  and  C_7
REMARK    5  A    between atoms: C_10  and  C_11
REMARK    6  A    between atoms: N_13  and  C_14
REMARK    7  A    between atoms: C_14  and  C_15
REMARK    8  A    between atoms: C_15  and  C_16
REMARK    9  A    between atoms: C_16  and  N_17
REMARK                            x       y       z     vdW  Elec       q    Type
REMARK                         _______ _______ _______ _____ _____    ______ ____
ROOT
ATOM      1  N   UNL     1       0.489  11.208  19.878  0.00  0.00    +0.000 N 
ATOM      2  C   UNL     1      -0.047  11.268  21.152  0.00  0.00    +0.000 A 
ATOM      3  C   UNL     1      -0.754  12.459  21.708  0.00  0.00    +0.000 C 
ATOM      4  C   UNL     1       0.224  10.059  21.774  0.00  0.00    +0.000 A 
ATOM      5  C   UNL     1      -0.100   9.667  23.175  0.00  0.00    +0.000 C 
ATOM      6  C   UNL     1       0.869   9.221  20.818  0.00  0.00    +0.000 A 
ATOM      7  C   UNL     1       1.346   7.893  20.866  0.00  0.00    +0.000 A 
ATOM      8  C   UNL     1       1.929   7.312  19.731  0.00  0.00    +0.000 A 
ATOM      9  C   UNL     1       2.063   8.059  18.559  0.00  0.00    +0.000 A 
ATOM     10  C   UNL     1       1.608   9.387  18.491  0.00  0.00    +0.000 A 
ATOM     11  C   UNL     1       1.010   9.949  19.636  0.00  0.00    +0.000 A 
ENDROOT
BRANCH   8  12
ATOM     12  C   UNL     1       2.406   5.902  19.848  0.00  0.00    +0.000 C 
ATOM     13  O   UNL     1       2.307   5.303  20.914  0.00  0.00    +0.000 OA
ATOM     14  N   UNL     1       2.899   5.315  18.700  0.00  0.00    +0.000 N 
ATOM     15  H   UNL     1       2.768   5.784  17.815  0.00  0.00    +0.000 HD
BRANCH  14  16
ATOM     16  C   UNL     1       3.271   3.910  18.694  0.00  0.00    +0.000 C 
BRANCH  16  17
ATOM     17  C   UNL     1       4.731   3.718  18.294  0.00  0.00    +0.000 C 
BRANCH  17  18
ATOM     18  C   UNL     1       5.668   4.626  19.106  0.00  0.00    +0.000 C 
BRANCH  18  19
ATOM     19  N   UNL     1       7.027   4.692  18.543  0.00  0.00    +0.000 NA
ATOM     20  C   UNL     1       7.754   5.930  18.854  0.00  0.00    +0.000 C 
ATOM     21  C   UNL     1       7.390   6.908  17.754  0.00  0.00    +0.000 C 
ATOM     22  C   UNL     1       7.241   6.028  16.530  0.00  0.00    +0.000 C 
ATOM     23  C   UNL     1       6.997   4.621  17.071  0.00  0.00    +0.000 C 
ENDBRANCH  18  19
ENDBRANCH  17  18
ENDBRANCH  16  17
ENDBRANCH  14  16
ENDBRANCH   8  12
BRANCH   1  25
ATOM     24  C   UNL     1       1.944  12.925  18.835  0.00  0.00    +0.000 C 
ATOM     25  C   UNL     1       0.554  12.323  18.941  0.00  0.00    +0.000 C 
ENDBRANCH   1  25
TORSDOF 6
ENDMDL
MODEL 2
REMARK VINA RESULT:      -7.3      1.139      1.233
REMARK  Name = 
REMARK  9 active torsions:
REMARK  status: ('A' for Active; 'I' for Inactive)
REMARK    1  A    between atoms: C_1  and  C_2
REMARK    2  A    between atoms: C_2  and  N_3
REMARK    3  A    between atoms: C_4  and  C_5
REMARK    4  A    between atoms: C_6  and  C_7
REMARK    5  A    between atoms: C_10  and  C_11
REMARK    6  A    between atoms: N_13  and  C_14
REMARK    7  A    between atoms: C_14  and  C_15
REMARK    8  A    between atoms: C_15  and  C_16
REMARK    9  A    between atoms: C_16  and  N_17
REMARK                            x       y       z     vdW  Elec       q    Type
REMARK                         _______ _______ _______ _____ _____    ______ ____
ROOT
ATOM      1  N   UNL     1       0.427  11.072  19.552  0.00  0.00    +0.000 N 
ATOM      2  C   UNL     1       0.009  11.009  20.869  0.00  0.00    +0.000 A 
ATOM      3  C   UNL     1      -0.768  12.084  21.553  0.00  0.00    +0.000 C 
ATOM      4  C   UNL     1       0.465   9.809  21.394  0.00  0.00    +0.000 A 
ATOM      5  C   UNL     1       0.317   9.316  22.791  0.00  0.00    +0.000 C 
ATOM      6  C   UNL     1       1.105   9.096  20.337  0.00  0.00    +0.000 A 
ATOM      7  C   UNL     1       1.725   7.830  20.265  0.00  0.00    +0.000 A 
ATOM      8  C   UNL     1       2.259   7.374  19.052  0.00  0.00    +0.000 A 
ATOM      9  C   UNL     1       2.201   8.188  17.919  0.00  0.00    +0.000 A 
ATOM     10  C   UNL     1       1.602   9.457  17.969  0.00  0.00    +0.000 A 
ATOM     11  C   UNL     1       1.056   9.893  19.192  0.00  0.00    +0.000 A 
ENDROOT
BRANCH   8  12
ATOM     12  C   UNL     1       2.893   6.023  19.044  0.00  0.00    +0.000 C 
ATOM     13  O   UNL     1       3.713   5.721  19.905  0.00  0.00    +0.000 OA
ATOM     14  N   UNL     1       2.470   5.142  18.069  0.00  0.00    +0.000 N 
ATOM     15  H   UNL     1       1.654   5.374  17.521  0.00  0.00    +0.000 HD
BRANCH  14  16
ATOM     16  C   UNL     1       2.945   3.769  18.062  0.00  0.00    +0.000 C 
BRANCH  16  17
ATOM     17  C   UNL     1       4.002   3.546  16.984  0.00  0.00    +0.000 C 
BRANCH  17  18
ATOM     18  C   UNL     1       5.415   3.853  17.502  0.00  0.00    +0.000 C 
BRANCH  18  19
ATOM     19  N   UNL     1       6.192   4.693  16.575  0.00  0.00    +0.000 NA
ATOM     20  C   UNL     1       6.860   5.838  17.208  0.00  0.00    +0.000 C 
ATOM     21  C   UNL     1       5.851   6.969  17.182  0.00  0.00    +0.000 C 
ATOM     22  C   UNL     1       5.098   6.746  15.887  0.00  0.00    +0.000 C 
ATOM     23  C   UNL     1       5.327   5.277  15.534  0.00  0.00    +0.000 C 
ENDBRANCH  18  19
ENDBRANCH  17  18
ENDBRANCH  16  17
ENDBRANCH  14  16
ENDBRANCH   8  12
BRANCH   1  25
ATOM     24  C   UNL     1       1.504  13.135  18.694  0.00  0.00    +0.000 C 
ATOM     25  C   UNL     1       0.284  12.231  18.679  0.00  0.00    +0.000 C 
ENDBRANCH   1  25
TORSDOF 6
ENDMDL
MODEL 3
REMARK VINA RESULT:      -7.2      2.815      8.525
REMARK  Name = 
REMARK  9 active torsions:
REMARK  status: ('A' for Active; 'I' for Inactive)
REMARK    1  A    between atoms: C_1  and  C_2
REMARK    2  A    between atoms: C_2  and  N_3
REMARK    3  A    between atoms: C_4  and  C_5
REMARK    4  A    between atoms: C_6  and  C_7
REMARK    5  A    between atoms: C_10  and  C_11
REMARK    6  A    between atoms: N_13  and  C_14
REMARK    7  A    between atoms: C_14  and  C_15
REMARK    8  A    between atoms: C_15  and  C_16
REMARK    9  A    between atoms: C_16  and  N_17
REMARK                            x       y       z     vdW  Elec       q    Type
REMARK                         _______ _______ _______ _____ _____    ______ ____
ROOT
ATOM      1  N   UNL     1       2.811   3.894  20.094  0.00  0.00    +0.000 N 
ATOM      2  C   UNL     1       3.345   3.376  18.928  0.00  0.00    +0.000 A 
ATOM      3  C   UNL     1       3.756   1.952  18.756  0.00  0.00    +0.000 C 
ATOM      4  C   UNL     1       3.436   4.416  18.015  0.00  0.00    +0.000 A 
ATOM      5  C   UNL     1       4.003   4.366  16.638  0.00  0.00    +0.000 C 
ATOM      6  C   UNL     1       2.863   5.571  18.624  0.00  0.00    +0.000 A 
ATOM      7  C   UNL     1       2.653   6.893  18.176  0.00  0.00    +0.000 A 
ATOM      8  C   UNL     1       2.029   7.830  19.010  0.00  0.00    +0.000 A 
ATOM      9  C   UNL     1       1.639   7.460  20.299  0.00  0.00    +0.000 A 
ATOM     10  C   UNL     1       1.849   6.154  20.773  0.00  0.00    +0.000 A 
ATOM     11  C   UNL     1       2.463   5.222  19.915  0.00  0.00    +0.000 A 
ENDROOT
BRANCH   8  12
ATOM     12  C   UNL     1       1.831   9.207  18.471  0.00  0.00    +0.000 C 
ATOM     13  O   UNL     1       2.193   9.483  17.332  0.00  0.00    +0.000 OA
ATOM     14  N   UNL     1       1.182  10.109  19.291  0.00  0.00    +0.000 N 
ATOM     15  H   UNL     1       0.730   9.772  20.129  0.00  0.00    +0.000 HD
BRANCH  14  16
ATOM     16  C   UNL     1       0.840  11.434  18.802  0.00  0.00    +0.000 C 
BRANCH  16  17
ATOM     17  C   UNL     1      -0.552  11.860  19.261  0.00  0.00    +0.000 C 
BRANCH  17  18
ATOM     18  C   UNL     1      -1.516  12.024  18.076  0.00  0.00    +0.000 C 
BRANCH  18  19
ATOM     19  N   UNL     1      -2.404  10.862  17.899  0.00  0.00    +0.000 NA
ATOM     20  C   UNL     1      -2.221  10.147  16.629  0.00  0.00    +0.000 C 
ATOM     21  C   UNL     1      -3.136  10.834  15.635  0.00  0.00    +0.000 C 
ATOM     22  C   UNL     1      -4.328  11.248  16.474  0.00  0.00    +0.000 C 
ATOM     23  C   UNL     1      -3.821  11.267  17.914  0.00  0.00    +0.000 C 
ENDBRANCH  18  19
ENDBRANCH  17  18
ENDBRANCH  16  17
ENDBRANCH  14  16
ENDBRANCH   8  12
BRANCH   1  25
ATOM     24  C   UNL     1       1.286   2.625  21.583  0.00  0.00    +0.000 C 
ATOM     25  C   UNL     1       2.684   3.171  21.354  0.00  0.00    +0.000 C 
ENDBRANCH   1  25
TORSDOF 6
ENDMDL
MODEL 4
REMARK VINA RESULT:      -7.2      1.168      1.473
REMARK  Name = 
REMARK  9 active torsions:
REMARK  status: ('A' for Active; 'I' for Inactive)
REMARK    1  A    between atoms: C_1  and  C_2
REMARK    2  A    between atoms: C_2  and  N_3
REMARK    3  A    between atoms: C_4  and  C_5
REMARK    4  A    between atoms: C_6  and  C_7
REMARK    5  A    between atoms: C_10  and  C_11
REMARK    6  A    between atoms: N_13  and  C_14
REMARK    7  A    between atoms: C_14  and  C_15
REMARK    8  A    between atoms: C_15  and  C_16
REMARK    9  A    between atoms: C_16  and  N_17
REMARK                            x       y       z     vdW  Elec       q    Type
REMARK                         _______ _______ _______ _____ _____    ______ ____
ROOT
ATOM      1  N   UNL     1       0.678  10.941  19.731  0.00  0.00    +0.000 N 
ATOM      2  C   UNL     1       0.093  11.107  20.974  0.00  0.00    +0.000 A 
ATOM      3  C   UNL     1      -0.590  12.358  21.416  0.00  0.00    +0.000 C 
ATOM      4  C   UNL     1       0.294   9.936  21.688  0.00  0.00    +0.000 A 
ATOM      5  C   UNL     1      -0.100   9.656  23.097  0.00  0.00    +0.000 C 
ATOM      6  C   UNL     1       0.946   9.012  20.820  0.00  0.00    +0.000 A 
ATOM      7  C   UNL     1       1.370   7.675  20.979  0.00  0.00    +0.000 A 
ATOM      8  C   UNL     1       1.977   6.996  19.913  0.00  0.00    +0.000 A 
ATOM      9  C   UNL     1       2.185   7.655  18.699  0.00  0.00    +0.000 A 
ATOM     10  C   UNL     1       1.783   8.989  18.521  0.00  0.00    +0.000 A 
ATOM     11  C   UNL     1       1.161   9.650  19.598  0.00  0.00    +0.000 A 
ENDROOT
BRANCH   8  12
ATOM     12  C   UNL     1       2.395   5.583  20.146  0.00  0.00    +0.000 C 
ATOM     13  O   UNL     1       1.708   4.842  20.840  0.00  0.00    +0.000 OA
ATOM     14  N   UNL     1       3.542   5.160  19.504  0.00  0.00    +0.000 N 
ATOM     15  H   UNL     1       3.950   5.748  18.791  0.00  0.00    +0.000 HD
BRANCH  14  16
ATOM     16  C   UNL     1       3.955   3.768  19.578  0.00  0.00    +0.000 C 
BRANCH  16  17
ATOM     17  C   UNL     1       4.342   3.225  18.206  0.00  0.00    +0.000 C 
BRANCH  17  18
ATOM     18  C   UNL     1       4.115   4.264  17.097  0.00  0.00    +0.000 C 
BRANCH  18  19
ATOM     19  N   UNL     1       5.239   5.206  16.960  0.00  0.00    +0.000 NA
ATOM     20  C   UNL     1       5.201   6.023  15.740  0.00  0.00    +0.000 C 
ATOM     21  C   UNL     1       5.921   5.213  14.681  0.00  0.00    +0.000 C 
ATOM     22  C   UNL     1       7.003   4.490  15.457  0.00  0.00    +0.000 C 
ATOM     23  C   UNL     1       6.528   4.493  16.909  0.00  0.00    +0.000 C 
ENDBRANCH  18  19
ENDBRANCH  17  18
ENDBRANCH  16  17
ENDBRANCH  14  16
ENDBRANCH   8  12
BRANCH   1  25
ATOM     24  C   UNL     1       2.174  12.674  18.776  0.00  0.00    +0.000 C 
ATOM     25  C   UNL     1       0.822  11.984  18.723  0.00  0.00    +0.000 C 
ENDBRANCH   1  25
TORSDOF 6
ENDMDL
MODEL 5
REMARK VINA RESULT:      -7.2      0.884      1.262
REMARK  Name = 
REMARK  9 active torsions:
REMARK  status: ('A' for Active; 'I' for Inactive)
REMARK    1  A    between atoms: C_1  and  C_2
REMARK    2  A    between atoms: C_2  and  N_3
REMARK    3  A    between atoms: C_4  and  C_5
REMARK    4  A    between atoms: C_6  and  C_7
REMARK    5  A    between atoms: C_10  and  C_11
REMARK    6  A    between atoms: N_13  and  C_14
REMARK    7  A    between atoms: C_14  and  C_15
REMARK    8  A    between atoms: C_15  and  C_16
REMARK    9  A    between atoms: C_16  and  N_17
REMARK                            x       y       z     vdW  Elec       q    Type
REMARK                         _______ _______ _______ _____ _____    ______ ____
ROOT
ATOM      1  N   UNL     1       0.554  11.155  19.879  0.00  0.00    +0.000 N 
ATOM      2  C   UNL     1       0.086  11.151  21.181  0.00  0.00    +0.000 A 
ATOM      3  C   UNL     1      -0.608  12.304  21.825  0.00  0.00    +0.000 C 
ATOM      4  C   UNL     1       0.410   9.921  21.736  0.00  0.00    +0.000 A 
ATOM      5  C   UNL     1       0.168   9.465  23.133  0.00  0.00    +0.000 C 
ATOM      6  C   UNL     1       1.015   9.136  20.711  0.00  0.00    +0.000 A 
ATOM      7  C   UNL     1       1.515   7.817  20.675  0.00  0.00    +0.000 A 
ATOM      8  C   UNL     1       2.045   7.295  19.487  0.00  0.00    +0.000 A 
ATOM      9  C   UNL     1       2.103   8.093  18.343  0.00  0.00    +0.000 A 
ATOM     10  C   UNL     1       1.624   9.414  18.357  0.00  0.00    +0.000 A 
ATOM     11  C   UNL     1       1.080   9.917  19.555  0.00  0.00    +0.000 A 
ENDROOT
BRANCH   8  12
ATOM     12  C   UNL     1       2.549   5.890  19.518  0.00  0.00    +0.000 C 
ATOM     13  O   UNL     1       1.770   4.952  19.391  0.00  0.00    +0.000 OA
ATOM     14  N   UNL     1       3.915   5.722  19.636  0.00  0.00    +0.000 N 
ATOM     15  H   UNL     1       4.518   6.525  19.531  0.00  0.00    +0.000 HD
BRANCH  14  16
ATOM     16  C   UNL     1       4.502   4.395  19.552  0.00  0.00    +0.000 C 
BRANCH  16  17
ATOM     17  C   UNL     1       4.973   4.080  18.135  0.00  0.00    +0.000 C 
BRANCH  17  18
ATOM     18  C   UNL     1       5.272   5.358  17.337  0.00  0.00    +0.000 C 
BRANCH  18  19
ATOM     19  N   UNL     1       6.697   5.494  16.992  0.00  0.00    +0.000 NA
ATOM     20  C   UNL     1       7.614   4.820  17.921  0.00  0.00    +0.000 C 
ATOM     21  C   UNL     1       7.914   5.832  19.009  0.00  0.00    +0.000 C 
ATOM     22  C   UNL     1       7.910   7.157  18.275  0.00  0.00    +0.000 C 
ATOM     23  C   UNL     1       7.113   6.909  16.997  0.00  0.00    +0.000 C 
ENDBRANCH  18  19
ENDBRANCH  17  18
ENDBRANCH  16  17
ENDBRANCH  14  16
ENDBRANCH   8  12
BRANCH   1  25
ATOM     24  C   UNL     1      -0.792  12.532  18.315  0.00  0.00    +0.000 C 
ATOM     25  C   UNL     1       0.551  12.310  18.989  0.00  0.00    +0.000 C 
ENDBRANCH   1  25
TORSDOF 6
ENDMDL
MODEL 6
REMARK VINA RESULT:      -7.2      1.292      1.502
REMARK  Name = 
REMARK  9 active torsions:
REMARK  status: ('A' for Active; 'I' for Inactive)
REMARK    1  A    between atoms: C_1  and  C_2
REMARK    2  A    between atoms: C_2  and  N_3
REMARK    3  A    between atoms: C_4  and  C_5
REMARK    4  A    between atoms: C_6  and  C_7
REMARK    5  A    between atoms: C_10  and  C_11
REMARK    6  A    between atoms: N_13  and  C_14
REMARK    7  A    between atoms: C_14  and  C_15
REMARK    8  A    between atoms: C_15  and  C_16
REMARK    9  A    between atoms: C_16  and  N_17
REMARK                            x       y       z     vdW  Elec       q    Type
REMARK                         _______ _______ _______ _____ _____    ______ ____
ROOT
ATOM      1  N   UNL     1       0.147  11.583  20.203  0.00  0.00    +0.000 N 
ATOM      2  C   UNL     1      -0.224  11.333  21.512  0.00  0.00    +0.000 A 
ATOM      3  C   UNL     1      -0.965  12.301  22.372  0.00  0.00    +0.000 C 
ATOM      4  C   UNL     1       0.240  10.068  21.841  0.00  0.00    +0.000 A 
ATOM      5  C   UNL     1       0.138   9.379  23.158  0.00  0.00    +0.000 C 
ATOM      6  C   UNL     1       0.835   9.513  20.670  0.00  0.00    +0.000 A 
ATOM      7  C   UNL     1       1.440   8.268  20.394  0.00  0.00    +0.000 A 
ATOM      8  C   UNL     1       1.926   7.990  19.109  0.00  0.00    +0.000 A 
ATOM      9  C   UNL     1       1.835   8.958  18.107  0.00  0.00    +0.000 A 
ATOM     10  C   UNL     1       1.250  10.210  18.361  0.00  0.00    +0.000 A 
ATOM     11  C   UNL     1       0.752  10.466  19.654  0.00  0.00    +0.000 A 
ENDROOT
BRANCH   8  12
ATOM     12  C   UNL     1       2.547   6.651  18.883  0.00  0.00    +0.000 C 
ATOM     13  O   UNL     1       2.330   6.037  17.844  0.00  0.00    +0.000 OA
ATOM     14  N   UNL     1       3.402   6.189  19.864  0.00  0.00    +0.000 N 
ATOM     15  H   UNL     1       3.699   6.822  20.593  0.00  0.00    +0.000 HD
BRANCH  14  16
ATOM     16  C   UNL     1       4.143   4.954  19.671  0.00  0.00    +0.000 C 
BRANCH  16  17
ATOM     17  C   UNL     1       5.609   5.225  19.342  0.00  0.00    +0.000 C 
BRANCH  17  18
ATOM     18  C   UNL     1       6.086   4.391  18.144  0.00  0.00    +0.000 C 
BRANCH  18  19
ATOM     19  N   UNL     1       6.793   5.197  17.133  0.00  0.00    +0.000 NA
ATOM     20  C   UNL     1       6.221   6.531  16.913  0.00  0.00    +0.000 C 
ATOM     21  C   UNL     1       5.162   6.354  15.842  0.00  0.00    +0.000 C 
ATOM     22  C   UNL     1       5.733   5.269  14.953  0.00  0.00    +0.000 C 
ATOM     23  C   UNL     1       6.763   4.540  15.813  0.00  0.00    +0.000 C 
ENDBRANCH  18  19
ENDBRANCH  17  18
ENDBRANCH  16  17
ENDBRANCH  14  16
ENDBRANCH   8  12
BRANCH   1  25
ATOM     24  C   UNL     1       1.210  13.747  19.616  0.00  0.00    +0.000 C 
ATOM     25  C   UNL     1      -0.016  12.857  19.512  0.00  0.00    +0.000 C 
ENDBRANCH   1  25
TORSDOF 6
ENDMDL
MODEL 7
REMARK VINA RESULT:      -7.0      2.407      8.398
REMARK  Name = 
REMARK  9 active torsions:
REMARK  status: ('A' for Active; 'I' for Inactive)
REMARK    1  A    between atoms: C_1  and  C_2
REMARK    2  A    between atoms: C_2  and  N_3
REMARK    3  A    between atoms: C_4  and  C_5
REMARK    4  A    between atoms: C_6  and  C_7
REMARK    5  A    between atoms: C_10  and  C_11
REMARK    6  A    between atoms: N_13  and  C_14
REMARK    7  A    between atoms: C_14  and  C_15
REMARK    8  A    between atoms: C_15  and  C_16
REMARK    9  A    between atoms: C_16  and  N_17
REMARK                            x       y       z     vdW  Elec       q    Type
REMARK                         _______ _______ _______ _____ _____    ______ ____
ROOT
ATOM      1  N   UNL     1       2.859   3.983  20.099  0.00  0.00    +0.000 N 
ATOM      2  C   UNL     1       3.454   3.483  18.955  0.00  0.00    +0.000 A 
ATOM      3  C   UNL     1       3.898   2.067  18.792  0.00  0.00    +0.000 C 
ATOM      4  C   UNL     1       3.568   4.530  18.053  0.00  0.00    +0.000 A 
ATOM      5  C   UNL     1       4.198   4.500  16.704  0.00  0.00    +0.000 C 
ATOM      6  C   UNL     1       2.949   5.671  18.643  0.00  0.00    +0.000 A 
ATOM      7  C   UNL     1       2.736   6.992  18.195  0.00  0.00    +0.000 A 
ATOM      8  C   UNL     1       2.058   7.912  19.006  0.00  0.00    +0.000 A 
ATOM      9  C   UNL     1       1.616   7.526  20.273  0.00  0.00    +0.000 A 
ATOM     10  C   UNL     1       1.828   6.221  20.747  0.00  0.00    +0.000 A 
ATOM     11  C   UNL     1       2.497   5.305  19.912  0.00  0.00    +0.000 A 
ENDROOT
BRANCH   8  12
ATOM     12  C   UNL     1       1.860   9.290  18.468  0.00  0.00    +0.000 C 
ATOM     13  O   UNL     1       2.180   9.553  17.313  0.00  0.00    +0.000 OA
ATOM     14  N   UNL     1       1.261  10.207  19.309  0.00  0.00    +0.000 N 
ATOM     15  H   UNL     1       0.838   9.881  20.166  0.00  0.00    +0.000 HD
BRANCH  14  16
ATOM     16  C   UNL     1       0.921  11.534  18.826  0.00  0.00    +0.000 C 
BRANCH  16  17
ATOM     17  C   UNL     1      -0.585  11.694  18.639  0.00  0.00    +0.000 C 
BRANCH  17  18
ATOM     18  C   UNL     1      -1.317  11.806  19.985  0.00  0.00    +0.000 C 
BRANCH  18  19
ATOM     19  N   UNL     1      -0.395  11.873  21.131  0.00  0.00    +0.000 NA
ATOM     20  C   UNL     1      -0.652  10.875  22.178  0.00  0.00    +0.000 C 
ATOM     21  C   UNL     1      -1.658  11.513  23.115  0.00  0.00    +0.000 C 
ATOM     22  C   UNL     1      -1.281  12.980  23.099  0.00  0.00    +0.000 C 
ATOM     23  C   UNL     1      -0.485  13.178  21.811  0.00  0.00    +0.000 C 
ENDBRANCH  18  19
ENDBRANCH  17  18
ENDBRANCH  16  17
ENDBRANCH  14  16
ENDBRANCH   8  12
BRANCH   1  25
ATOM     24  C   UNL     1       1.301   2.646  21.492  0.00  0.00    +0.000 C 
ATOM     25  C   UNL     1       2.688   3.248  21.347  0.00  0.00    +0.000 C 
ENDBRANCH   1  25
TORSDOF 6
ENDMDL
MODEL 8
REMARK VINA RESULT:      -7.0      2.111      3.549
REMARK  Name = 
REMARK  9 active torsions:
REMARK  status: ('A' for Active; 'I' for Inactive)
REMARK    1  A    between atoms: C_1  and  C_2
REMARK    2  A    between atoms: C_2  and  N_3
REMARK    3  A    between atoms: C_4  and  C_5
REMARK    4  A    between atoms: C_6  and  C_7
REMARK    5  A    between atoms: C_10  and  C_11
REMARK    6  A    between atoms: N_13  and  C_14
REMARK    7  A    between atoms: C_14  and  C_15
REMARK    8  A    between atoms: C_15  and  C_16
REMARK    9  A    between atoms: C_16  and  N_17
REMARK                            x       y       z     vdW  Elec       q    Type
REMARK                         _______ _______ _______ _____ _____    ______ ____
ROOT
ATOM      1  N   UNL     1      -0.193  10.694  19.702  0.00  0.00    +0.000 N 
ATOM      2  C   UNL     1      -0.306  10.521  21.070  0.00  0.00    +0.000 A 
ATOM      3  C   UNL     1      -1.208  11.327  21.944  0.00  0.00    +0.000 C 
ATOM      4  C   UNL     1       0.572   9.512  21.436  0.00  0.00    +0.000 A 
ATOM      5  C   UNL     1       0.852   9.008  22.809  0.00  0.00    +0.000 C 
ATOM      6  C   UNL     1       1.168   9.010  20.242  0.00  0.00    +0.000 A 
ATOM      7  C   UNL     1       2.099   7.980  19.988  0.00  0.00    +0.000 A 
ATOM      8  C   UNL     1       2.491   7.692  18.674  0.00  0.00    +0.000 A 
ATOM      9  C   UNL     1       1.979   8.444  17.615  0.00  0.00    +0.000 A 
ATOM     10  C   UNL     1       1.061   9.483  17.843  0.00  0.00    +0.000 A 
ATOM     11  C   UNL     1       0.665   9.748  19.169  0.00  0.00    +0.000 A 
ENDROOT
BRANCH   8  12
ATOM     12  C   UNL     1       3.474   6.586  18.476  0.00  0.00    +0.000 C 
ATOM     13  O   UNL     1       3.935   6.361  17.362  0.00  0.00    +0.000 OA
ATOM     14  N   UNL     1       3.863   5.889  19.604  0.00  0.00    +0.000 N 
ATOM     15  H   UNL     1       3.608   6.249  20.513  0.00  0.00    +0.000 HD
BRANCH  14  16
ATOM     16  C   UNL     1       4.904   4.880  19.522  0.00  0.00    +0.000 C 
BRANCH  16  17
ATOM     17  C   UNL     1       4.342   3.527  19.095  0.00  0.00    +0.000 C 
BRANCH  17  18
ATOM     18  C   UNL     1       3.789   2.738  20.292  0.00  0.00    +0.000 C 
BRANCH  18  19
ATOM     19  N   UNL     1       2.448   2.184  20.039  0.00  0.00    +0.000 NA
ATOM     20  C   UNL     1       1.950   2.397  18.674  0.00  0.00    +0.000 C 
ATOM     21  C   UNL     1       1.248   3.741  18.698  0.00  0.00    +0.000 C 
ATOM     22  C   UNL     1       0.641   3.802  20.085  0.00  0.00    +0.000 C 
ATOM     23  C   UNL     1       1.440   2.803  20.920  0.00  0.00    +0.000 C 
ENDBRANCH  18  19
ENDBRANCH  17  18
ENDBRANCH  16  17
ENDBRANCH  14  16
ENDBRANCH   8  12
BRANCH   1  25
ATOM     24  C   UNL     1      -2.129  11.308  18.279  0.00  0.00    +0.000 C 
ATOM     25  C   UNL     1      -0.834  11.754  18.933  0.00  0.00    +0.000 C 
ENDBRANCH   1  25
TORSDOF 6
ENDMDL
MODEL 9
REMARK VINA RESULT:      -7.0      2.362      2.970
REMARK  Name = 
REMARK  9 active torsions:
REMARK  status: ('A' for Active; 'I' for Inactive)
REMARK    1  A    between atoms: C_1  and  C_2
REMARK    2  A    between atoms: C_2  and  N_3
REMARK    3  A    between atoms: C_4  and  C_5
REMARK    4  A    between atoms: C_6  and  C_7
REMARK    5  A    between atoms: C_10  and  C_11
REMARK    6  A    between atoms: N_13  and  C_14
REMARK    7  A    between atoms: C_14  and  C_15
REMARK    8  A    between atoms: C_15  and  C_16
REMARK    9  A    between atoms: C_16  and  N_17
REMARK                            x       y       z     vdW  Elec       q    Type
REMARK                         _______ _______ _______ _____ _____    ______ ____
ROOT
ATOM      1  N   UNL     1       0.080  11.266  19.866  0.00  0.00    +0.000 N 
ATOM      2  C   UNL     1      -0.486  11.333  21.126  0.00  0.00    +0.000 A 
ATOM      3  C   UNL     1      -1.310  12.479  21.614  0.00  0.00    +0.000 C 
ATOM      4  C   UNL     1      -0.120  10.184  21.809  0.00  0.00    +0.000 A 
ATOM      5  C   UNL     1      -0.437   9.828  23.221  0.00  0.00    +0.000 C 
ATOM      6  C   UNL     1       0.619   9.366  20.905  0.00  0.00    +0.000 A 
ATOM      7  C   UNL     1       1.213   8.091  21.023  0.00  0.00    +0.000 A 
ATOM      8  C   UNL     1       1.870   7.515  19.927  0.00  0.00    +0.000 A 
ATOM      9  C   UNL     1       1.961   8.218  18.724  0.00  0.00    +0.000 A 
ATOM     10  C   UNL     1       1.389   9.494  18.586  0.00  0.00    +0.000 A 
ATOM     11  C   UNL     1       0.718  10.050  19.692  0.00  0.00    +0.000 A 
ENDROOT
BRANCH   8  12
ATOM     12  C   UNL     1       2.470   6.161  20.118  0.00  0.00    +0.000 C 
ATOM     13  O   UNL     1       3.603   5.926  19.713  0.00  0.00    +0.000 OA
ATOM     14  N   UNL     1       1.712   5.237  20.809  0.00  0.00    +0.000 N 
ATOM     15  H   UNL     1       0.880   5.548  21.291  0.00  0.00    +0.000 HD
BRANCH  14  16
ATOM     16  C   UNL     1       2.266   3.937  21.146  0.00  0.00    +0.000 C 
BRANCH  16  17
ATOM     17  C   UNL     1       1.501   2.807  20.462  0.00  0.00    +0.000 C 
BRANCH  17  18
ATOM     18  C   UNL     1       1.063   3.196  19.041  0.00  0.00    +0.000 C 
BRANCH  18  19
ATOM     19  N   UNL     1       1.814   2.480  17.997  0.00  0.00    +0.000 NA
ATOM     20  C   UNL     1       2.954   1.699  18.496  0.00  0.00    +0.000 C 
ATOM     21  C   UNL     1       4.132   2.652  18.507  0.00  0.00    +0.000 C 
ATOM     22  C   UNL     1       3.882   3.542  17.307  0.00  0.00    +0.000 C 
ATOM     23  C   UNL     1       2.388   3.418  17.015  0.00  0.00    +0.000 C 
ENDBRANCH  18  19
ENDBRANCH  17  18
ENDBRANCH  16  17
ENDBRANCH  14  16
ENDBRANCH   8  12
BRANCH   1  25
ATOM     24  C   UNL     1      -1.157  12.295  17.978  0.00  0.00    +0.000 C 
ATOM     25  C   UNL     1       0.065  12.339  18.879  0.00  0.00    +0.000 C 
ENDBRANCH   1  25
TORSDOF 6
ENDMDL
