MODEL 1
REMARK VINA RESULT:      -7.4      0.000      0.000
REMARK  Name = 
REMARK  9 active torsions:
REMARK  status: ('A' for Active; 'I' for Inactive)
REMARK    1  A    between atoms: C_1  and  C_2
REMARK    2  A    between atoms: C_2  and  C_3
REMARK    3  A    between atoms: C_2  and  C_4
REMARK    4  A    between atoms: C_2  and  N_5
REMARK    5  A    between atoms: N_5  and  C_6
REMARK    6  A    between atoms: C_6  and  N_8
REMARK    7  A    between atoms: N_8  and  N_9
REMARK    8  A    between atoms: C_10  and  C_11
REMARK    9  A    between atoms: C_12  and  O_13
REMARK                            x       y       z     vdW  Elec       q    Type
REMARK                         _______ _______ _______ _____ _____    ______ ____
ROOT
ATOM      1  N   UNL     1       4.863   3.459  17.297  0.00  0.00    +0.000 NA
ATOM      2  C   UNL     1       3.613   3.796  17.212  0.00  0.00    +0.000 C 
ENDROOT
BRANCH   2   3
ATOM      3  C   UNL     1       2.767   3.793  18.436  0.00  0.00    +0.000 A 
ATOM      4  C   UNL     1       2.330   2.556  18.950  0.00  0.00    +0.000 A 
ATOM      5  C   UNL     1       1.565   2.494  20.105  0.00  0.00    +0.000 A 
ATOM      6  C   UNL     1       1.208   3.669  20.753  0.00  0.00    +0.000 A 
ATOM      7  C   UNL     1       1.606   4.920  20.256  0.00  0.00    +0.000 A 
ATOM      8  C   UNL     1       1.205   6.079  20.938  0.00  0.00    +0.000 A 
ATOM      9  C   UNL     1       1.573   7.341  20.484  0.00  0.00    +0.000 A 
ATOM     10  C   UNL     1       2.355   7.459  19.344  0.00  0.00    +0.000 A 
ATOM     11  C   UNL     1       2.768   6.313  18.656  0.00  0.00    +0.000 A 
ATOM     12  C   UNL     1       2.400   5.009  19.084  0.00  0.00    +0.000 A 
BRANCH   4  13
ATOM     13  O   UNL     1       2.592   1.345  18.364  0.00  0.00    +0.000 OA
ATOM     14  H   UNL     1       1.751   1.021  17.975  0.00  0.00    +0.000 HD
ENDBRANCH   4  13
ENDBRANCH   2   3
BRANCH   1  15
ATOM     15  N   UNL     1       5.568   3.420  16.134  0.00  0.00    +0.000 N 
ATOM     16  H   UNL     1       5.530   2.604  15.528  0.00  0.00    +0.000 HD
BRANCH  15  17
ATOM     17  C   UNL     1       6.556   4.365  15.900  0.00  0.00    +0.000 C 
ATOM     18  S   UNL     1       6.922   4.771  14.331  0.00  0.00    +0.000 S 
BRANCH  17  19
ATOM     19  N   UNL     1       7.101   4.840  17.069  0.00  0.00    +0.000 N 
ATOM     20  H   UNL     1       8.010   4.412  17.214  0.00  0.00    +0.000 HD
BRANCH  19  22
ATOM     21  C   UNL     1       8.021   6.935  18.085  0.00  0.00    +0.000 C 
ATOM     22  C   UNL     1       6.803   6.026  17.895  0.00  0.00    +0.000 C 
ATOM     23  C   UNL     1       6.227   5.583  19.247  0.00  0.00    +0.000 C 
ATOM     24  C   UNL     1       5.722   6.849  17.159  0.00  0.00    +0.000 C 
ENDBRANCH  19  22
ENDBRANCH  17  19
ENDBRANCH  15  17
ENDBRANCH   1  15
TORSDOF 6
ENDMDL
MODEL 2
REMARK VINA RESULT:      -7.3      1.881      2.602
REMARK  Name = 
REMARK  9 active torsions:
REMARK  status: ('A' for Active; 'I' for Inactive)
REMARK    1  A    between atoms: C_1  and  C_2
REMARK    2  A    between atoms: C_2  and  C_3
REMARK    3  A    between atoms: C_2  and  C_4
REMARK    4  A    between atoms: C_2  and  N_5
REMARK    5  A    between atoms: N_5  and  C_6
REMARK    6  A    between atoms: C_6  and  N_8
REMARK    7  A    between atoms: N_8  and  N_9
REMARK    8  A    between atoms: C_10  and  C_11
REMARK    9  A    between atoms: C_12  and  O_13
REMARK                            x       y       z     vdW  Elec       q    Type
REMARK                         _______ _______ _______ _____ _____    ______ ____
ROOT
ATOM      1  N   UNL     1       6.497   4.555  19.075  0.00  0.00    +0.000 NA
ATOM      2  C   UNL     1       5.344   4.171  18.623  0.00  0.00    +0.000 C 
ENDROOT
BRANCH   2   3
ATOM      3  C   UNL     1       4.203   4.010  19.564  0.00  0.00    +0.000 A 
ATOM      4  C   UNL     1       4.039   2.772  20.219  0.00  0.00    +0.000 A 
ATOM      5  C   UNL     1       3.012   2.577  21.129  0.00  0.00    +0.000 A 
ATOM      6  C   UNL     1       2.119   3.610  21.385  0.00  0.00    +0.000 A 
ATOM      7  C   UNL     1       2.238   4.848  20.733  0.00  0.00    +0.000 A 
ATOM      8  C   UNL     1       1.299   5.853  21.013  0.00  0.00    +0.000 A 
ATOM      9  C   UNL     1       1.374   7.096  20.392  0.00  0.00    +0.000 A 
ATOM     10  C   UNL     1       2.395   7.350  19.488  0.00  0.00    +0.000 A 
ATOM     11  C   UNL     1       3.341   6.360  19.202  0.00  0.00    +0.000 A 
ATOM     12  C   UNL     1       3.288   5.076  19.808  0.00  0.00    +0.000 A 
BRANCH   4  13
ATOM     13  O   UNL     1       4.839   1.680  20.006  0.00  0.00    +0.000 OA
ATOM     14  H   UNL     1       4.921   1.562  19.036  0.00  0.00    +0.000 HD
ENDBRANCH   4  13
ENDBRANCH   2   3
BRANCH   1  15
ATOM     15  N   UNL     1       7.516   4.624  18.175  0.00  0.00    +0.000 N 
ATOM     16  H   UNL     1       8.365   4.080  18.307  0.00  0.00    +0.000 HD
BRANCH  15  17
ATOM     17  C   UNL     1       7.527   5.637  17.228  0.00  0.00    +0.000 C 
ATOM     18  S   UNL     1       7.500   7.217  17.742  0.00  0.00    +0.000 S 
BRANCH  17  19
ATOM     19  N   UNL     1       7.564   5.143  15.946  0.00  0.00    +0.000 N 
ATOM     20  H   UNL     1       8.470   4.718  15.776  0.00  0.00    +0.000 HD
BRANCH  19  22
ATOM     21  C   UNL     1       5.843   3.463  15.251  0.00  0.00    +0.000 C 
ATOM     22  C   UNL     1       6.502   4.819  14.975  0.00  0.00    +0.000 C 
ATOM     23  C   UNL     1       7.067   4.878  13.550  0.00  0.00    +0.000 C 
ATOM     24  C   UNL     1       5.405   5.899  15.102  0.00  0.00    +0.000 C 
ENDBRANCH  19  22
ENDBRANCH  17  19
ENDBRANCH  15  17
ENDBRANCH   1  15
TORSDOF 6
ENDMDL
MODEL 3
REMARK VINA RESULT:      -7.0      0.973      1.242
REMARK  Name = 
REMARK  9 active torsions:
REMARK  status: ('A' for Active; 'I' for Inactive)
REMARK    1  A    between atoms: C_1  and  C_2
REMARK    2  A    between atoms: C_2  and  C_3
REMARK    3  A    between atoms: C_2  and  C_4
REMARK    4  A    between atoms: C_2  and  N_5
REMARK    5  A    between atoms: N_5  and  C_6
REMARK    6  A    between atoms: C_6  and  N_8
REMARK    7  A    between atoms: N_8  and  N_9
REMARK    8  A    between atoms: C_10  and  C_11
REMARK    9  A    between atoms: C_12  and  O_13
REMARK                            x       y       z     vdW  Elec       q    Type
REMARK                         _______ _______ _______ _____ _____    ______ ____
ROOT
ATOM      1  N   UNL     1       5.175   3.605  17.037  0.00  0.00    +0.000 NA
ATOM      2  C   UNL     1       4.964   3.510  18.313  0.00  0.00    +0.000 C 
ENDROOT
BRANCH   2   3
ATOM      3  C   UNL     1       3.572   3.365  18.817  0.00  0.00    +0.000 A 
ATOM      4  C   UNL     1       2.944   2.108  18.712  0.00  0.00    +0.000 A 
ATOM      5  C   UNL     1       1.659   1.909  19.194  0.00  0.00    +0.000 A 
ATOM      6  C   UNL     1       0.973   2.969  19.771  0.00  0.00    +0.000 A 
ATOM      7  C   UNL     1       1.558   4.242  19.870  0.00  0.00    +0.000 A 
ATOM      8  C   UNL     1       0.817   5.286  20.445  0.00  0.00    +0.000 A 
ATOM      9  C   UNL     1       1.352   6.564  20.565  0.00  0.00    +0.000 A 
ATOM     10  C   UNL     1       2.642   6.812  20.117  0.00  0.00    +0.000 A 
ATOM     11  C   UNL     1       3.396   5.781  19.547  0.00  0.00    +0.000 A 
ATOM     12  C   UNL     1       2.876   4.468  19.397  0.00  0.00    +0.000 A 
BRANCH   4  13
ATOM     13  O   UNL     1       3.518   1.011  18.125  0.00  0.00    +0.000 OA
ATOM     14  H   UNL     1       4.262   0.728  18.698  0.00  0.00    +0.000 HD
ENDBRANCH   4  13
ENDBRANCH   2   3
BRANCH   1  15
ATOM     15  N   UNL     1       6.462   3.798  16.641  0.00  0.00    +0.000 N 
ATOM     16  H   UNL     1       7.234   3.370  17.147  0.00  0.00    +0.000 HD
BRANCH  15  17
ATOM     17  C   UNL     1       6.756   4.796  15.725  0.00  0.00    +0.000 C 
ATOM     18  S   UNL     1       6.326   4.579  14.134  0.00  0.00    +0.000 S 
BRANCH  17  19
ATOM     19  N   UNL     1       7.388   5.866  16.313  0.00  0.00    +0.000 N 
ATOM     20  H   UNL     1       8.077   6.244  15.671  0.00  0.00    +0.000 HD
BRANCH  19  22
ATOM     21  C   UNL     1       7.360   6.068  18.808  0.00  0.00    +0.000 C 
ATOM     22  C   UNL     1       7.032   6.722  17.461  0.00  0.00    +0.000 C 
ATOM     23  C   UNL     1       5.550   7.107  17.381  0.00  0.00    +0.000 C 
ATOM     24  C   UNL     1       7.871   8.015  17.360  0.00  0.00    +0.000 C 
ENDBRANCH  19  22
ENDBRANCH  17  19
ENDBRANCH  15  17
ENDBRANCH   1  15
TORSDOF 6
ENDMDL
MODEL 4
REMARK VINA RESULT:      -6.9      1.113      1.276
REMARK  Name = 
REMARK  9 active torsions:
REMARK  status: ('A' for Active; 'I' for Inactive)
REMARK    1  A    between atoms: C_1  and  C_2
REMARK    2  A    between atoms: C_2  and  C_3
REMARK    3  A    between atoms: C_2  and  C_4
REMARK    4  A    between atoms: C_2  and  N_5
REMARK    5  A    between atoms: N_5  and  C_6
REMARK    6  A    between atoms: C_6  and  N_8
REMARK    7  A    between atoms: N_8  and  N_9
REMARK    8  A    between atoms: C_10  and  C_11
REMARK    9  A    between atoms: C_12  and  O_13
REMARK                            x       y       z     vdW  Elec       q    Type
REMARK                         _______ _______ _______ _____ _____    ______ ____
ROOT
ATOM      1  N   UNL     1       5.570   3.565  16.999  0.00  0.00    +0.000 NA
ATOM      2  C   UNL     1       5.279   3.727  18.252  0.00  0.00    +0.000 C 
ENDROOT
BRANCH   2   3
ATOM      3  C   UNL     1       3.911   3.397  18.736  0.00  0.00    +0.000 A 
ATOM      4  C   UNL     1       3.438   2.079  18.574  0.00  0.00    +0.000 A 
ATOM      5  C   UNL     1       2.183   1.709  19.034  0.00  0.00    +0.000 A 
ATOM      6  C   UNL     1       1.373   2.656  19.646  0.00  0.00    +0.000 A 
ATOM      7  C   UNL     1       1.802   3.984  19.804  0.00  0.00    +0.000 A 
ATOM      8  C   UNL     1       0.939   4.907  20.413  0.00  0.00    +0.000 A 
ATOM      9  C   UNL     1       1.318   6.234  20.591  0.00  0.00    +0.000 A 
ATOM     10  C   UNL     1       2.571   6.651  20.166  0.00  0.00    +0.000 A 
ATOM     11  C   UNL     1       3.446   5.742  19.562  0.00  0.00    +0.000 A 
ATOM     12  C   UNL     1       3.087   4.384  19.353  0.00  0.00    +0.000 A 
BRANCH   4  13
ATOM     13  O   UNL     1       4.141   1.083  17.948  0.00  0.00    +0.000 OA
ATOM     14  H   UNL     1       5.082   1.361  17.924  0.00  0.00    +0.000 HD
ENDBRANCH   4  13
ENDBRANCH   2   3
BRANCH   1  15
ATOM     15  N   UNL     1       6.816   3.943  16.606  0.00  0.00    +0.000 N 
ATOM     16  H   UNL     1       7.643   3.582  17.075  0.00  0.00    +0.000 HD
BRANCH  15  17
ATOM     17  C   UNL     1       6.968   5.027  15.755  0.00  0.00    +0.000 C 
ATOM     18  S   UNL     1       6.387   4.917  14.202  0.00  0.00    +0.000 S 
BRANCH  17  19
ATOM     19  N   UNL     1       7.607   6.078  16.369  0.00  0.00    +0.000 N 
ATOM     20  H   UNL     1       8.329   6.438  15.753  0.00  0.00    +0.000 HD
BRANCH  19  22
ATOM     21  C   UNL     1       7.887   8.325  17.436  0.00  0.00    +0.000 C 
ATOM     22  C   UNL     1       7.235   6.940  17.507  0.00  0.00    +0.000 C 
ATOM     23  C   UNL     1       7.579   6.235  18.825  0.00  0.00    +0.000 C 
ATOM     24  C   UNL     1       5.705   7.147  17.458  0.00  0.00    +0.000 C 
ENDBRANCH  19  22
ENDBRANCH  17  19
ENDBRANCH  15  17
ENDBRANCH   1  15
TORSDOF 6
ENDMDL
MODEL 5
REMARK VINA RESULT:      -6.9      2.623      4.374
REMARK  Name = 
REMARK  9 active torsions:
REMARK  status: ('A' for Active; 'I' for Inactive)
REMARK    1  A    between atoms: C_1  and  C_2
REMARK    2  A    between atoms: C_2  and  C_3
REMARK    3  A    between atoms: C_2  and  C_4
REMARK    4  A    between atoms: C_2  and  N_5
REMARK    5  A    between atoms: N_5  and  C_6
REMARK    6  A    between atoms: C_6  and  N_8
REMARK    7  A    between atoms: N_8  and  N_9
REMARK    8  A    between atoms: C_10  and  C_11
REMARK    9  A    between atoms: C_12  and  O_13
REMARK                            x       y       z     vdW  Elec       q    Type
REMARK                         _______ _______ _______ _____ _____    ______ ____
ROOT
ATOM      1  N   UNL     1       5.552   4.040  16.699  0.00  0.00    +0.000 NA
ATOM      2  C   UNL     1       4.257   4.095  16.671  0.00  0.00    +0.000 C 
ENDROOT
BRANCH   2   3
ATOM      3  C   UNL     1       3.532   4.864  17.718  0.00  0.00    +0.000 A 
ATOM      4  C   UNL     1       3.673   6.267  17.744  0.00  0.00    +0.000 A 
ATOM      5  C   UNL     1       2.996   7.035  18.679  0.00  0.00    +0.000 A 
ATOM      6  C   UNL     1       2.183   6.412  19.617  0.00  0.00    +0.000 A 
ATOM      7  C   UNL     1       2.039   5.015  19.637  0.00  0.00    +0.000 A 
ATOM      8  C   UNL     1       1.220   4.432  20.616  0.00  0.00    +0.000 A 
ATOM      9  C   UNL     1       1.046   3.054  20.677  0.00  0.00    +0.000 A 
ATOM     10  C   UNL     1       1.685   2.240  19.752  0.00  0.00    +0.000 A 
ATOM     11  C   UNL     1       2.500   2.806  18.766  0.00  0.00    +0.000 A 
ATOM     12  C   UNL     1       2.710   4.209  18.682  0.00  0.00    +0.000 A 
BRANCH   4  13
ATOM     13  O   UNL     1       4.480   6.972  16.891  0.00  0.00    +0.000 OA
ATOM     14  H   UNL     1       5.083   6.329  16.461  0.00  0.00    +0.000 HD
ENDBRANCH   4  13
ENDBRANCH   2   3
BRANCH   1  15
ATOM     15  N   UNL     1       6.153   3.271  15.752  0.00  0.00    +0.000 N 
ATOM     16  H   UNL     1       6.637   2.413  16.007  0.00  0.00    +0.000 HD
BRANCH  15  17
ATOM     17  C   UNL     1       6.356   3.783  14.479  0.00  0.00    +0.000 C 
ATOM     18  S   UNL     1       7.126   5.246  14.315  0.00  0.00    +0.000 S 
BRANCH  17  19
ATOM     19  N   UNL     1       5.860   2.950  13.504  0.00  0.00    +0.000 N 
ATOM     20  H   UNL     1       5.176   2.323  13.914  0.00  0.00    +0.000 HD
BRANCH  19  22
ATOM     21  C   UNL     1       6.984   3.933  11.495  0.00  0.00    +0.000 C 
ATOM     22  C   UNL     1       5.868   3.029  12.031  0.00  0.00    +0.000 C 
ATOM     23  C   UNL     1       4.494   3.492  11.530  0.00  0.00    +0.000 C 
ATOM     24  C   UNL     1       6.124   1.606  11.486  0.00  0.00    +0.000 C 
ENDBRANCH  19  22
ENDBRANCH  17  19
ENDBRANCH  15  17
ENDBRANCH   1  15
TORSDOF 6
ENDMDL
MODEL 6
REMARK VINA RESULT:      -6.8      4.297      6.303
REMARK  Name = 
REMARK  9 active torsions:
REMARK  status: ('A' for Active; 'I' for Inactive)
REMARK    1  A    between atoms: C_1  and  C_2
REMARK    2  A    between atoms: C_2  and  C_3
REMARK    3  A    between atoms: C_2  and  C_4
REMARK    4  A    between atoms: C_2  and  N_5
REMARK    5  A    between atoms: N_5  and  C_6
REMARK    6  A    between atoms: C_6  and  N_8
REMARK    7  A    between atoms: N_8  and  N_9
REMARK    8  A    between atoms: C_10  and  C_11
REMARK    9  A    between atoms: C_12  and  O_13
REMARK                            x       y       z     vdW  Elec       q    Type
REMARK                         _______ _______ _______ _____ _____    ______ ____
ROOT
ATOM      1  N   UNL     1       1.464   7.028  20.501  0.00  0.00    +0.000 NA
ATOM      2  C   UNL     1       2.607   6.589  20.074  0.00  0.00    +0.000 C 
ENDROOT
BRANCH   2   3
ATOM      3  C   UNL     1       2.647   5.430  19.142  0.00  0.00    +0.000 A 
ATOM      4  C   UNL     1       1.753   4.362  19.357  0.00  0.00    +0.000 A 
ATOM      5  C   UNL     1       1.726   3.271  18.502  0.00  0.00    +0.000 A 
ATOM      6  C   UNL     1       2.607   3.220  17.430  0.00  0.00    +0.000 A 
ATOM      7  C   UNL     1       3.528   4.255  17.199  0.00  0.00    +0.000 A 
ATOM      8  C   UNL     1       4.409   4.148  16.113  0.00  0.00    +0.000 A 
ATOM      9  C   UNL     1       5.340   5.147  15.844  0.00  0.00    +0.000 A 
ATOM     10  C   UNL     1       5.395   6.269  16.657  0.00  0.00    +0.000 A 
ATOM     11  C   UNL     1       4.519   6.394  17.741  0.00  0.00    +0.000 A 
ATOM     12  C   UNL     1       3.566   5.388  18.052  0.00  0.00    +0.000 A 
BRANCH   4  13
ATOM     13  O   UNL     1       0.874   4.296  20.407  0.00  0.00    +0.000 OA
ATOM     14  H   UNL     1      -0.028   4.413  20.040  0.00  0.00    +0.000 HD
ENDBRANCH   4  13
ENDBRANCH   2   3
BRANCH   1  15
ATOM     15  N   UNL     1       1.496   8.050  21.399  0.00  0.00    +0.000 N 
ATOM     16  H   UNL     1       2.158   8.045  22.171  0.00  0.00    +0.000 HD
BRANCH  15  17
ATOM     17  C   UNL     1       0.453   8.962  21.437  0.00  0.00    +0.000 C 
ATOM     18  S   UNL     1      -0.044   9.553  22.908  0.00  0.00    +0.000 S 
BRANCH  17  19
ATOM     19  N   UNL     1      -0.027   9.248  20.181  0.00  0.00    +0.000 N 
ATOM     20  H   UNL     1      -0.941   8.824  20.066  0.00  0.00    +0.000 HD
BRANCH  19  22
ATOM     21  C   UNL     1      -0.866  10.820  18.421  0.00  0.00    +0.000 C 
ATOM     22  C   UNL     1       0.345  10.271  19.184  0.00  0.00    +0.000 C 
ATOM     23  C   UNL     1       1.391   9.697  18.219  0.00  0.00    +0.000 C 
ATOM     24  C   UNL     1       0.988  11.453  19.942  0.00  0.00    +0.000 C 
ENDBRANCH  19  22
ENDBRANCH  17  19
ENDBRANCH  15  17
ENDBRANCH   1  15
TORSDOF 6
ENDMDL
MODEL 7
REMARK VINA RESULT:      -6.8      1.976      3.147
REMARK  Name = 
REMARK  9 active torsions:
REMARK  status: ('A' for Active; 'I' for Inactive)
REMARK    1  A    between atoms: C_1  and  C_2
REMARK    2  A    between atoms: C_2  and  C_3
REMARK    3  A    between atoms: C_2  and  C_4
REMARK    4  A    between atoms: C_2  and  N_5
REMARK    5  A    between atoms: N_5  and  C_6
REMARK    6  A    between atoms: C_6  and  N_8
REMARK    7  A    between atoms: N_8  and  N_9
REMARK    8  A    between atoms: C_10  and  C_11
REMARK    9  A    between atoms: C_12  and  O_13
REMARK                            x       y       z     vdW  Elec       q    Type
REMARK                         _______ _______ _______ _____ _____    ______ ____
ROOT
ATOM      1  N   UNL     1       4.755   3.398  17.049  0.00  0.00    +0.000 NA
ATOM      2  C   UNL     1       3.459   3.357  17.064  0.00  0.00    +0.000 C 
ENDROOT
BRANCH   2   3
ATOM      3  C   UNL     1       2.728   3.701  18.313  0.00  0.00    +0.000 A 
ATOM      4  C   UNL     1       2.209   2.653  19.100  0.00  0.00    +0.000 A 
ATOM      5  C   UNL     1       1.545   2.916  20.289  0.00  0.00    +0.000 A 
ATOM      6  C   UNL     1       1.373   4.230  20.701  0.00  0.00    +0.000 A 
ATOM      7  C   UNL     1       1.856   5.300  19.930  0.00  0.00    +0.000 A 
ATOM      8  C   UNL     1       1.640   6.611  20.380  0.00  0.00    +0.000 A 
ATOM      9  C   UNL     1       2.098   7.704  19.651  0.00  0.00    +0.000 A 
ATOM     10  C   UNL     1       2.786   7.497  18.464  0.00  0.00    +0.000 A 
ATOM     11  C   UNL     1       3.014   6.195  18.004  0.00  0.00    +0.000 A 
ATOM     12  C   UNL     1       2.549   5.057  18.716  0.00  0.00    +0.000 A 
BRANCH   4  13
ATOM     13  O   UNL     1       2.289   1.328  18.763  0.00  0.00    +0.000 OA
ATOM     14  H   UNL     1       1.412   0.927  18.942  0.00  0.00    +0.000 HD
ENDBRANCH   4  13
ENDBRANCH   2   3
BRANCH   1  15
ATOM     15  N   UNL     1       5.368   3.013  15.897  0.00  0.00    +0.000 N 
ATOM     16  H   UNL     1       5.660   2.048  15.759  0.00  0.00    +0.000 HD
BRANCH  15  17
ATOM     17  C   UNL     1       5.850   3.974  15.023  0.00  0.00    +0.000 C 
ATOM     18  S   UNL     1       5.612   5.579  15.382  0.00  0.00    +0.000 S 
BRANCH  17  19
ATOM     19  N   UNL     1       6.484   3.414  13.939  0.00  0.00    +0.000 N 
ATOM     20  H   UNL     1       6.986   2.583  14.237  0.00  0.00    +0.000 HD
BRANCH  19  22
ATOM     21  C   UNL     1       7.165   4.685  11.893  0.00  0.00    +0.000 C 
ATOM     22  C   UNL     1       6.295   3.572  12.485  0.00  0.00    +0.000 C 
ATOM     23  C   UNL     1       4.810   3.811  12.179  0.00  0.00    +0.000 C 
ATOM     24  C   UNL     1       6.717   2.247  11.811  0.00  0.00    +0.000 C 
ENDBRANCH  19  22
ENDBRANCH  17  19
ENDBRANCH  15  17
ENDBRANCH   1  15
TORSDOF 6
ENDMDL
MODEL 8
REMARK VINA RESULT:      -6.7      3.597      5.985
REMARK  Name = 
REMARK  9 active torsions:
REMARK  status: ('A' for Active; 'I' for Inactive)
REMARK    1  A    between atoms: C_1  and  C_2
REMARK    2  A    between atoms: C_2  and  C_3
REMARK    3  A    between atoms: C_2  and  C_4
REMARK    4  A    between atoms: C_2  and  N_5
REMARK    5  A    between atoms: N_5  and  C_6
REMARK    6  A    between atoms: C_6  and  N_8
REMARK    7  A    between atoms: N_8  and  N_9
REMARK    8  A    between atoms: C_10  and  C_11
REMARK    9  A    between atoms: C_12  and  O_13
REMARK                            x       y       z     vdW  Elec       q    Type
REMARK                         _______ _______ _______ _____ _____    ______ ____
ROOT
ATOM      1  N   UNL     1       2.414   7.284  18.704  0.00  0.00    +0.000 NA
ATOM      2  C   UNL     1       2.188   7.979  19.775  0.00  0.00    +0.000 C 
ENDROOT
BRANCH   2   3
ATOM      3  C   UNL     1       1.218   9.107  19.728  0.00  0.00    +0.000 A 
ATOM      4  C   UNL     1       0.996   9.754  18.496  0.00  0.00    +0.000 A 
ATOM      5  C   UNL     1       0.081  10.790  18.388  0.00  0.00    +0.000 A 
ATOM      6  C   UNL     1      -0.613  11.209  19.515  0.00  0.00    +0.000 A 
ATOM      7  C   UNL     1      -0.400  10.603  20.764  0.00  0.00    +0.000 A 
ATOM      8  C   UNL     1      -1.113  11.075  21.876  0.00  0.00    +0.000 A 
ATOM      9  C   UNL     1      -0.937  10.509  23.134  0.00  0.00    +0.000 A 
ATOM     10  C   UNL     1      -0.048   9.456  23.293  0.00  0.00    +0.000 A 
ATOM     11  C   UNL     1       0.667   8.970  22.193  0.00  0.00    +0.000 A 
ATOM     12  C   UNL     1       0.521   9.533  20.897  0.00  0.00    +0.000 A 
BRANCH   4  13
ATOM     13  O   UNL     1       1.658   9.445  17.337  0.00  0.00    +0.000 OA
ATOM     14  H   UNL     1       1.321  10.046  16.638  0.00  0.00    +0.000 HD
ENDBRANCH   4  13
ENDBRANCH   2   3
BRANCH   1  15
ATOM     15  N   UNL     1       3.356   6.308  18.795  0.00  0.00    +0.000 N 
ATOM     16  H   UNL     1       4.251   6.487  19.244  0.00  0.00    +0.000 HD
BRANCH  15  17
ATOM     17  C   UNL     1       3.223   5.153  18.038  0.00  0.00    +0.000 C 
ATOM     18  S   UNL     1       4.430   4.749  16.971  0.00  0.00    +0.000 S 
BRANCH  17  19
ATOM     19  N   UNL     1       2.049   4.492  18.310  0.00  0.00    +0.000 N 
ATOM     20  H   UNL     1       1.429   4.565  17.510  0.00  0.00    +0.000 HD
BRANCH  19  22
ATOM     21  C   UNL     1       0.826   2.350  18.741  0.00  0.00    +0.000 C 
ATOM     22  C   UNL     1       1.691   3.476  19.319  0.00  0.00    +0.000 C 
ATOM     23  C   UNL     1       0.997   4.150  20.509  0.00  0.00    +0.000 C 
ATOM     24  C   UNL     1       3.003   2.837  19.826  0.00  0.00    +0.000 C 
ENDBRANCH  19  22
ENDBRANCH  17  19
ENDBRANCH  15  17
ENDBRANCH   1  15
TORSDOF 6
ENDMDL
MODEL 9
REMARK VINA RESULT:      -6.7      4.736      6.764
REMARK  Name = 
REMARK  9 active torsions:
REMARK  status: ('A' for Active; 'I' for Inactive)
REMARK    1  A    between atoms: C_1  and  C_2
REMARK    2  A    between atoms: C_2  and  C_3
REMARK    3  A    between atoms: C_2  and  C_4
REMARK    4  A    between atoms: C_2  and  N_5
REMARK    5  A    between atoms: N_5  and  C_6
REMARK    6  A    between atoms: C_6  and  N_8
REMARK    7  A    between atoms: N_8  and  N_9
REMARK    8  A    between atoms: C_10  and  C_11
REMARK    9  A    between atoms: C_12  and  O_13
REMARK                            x       y       z     vdW  Elec       q    Type
REMARK                         _______ _______ _______ _____ _____    ______ ____
ROOT
ATOM      1  N   UNL     1       2.021   8.441  17.439  0.00  0.00    +0.000 NA
ATOM      2  C   UNL     1       2.628   7.804  18.391  0.00  0.00    +0.000 C 
ENDROOT
BRANCH   2   3
ATOM      3  C   UNL     1       3.102   6.414  18.158  0.00  0.00    +0.000 A 
ATOM      4  C   UNL     1       4.101   6.196  17.187  0.00  0.00    +0.000 A 
ATOM      5  C   UNL     1       4.601   4.924  16.951  0.00  0.00    +0.000 A 
ATOM      6  C   UNL     1       4.096   3.847  17.666  0.00  0.00    +0.000 A 
ATOM      7  C   UNL     1       3.084   4.023  18.623  0.00  0.00    +0.000 A 
ATOM      8  C   UNL     1       2.594   2.900  19.306  0.00  0.00    +0.000 A 
ATOM      9  C   UNL     1       1.591   3.023  20.262  0.00  0.00    +0.000 A 
ATOM     10  C   UNL     1       1.070   4.276  20.552  0.00  0.00    +0.000 A 
ATOM     11  C   UNL     1       1.552   5.407  19.884  0.00  0.00    +0.000 A 
ATOM     12  C   UNL     1       2.565   5.316  18.893  0.00  0.00    +0.000 A 
BRANCH   4  13
ATOM     13  O   UNL     1       4.635   7.183  16.401  0.00  0.00    +0.000 OA
ATOM     14  H   UNL     1       4.863   7.934  16.990  0.00  0.00    +0.000 HD
ENDBRANCH   4  13
ENDBRANCH   2   3
BRANCH   1  15
ATOM     15  N   UNL     1       1.556   9.686  17.734  0.00  0.00    +0.000 N 
ATOM     16  H   UNL     1       2.182  10.487  17.745  0.00  0.00    +0.000 HD
BRANCH  15  17
ATOM     17  C   UNL     1       0.295   9.833  18.291  0.00  0.00    +0.000 C 
ATOM     18  S   UNL     1       0.163  10.074  19.929  0.00  0.00    +0.000 S 
BRANCH  17  19
ATOM     19  N   UNL     1      -0.699   9.754  17.344  0.00  0.00    +0.000 N 
ATOM     20  H   UNL     1      -0.592   8.894  16.816  0.00  0.00    +0.000 HD
BRANCH  19  22
ATOM     21  C   UNL     1      -2.474  10.507  15.747  0.00  0.00    +0.000 C 
ATOM     22  C   UNL     1      -1.993  10.448  17.201  0.00  0.00    +0.000 C 
ATOM     23  C   UNL     1      -1.898  11.853  17.808  0.00  0.00    +0.000 C 
ATOM     24  C   UNL     1      -3.044   9.648  18.003  0.00  0.00    +0.000 C 
ENDBRANCH  19  22
ENDBRANCH  17  19
ENDBRANCH  15  17
ENDBRANCH   1  15
TORSDOF 6
ENDMDL
