MODEL 1
REMARK VINA RESULT:      -6.3      0.000      0.000
REMARK  Name = 
REMARK  2 active torsions:
REMARK  status: ('A' for Active; 'I' for Inactive)
REMARK    1  A    between atoms: N_6  and  C_7
REMARK    2  A    between atoms: C_7  and  C_8
REMARK                            x       y       z     vdW  Elec       q    Type
REMARK                         _______ _______ _______ _____ _____    ______ ____
ROOT
ATOM      1  O   UNL     1       4.496   2.202  21.125  0.00  0.00    +0.000 OA
ATOM      2  S   UNL     1       4.216   2.589  19.760  0.00  0.00    +0.000 S 
ATOM      3  O   UNL     1       3.490   1.750  18.832  0.00  0.00    +0.000 OA
ATOM      4  N   UNL     1       5.542   3.174  19.069  0.00  0.00    +0.000 NA
ATOM      5  C   UNL     1       5.561   4.348  18.551  0.00  0.00    +0.000 C 
ATOM      6  N   UNL     1       4.614   5.354  18.489  0.00  0.00    +0.000 N 
ATOM      7  C   UNL     1       3.488   5.200  19.256  0.00  0.00    +0.000 A 
ATOM      8  C   UNL     1       2.483   6.108  19.545  0.00  0.00    +0.000 A 
ATOM      9 CL   UNL     1       2.291   7.756  19.081  0.00  0.00    +0.000 Cl
ATOM     10  S   UNL     1       1.260   5.481  20.550  0.00  0.00    +0.000 S 
ATOM     11  C   UNL     1       2.033   3.978  20.622  0.00  0.00    +0.000 A 
ATOM     12 CL   UNL     1       1.280   2.719  21.516  0.00  0.00    +0.000 Cl
ATOM     13  C   UNL     1       3.207   3.964  19.917  0.00  0.00    +0.000 A 
ENDROOT
BRANCH   6  14
ATOM     14  C   UNL     1       4.853   6.492  17.583  0.00  0.00    +0.000 C 
BRANCH  14  15
ATOM     15  C   UNL     1       5.264   6.075  16.175  0.00  0.00    +0.000 C 
ATOM     16  F   UNL     1       4.617   4.930  15.831  0.00  0.00    +0.000 F 
ATOM     17  F   UNL     1       4.857   7.024  15.294  0.00  0.00    +0.000 F 
ENDBRANCH  14  15
ENDBRANCH   6  14
TORSDOF 2
ENDMDL
MODEL 2
REMARK VINA RESULT:      -6.2      3.391      4.679
REMARK  Name = 
REMARK  2 active torsions:
REMARK  status: ('A' for Active; 'I' for Inactive)
REMARK    1  A    between atoms: N_6  and  C_7
REMARK    2  A    between atoms: C_7  and  C_8
REMARK                            x       y       z     vdW  Elec       q    Type
REMARK                         _______ _______ _______ _____ _____    ______ ____
ROOT
ATOM      1  O   UNL     1       4.588   3.945  15.922  0.00  0.00    +0.000 OA
ATOM      2  S   UNL     1       4.978   4.015  17.313  0.00  0.00    +0.000 S 
ATOM      3  O   UNL     1       6.308   4.384  17.746  0.00  0.00    +0.000 OA
ATOM      4  N   UNL     1       4.477   2.704  18.094  0.00  0.00    +0.000 NA
ATOM      5  C   UNL     1       3.726   2.791  19.131  0.00  0.00    +0.000 C 
ATOM      6  N   UNL     1       3.144   3.871  19.771  0.00  0.00    +0.000 N 
ATOM      7  C   UNL     1       3.195   5.080  19.126  0.00  0.00    +0.000 A 
ATOM      8  C   UNL     1       2.544   6.266  19.420  0.00  0.00    +0.000 A 
ATOM      9 CL   UNL     1       1.420   6.653  20.668  0.00  0.00    +0.000 Cl
ATOM     10  S   UNL     1       2.906   7.533  18.340  0.00  0.00    +0.000 S 
ATOM     11  C   UNL     1       3.946   6.535  17.456  0.00  0.00    +0.000 A 
ATOM     12 CL   UNL     1       4.776   7.214  16.113  0.00  0.00    +0.000 Cl
ATOM     13  C   UNL     1       3.997   5.262  17.957  0.00  0.00    +0.000 A 
ENDROOT
BRANCH   6  14
ATOM     14  C   UNL     1       2.553   3.663  21.105  0.00  0.00    +0.000 C 
BRANCH  14  15
ATOM     15  C   UNL     1       1.335   2.747  21.097  0.00  0.00    +0.000 C 
ATOM     16  F   UNL     1       0.861   2.607  22.363  0.00  0.00    +0.000 F 
ATOM     17  F   UNL     1       0.342   3.334  20.380  0.00  0.00    +0.000 F 
ENDBRANCH  14  15
ENDBRANCH   6  14
TORSDOF 2
ENDMDL
MODEL 3
REMARK VINA RESULT:      -6.1      2.296      2.511
REMARK  Name = 
REMARK  2 active torsions:
REMARK  status: ('A' for Active; 'I' for Inactive)
REMARK    1  A    between atoms: N_6  and  C_7
REMARK    2  A    between atoms: C_7  and  C_8
REMARK                            x       y       z     vdW  Elec       q    Type
REMARK                         _______ _______ _______ _____ _____    ______ ____
ROOT
ATOM      1  O   UNL     1       2.531   2.326  20.310  0.00  0.00    +0.000 OA
ATOM      2  S   UNL     1       2.328   2.600  18.905  0.00  0.00    +0.000 S 
ATOM      3  O   UNL     1       1.033   2.529  18.263  0.00  0.00    +0.000 OA
ATOM      4  N   UNL     1       3.432   1.833  18.027  0.00  0.00    +0.000 NA
ATOM      5  C   UNL     1       4.199   2.468  17.217  0.00  0.00    +0.000 C 
ATOM      6  N   UNL     1       4.343   3.814  16.932  0.00  0.00    +0.000 N 
ATOM      7  C   UNL     1       3.702   4.699  17.761  0.00  0.00    +0.000 A 
ATOM      8  C   UNL     1       3.818   6.076  17.843  0.00  0.00    +0.000 A 
ATOM      9 CL   UNL     1       4.819   7.174  16.969  0.00  0.00    +0.000 Cl
ATOM     10  S   UNL     1       2.820   6.780  19.030  0.00  0.00    +0.000 S 
ATOM     11  C   UNL     1       2.200   5.266  19.462  0.00  0.00    +0.000 A 
ATOM     12 CL   UNL     1       0.998   5.201  20.688  0.00  0.00    +0.000 Cl
ATOM     13  C   UNL     1       2.758   4.249  18.736  0.00  0.00    +0.000 A 
ENDROOT
BRANCH   6  14
ATOM     14  C   UNL     1       5.130   4.203  15.748  0.00  0.00    +0.000 C 
BRANCH  14  15
ATOM     15  C   UNL     1       6.636   4.093  15.953  0.00  0.00    +0.000 C 
ATOM     16  F   UNL     1       7.281   4.763  14.962  0.00  0.00    +0.000 F 
ATOM     17  F   UNL     1       6.973   4.712  17.114  0.00  0.00    +0.000 F 
ENDBRANCH  14  15
ENDBRANCH   6  14
TORSDOF 2
ENDMDL
MODEL 4
REMARK VINA RESULT:      -5.9      3.850      5.004
REMARK  Name = 
REMARK  2 active torsions:
REMARK  status: ('A' for Active; 'I' for Inactive)
REMARK    1  A    between atoms: N_6  and  C_7
REMARK    2  A    between atoms: C_7  and  C_8
REMARK                            x       y       z     vdW  Elec       q    Type
REMARK                         _______ _______ _______ _____ _____    ______ ____
ROOT
ATOM      1  O   UNL     1       7.550   5.662  14.967  0.00  0.00    +0.000 OA
ATOM      2  S   UNL     1       7.116   4.785  16.032  0.00  0.00    +0.000 S 
ATOM      3  O   UNL     1       7.969   4.393  17.133  0.00  0.00    +0.000 OA
ATOM      4  N   UNL     1       6.365   3.504  15.420  0.00  0.00    +0.000 NA
ATOM      5  C   UNL     1       5.168   3.203  15.770  0.00  0.00    +0.000 C 
ATOM      6  N   UNL     1       4.258   3.825  16.606  0.00  0.00    +0.000 N 
ATOM      7  C   UNL     1       4.566   5.092  17.032  0.00  0.00    +0.000 A 
ATOM      8  C   UNL     1       3.779   6.017  17.697  0.00  0.00    +0.000 A 
ATOM      9 CL   UNL     1       2.134   5.935  18.204  0.00  0.00    +0.000 Cl
ATOM     10  S   UNL     1       4.579   7.482  18.035  0.00  0.00    +0.000 S 
ATOM     11  C   UNL     1       5.999   6.919  17.309  0.00  0.00    +0.000 A 
ATOM     12 CL   UNL     1       7.376   7.948  17.312  0.00  0.00    +0.000 Cl
ATOM     13  C   UNL     1       5.859   5.656  16.801  0.00  0.00    +0.000 A 
ENDROOT
BRANCH   6  14
ATOM     14  C   UNL     1       3.053   3.080  17.014  0.00  0.00    +0.000 C 
BRANCH  14  15
ATOM     15  C   UNL     1       3.218   2.324  18.327  0.00  0.00    +0.000 C 
ATOM     16  F   UNL     1       1.997   2.099  18.881  0.00  0.00    +0.000 F 
ATOM     17  F   UNL     1       3.753   1.102  18.071  0.00  0.00    +0.000 F 
ENDBRANCH  14  15
ENDBRANCH   6  14
TORSDOF 2
ENDMDL
MODEL 5
REMARK VINA RESULT:      -5.8      2.001      2.172
REMARK  Name = 
REMARK  2 active torsions:
REMARK  status: ('A' for Active; 'I' for Inactive)
REMARK    1  A    between atoms: N_6  and  C_7
REMARK    2  A    between atoms: C_7  and  C_8
REMARK                            x       y       z     vdW  Elec       q    Type
REMARK                         _______ _______ _______ _____ _____    ______ ____
ROOT
ATOM      1  O   UNL     1       3.112   2.237  19.924  0.00  0.00    +0.000 OA
ATOM      2  S   UNL     1       2.828   2.651  18.567  0.00  0.00    +0.000 S 
ATOM      3  O   UNL     1       1.563   2.403  17.911  0.00  0.00    +0.000 OA
ATOM      4  N   UNL     1       4.048   2.254  17.602  0.00  0.00    +0.000 NA
ATOM      5  C   UNL     1       4.652   3.136  16.893  0.00  0.00    +0.000 C 
ATOM      6  N   UNL     1       4.511   4.509  16.796  0.00  0.00    +0.000 N 
ATOM      7  C   UNL     1       3.719   5.123  17.733  0.00  0.00    +0.000 A 
ATOM      8  C   UNL     1       3.552   6.470  18.003  0.00  0.00    +0.000 A 
ATOM      9 CL   UNL     1       4.289   7.858  17.295  0.00  0.00    +0.000 Cl
ATOM     10  S   UNL     1       2.455   6.786  19.267  0.00  0.00    +0.000 S 
ATOM     11  C   UNL     1       2.168   5.133  19.483  0.00  0.00    +0.000 A 
ATOM     12 CL   UNL     1       1.030   4.656  20.679  0.00  0.00    +0.000 Cl
ATOM     13  C   UNL     1       2.908   4.361  18.629  0.00  0.00    +0.000 A 
ENDROOT
BRANCH   6  14
ATOM     14  C   UNL     1       5.177   5.209  15.682  0.00  0.00    +0.000 C 
BRANCH  14  15
ATOM     15  C   UNL     1       5.935   4.278  14.743  0.00  0.00    +0.000 C 
ATOM     16  F   UNL     1       5.212   4.088  13.607  0.00  0.00    +0.000 F 
ATOM     17  F   UNL     1       7.092   4.877  14.363  0.00  0.00    +0.000 F 
ENDBRANCH  14  15
ENDBRANCH   6  14
TORSDOF 2
ENDMDL
MODEL 6
REMARK VINA RESULT:      -5.8      3.412      4.241
REMARK  Name = 
REMARK  2 active torsions:
REMARK  status: ('A' for Active; 'I' for Inactive)
REMARK    1  A    between atoms: N_6  and  C_7
REMARK    2  A    between atoms: C_7  and  C_8
REMARK                            x       y       z     vdW  Elec       q    Type
REMARK                         _______ _______ _______ _____ _____    ______ ____
ROOT
ATOM      1  O   UNL     1       1.190   1.933  19.478  0.00  0.00    +0.000 OA
ATOM      2  S   UNL     1       1.989   2.887  20.214  0.00  0.00    +0.000 S 
ATOM      3  O   UNL     1       3.006   2.500  21.168  0.00  0.00    +0.000 OA
ATOM      4  N   UNL     1       1.050   4.035  20.830  0.00  0.00    +0.000 NA
ATOM      5  C   UNL     1       1.255   5.275  20.571  0.00  0.00    +0.000 C 
ATOM      6  N   UNL     1       2.168   5.916  19.754  0.00  0.00    +0.000 N 
ATOM      7  C   UNL     1       2.901   5.132  18.900  0.00  0.00    +0.000 A 
ATOM      8  C   UNL     1       3.727   5.499  17.851  0.00  0.00    +0.000 A 
ATOM      9 CL   UNL     1       4.115   7.054  17.217  0.00  0.00    +0.000 Cl
ATOM     10  S   UNL     1       4.448   4.180  17.051  0.00  0.00    +0.000 S 
ATOM     11  C   UNL     1       3.683   3.083  18.087  0.00  0.00    +0.000 A 
ATOM     12 CL   UNL     1       4.003   1.408  17.876  0.00  0.00    +0.000 Cl
ATOM     13  C   UNL     1       2.879   3.706  19.003  0.00  0.00    +0.000 A 
ENDROOT
BRANCH   6  14
ATOM     14  C   UNL     1       2.323   7.377  19.881  0.00  0.00    +0.000 C 
BRANCH  14  15
ATOM     15  C   UNL     1       1.276   8.026  20.779  0.00  0.00    +0.000 C 
ATOM     16  F   UNL     1       1.893   8.674  21.803  0.00  0.00    +0.000 F 
ATOM     17  F   UNL     1       0.611   8.975  20.071  0.00  0.00    +0.000 F 
ENDBRANCH  14  15
ENDBRANCH   6  14
TORSDOF 2
ENDMDL
MODEL 7
REMARK VINA RESULT:      -5.8      2.774      3.658
REMARK  Name = 
REMARK  2 active torsions:
REMARK  status: ('A' for Active; 'I' for Inactive)
REMARK    1  A    between atoms: N_6  and  C_7
REMARK    2  A    between atoms: C_7  and  C_8
REMARK                            x       y       z     vdW  Elec       q    Type
REMARK                         _______ _______ _______ _____ _____    ______ ____
ROOT
ATOM      1  O   UNL     1       1.084   2.190  19.701  0.00  0.00    +0.000 OA
ATOM      2  S   UNL     1       1.992   3.130  20.318  0.00  0.00    +0.000 S 
ATOM      3  O   UNL     1       2.959   2.753  21.327  0.00  0.00    +0.000 OA
ATOM      4  N   UNL     1       1.198   4.452  20.768  0.00  0.00    +0.000 NA
ATOM      5  C   UNL     1       1.549   5.614  20.353  0.00  0.00    +0.000 C 
ATOM      6  N   UNL     1       2.530   6.031  19.471  0.00  0.00    +0.000 N 
ATOM      7  C   UNL     1       3.162   5.061  18.736  0.00  0.00    +0.000 A 
ATOM      8  C   UNL     1       4.024   5.188  17.660  0.00  0.00    +0.000 A 
ATOM      9 CL   UNL     1       4.592   6.591  16.835  0.00  0.00    +0.000 Cl
ATOM     10  S   UNL     1       4.581   3.700  17.047  0.00  0.00    +0.000 S 
ATOM     11  C   UNL     1       3.692   2.846  18.205  0.00  0.00    +0.000 A 
ATOM     12 CL   UNL     1       3.811   1.131  18.217  0.00  0.00    +0.000 Cl
ATOM     13  C   UNL     1       2.971   3.674  19.023  0.00  0.00    +0.000 A 
ENDROOT
BRANCH   6  14
ATOM     14  C   UNL     1       2.858   7.467  19.411  0.00  0.00    +0.000 C 
BRANCH  14  15
ATOM     15  C   UNL     1       1.907   8.274  18.534  0.00  0.00    +0.000 C 
ATOM     16  F   UNL     1       2.550   9.370  18.052  0.00  0.00    +0.000 F 
ATOM     17  F   UNL     1       1.559   7.529  17.454  0.00  0.00    +0.000 F 
ENDBRANCH  14  15
ENDBRANCH   6  14
TORSDOF 2
ENDMDL
MODEL 8
REMARK VINA RESULT:      -5.7      2.312      2.733
REMARK  Name = 
REMARK  2 active torsions:
REMARK  status: ('A' for Active; 'I' for Inactive)
REMARK    1  A    between atoms: N_6  and  C_7
REMARK    2  A    between atoms: C_7  and  C_8
REMARK                            x       y       z     vdW  Elec       q    Type
REMARK                         _______ _______ _______ _____ _____    ______ ____
ROOT
ATOM      1  O   UNL     1       2.605   3.886  21.366  0.00  0.00    +0.000 OA
ATOM      2  S   UNL     1       2.258   3.657  19.980  0.00  0.00    +0.000 S 
ATOM      3  O   UNL     1       0.900   3.456  19.526  0.00  0.00    +0.000 OA
ATOM      4  N   UNL     1       3.233   2.552  19.343  0.00  0.00    +0.000 NA
ATOM      5  C   UNL     1       3.929   2.801  18.294  0.00  0.00    +0.000 C 
ATOM      6  N   UNL     1       4.087   3.945  17.531  0.00  0.00    +0.000 N 
ATOM      7  C   UNL     1       3.571   5.110  18.040  0.00  0.00    +0.000 A 
ATOM      8  C   UNL     1       3.743   6.414  17.609  0.00  0.00    +0.000 A 
ATOM      9 CL   UNL     1       4.680   7.056  16.312  0.00  0.00    +0.000 Cl
ATOM     10  S   UNL     1       2.906   7.563  18.547  0.00  0.00    +0.000 S 
ATOM     11  C   UNL     1       2.285   6.350  19.548  0.00  0.00    +0.000 A 
ATOM     12 CL   UNL     1       1.222   6.810  20.819  0.00  0.00    +0.000 Cl
ATOM     13  C   UNL     1       2.725   5.104  19.191  0.00  0.00    +0.000 A 
ENDROOT
BRANCH   6  14
ATOM     14  C   UNL     1       4.753   3.831  16.221  0.00  0.00    +0.000 C 
BRANCH  14  15
ATOM     15  C   UNL     1       6.274   3.896  16.302  0.00  0.00    +0.000 C 
ATOM     16  F   UNL     1       6.758   4.591  15.239  0.00  0.00    +0.000 F 
ATOM     17  F   UNL     1       6.630   4.594  17.410  0.00  0.00    +0.000 F 
ENDBRANCH  14  15
ENDBRANCH   6  14
TORSDOF 2
ENDMDL
MODEL 9
REMARK VINA RESULT:      -5.6      3.528      4.664
REMARK  Name = 
REMARK  2 active torsions:
REMARK  status: ('A' for Active; 'I' for Inactive)
REMARK    1  A    between atoms: N_6  and  C_7
REMARK    2  A    between atoms: C_7  and  C_8
REMARK                            x       y       z     vdW  Elec       q    Type
REMARK                         _______ _______ _______ _____ _____    ______ ____
ROOT
ATOM      1  O   UNL     1       7.137   4.182  17.782  0.00  0.00    +0.000 OA
ATOM      2  S   UNL     1       6.363   4.591  18.932  0.00  0.00    +0.000 S 
ATOM      3  O   UNL     1       6.935   5.285  20.066  0.00  0.00    +0.000 OA
ATOM      4  N   UNL     1       5.428   3.383  19.427  0.00  0.00    +0.000 NA
ATOM      5  C   UNL     1       4.156   3.523  19.527  0.00  0.00    +0.000 C 
ATOM      6  N   UNL     1       3.308   4.573  19.225  0.00  0.00    +0.000 N 
ATOM      7  C   UNL     1       3.840   5.623  18.521  0.00  0.00    +0.000 A 
ATOM      8  C   UNL     1       3.206   6.696  17.919  0.00  0.00    +0.000 A 
ATOM      9 CL   UNL     1       1.532   7.092  17.804  0.00  0.00    +0.000 Cl
ATOM     10  S   UNL     1       4.270   7.777  17.145  0.00  0.00    +0.000 S 
ATOM     11  C   UNL     1       5.607   6.846  17.598  0.00  0.00    +0.000 A 
ATOM     12 CL   UNL     1       7.172   7.400  17.152  0.00  0.00    +0.000 Cl
ATOM     13  C   UNL     1       5.248   5.727  18.301  0.00  0.00    +0.000 A 
ENDROOT
BRANCH   6  14
ATOM     14  C   UNL     1       1.917   4.516  19.709  0.00  0.00    +0.000 C 
BRANCH  14  15
ATOM     15  C   UNL     1       1.467   3.117  20.113  0.00  0.00    +0.000 C 
ATOM     16  F   UNL     1       1.017   3.135  21.396  0.00  0.00    +0.000 F 
ATOM     17  F   UNL     1       0.412   2.749  19.343  0.00  0.00    +0.000 F 
ENDBRANCH  14  15
ENDBRANCH   6  14
TORSDOF 2
ENDMDL
