MODEL 1
REMARK VINA RESULT:      -6.3      0.000      0.000
REMARK  Name = 
REMARK  5 active torsions:
REMARK  status: ('A' for Active; 'I' for Inactive)
REMARK    1  A    between atoms: C_1  and  C_2
REMARK    2  A    between atoms: C_2  and  C_3
REMARK    3  A    between atoms: C_3  and  C_4
REMARK    4  A    between atoms: C_6  and  C_7
REMARK    5  A    between atoms: C_12  and  O_13
REMARK                            x       y       z     vdW  Elec       q    Type
REMARK                         _______ _______ _______ _____ _____    ______ ____
ROOT
ATOM      1  C   UNL     1       4.022   4.639  17.266  0.00  0.00    +0.000 A 
ATOM      2  N   UNL     1       4.294   4.286  16.018  0.00  0.00    +0.000 NA
ATOM      3  C   UNL     1       5.661   4.224  15.912  0.00  0.00    +0.000 A 
ATOM      4  C   UNL     1       6.311   3.870  14.632  0.00  0.00    +0.000 C 
ATOM      5  C   UNL     1       6.226   4.545  17.120  0.00  0.00    +0.000 A 
ATOM      6  C   UNL     1       7.561   4.657  17.600  0.00  0.00    +0.000 A 
ATOM      7  N   UNL     1       7.811   5.005  18.829  0.00  0.00    +0.000 NA
ATOM      8  N   UNL     1       6.723   5.281  19.721  0.00  0.00    +0.000 NA
ATOM      9  C   UNL     1       5.514   5.175  19.277  0.00  0.00    +0.000 A 
ATOM     10  N   UNL     1       5.193   4.808  17.980  0.00  0.00    +0.000 N 
ENDROOT
BRANCH   9  11
ATOM     11  O   UNL     1       4.456   5.424  20.065  0.00  0.00    +0.000 OA
ATOM     12  H   UNL     1       3.841   4.675  19.962  0.00  0.00    +0.000 HD
ENDBRANCH   9  11
BRANCH   1  13
ATOM     13  C   UNL     1       2.633   4.866  17.771  0.00  0.00    +0.000 C 
BRANCH  13  15
ATOM     14  C   UNL     1       1.194   3.501  19.400  0.00  0.00    +0.000 C 
ATOM     15  C   UNL     1       1.845   3.578  18.023  0.00  0.00    +0.000 C 
ENDBRANCH  13  15
ENDBRANCH   1  13
TORSDOF 3
ENDMDL
MODEL 2
REMARK VINA RESULT:      -6.2      1.645      3.908
REMARK  Name = 
REMARK  5 active torsions:
REMARK  status: ('A' for Active; 'I' for Inactive)
REMARK    1  A    between atoms: C_1  and  C_2
REMARK    2  A    between atoms: C_2  and  C_3
REMARK    3  A    between atoms: C_3  and  C_4
REMARK    4  A    between atoms: C_6  and  C_7
REMARK    5  A    between atoms: C_12  and  O_13
REMARK                            x       y       z     vdW  Elec       q    Type
REMARK                         _______ _______ _______ _____ _____    ______ ____
ROOT
ATOM      1  C   UNL     1       5.399   4.056  16.067  0.00  0.00    +0.000 A 
ATOM      2  N   UNL     1       4.080   4.119  16.175  0.00  0.00    +0.000 NA
ATOM      3  C   UNL     1       3.806   4.570  17.442  0.00  0.00    +0.000 A 
ATOM      4  C   UNL     1       2.412   4.742  17.905  0.00  0.00    +0.000 C 
ATOM      5  C   UNL     1       4.983   4.786  18.112  0.00  0.00    +0.000 A 
ATOM      6  C   UNL     1       5.320   5.231  19.421  0.00  0.00    +0.000 A 
ATOM      7  N   UNL     1       6.560   5.331  19.803  0.00  0.00    +0.000 NA
ATOM      8  N   UNL     1       7.611   4.987  18.890  0.00  0.00    +0.000 NA
ATOM      9  C   UNL     1       7.296   4.586  17.703  0.00  0.00    +0.000 A 
ATOM     10  N   UNL     1       5.994   4.463  17.246  0.00  0.00    +0.000 N 
ENDROOT
BRANCH   9  11
ATOM     11  O   UNL     1       8.237   4.249  16.807  0.00  0.00    +0.000 OA
ATOM     12  H   UNL     1       8.188   4.900  16.083  0.00  0.00    +0.000 HD
ENDBRANCH   9  11
BRANCH   1  13
ATOM     13  C   UNL     1       6.100   3.559  14.844  0.00  0.00    +0.000 C 
BRANCH  13  15
ATOM     14  C   UNL     1       5.828   3.285  12.306  0.00  0.00    +0.000 C 
ATOM     15  C   UNL     1       5.563   4.147  13.536  0.00  0.00    +0.000 C 
ENDBRANCH  13  15
ENDBRANCH   1  13
TORSDOF 3
ENDMDL
MODEL 3
REMARK VINA RESULT:      -6.2      2.241      4.209
REMARK  Name = 
REMARK  5 active torsions:
REMARK  status: ('A' for Active; 'I' for Inactive)
REMARK    1  A    between atoms: C_1  and  C_2
REMARK    2  A    between atoms: C_2  and  C_3
REMARK    3  A    between atoms: C_3  and  C_4
REMARK    4  A    between atoms: C_6  and  C_7
REMARK    5  A    between atoms: C_12  and  O_13
REMARK                            x       y       z     vdW  Elec       q    Type
REMARK                         _______ _______ _______ _____ _____    ______ ____
ROOT
ATOM      1  C   UNL     1       7.117   6.039  17.179  0.00  0.00    +0.000 A 
ATOM      2  N   UNL     1       7.374   5.914  15.884  0.00  0.00    +0.000 NA
ATOM      3  C   UNL     1       6.542   4.933  15.407  0.00  0.00    +0.000 A 
ATOM      4  C   UNL     1       6.579   4.526  13.986  0.00  0.00    +0.000 C 
ATOM      5  C   UNL     1       5.767   4.455  16.434  0.00  0.00    +0.000 A 
ATOM      6  C   UNL     1       4.760   3.456  16.543  0.00  0.00    +0.000 A 
ATOM      7  N   UNL     1       4.186   3.197  17.682  0.00  0.00    +0.000 NA
ATOM      8  N   UNL     1       4.571   3.930  18.852  0.00  0.00    +0.000 NA
ATOM      9  C   UNL     1       5.485   4.837  18.742  0.00  0.00    +0.000 A 
ATOM     10  N   UNL     1       6.127   5.153  17.556  0.00  0.00    +0.000 N 
ENDROOT
BRANCH   9  11
ATOM     11  O   UNL     1       5.889   5.553  19.804  0.00  0.00    +0.000 OA
ATOM     12  H   UNL     1       5.087   5.904  20.233  0.00  0.00    +0.000 HD
ENDBRANCH   9  11
BRANCH   1  13
ATOM     13  C   UNL     1       7.858   6.979  18.075  0.00  0.00    +0.000 C 
BRANCH  13  15
ATOM     14  C   UNL     1       8.642   9.390  18.474  0.00  0.00    +0.000 C 
ATOM     15  C   UNL     1       7.798   8.442  17.629  0.00  0.00    +0.000 C 
ENDBRANCH  13  15
ENDBRANCH   1  13
TORSDOF 3
ENDMDL
MODEL 4
REMARK VINA RESULT:      -6.0      2.191      3.076
REMARK  Name = 
REMARK  5 active torsions:
REMARK  status: ('A' for Active; 'I' for Inactive)
REMARK    1  A    between atoms: C_1  and  C_2
REMARK    2  A    between atoms: C_2  and  C_3
REMARK    3  A    between atoms: C_3  and  C_4
REMARK    4  A    between atoms: C_6  and  C_7
REMARK    5  A    between atoms: C_12  and  O_13
REMARK                            x       y       z     vdW  Elec       q    Type
REMARK                         _______ _______ _______ _____ _____    ______ ____
ROOT
ATOM      1  C   UNL     1       3.004   4.954  19.568  0.00  0.00    +0.000 A 
ATOM      2  N   UNL     1       2.314   6.044  19.262  0.00  0.00    +0.000 NA
ATOM      3  C   UNL     1       3.094   6.782  18.408  0.00  0.00    +0.000 A 
ATOM      4  C   UNL     1       2.627   8.081  17.879  0.00  0.00    +0.000 C 
ATOM      5  C   UNL     1       4.280   6.125  18.194  0.00  0.00    +0.000 A 
ATOM      6  C   UNL     1       5.450   6.401  17.433  0.00  0.00    +0.000 A 
ATOM      7  N   UNL     1       6.460   5.580  17.426  0.00  0.00    +0.000 NA
ATOM      8  N   UNL     1       6.397   4.373  18.197  0.00  0.00    +0.000 NA
ATOM      9  C   UNL     1       5.329   4.130  18.883  0.00  0.00    +0.000 A 
ATOM     10  N   UNL     1       4.227   4.968  18.925  0.00  0.00    +0.000 N 
ENDROOT
BRANCH   9  11
ATOM     11  O   UNL     1       5.214   3.018  19.626  0.00  0.00    +0.000 OA
ATOM     12  H   UNL     1       5.931   2.417  19.352  0.00  0.00    +0.000 HD
ENDBRANCH   9  11
BRANCH   1  13
ATOM     13  C   UNL     1       2.513   3.913  20.522  0.00  0.00    +0.000 C 
BRANCH  13  15
ATOM     14  C   UNL     1       0.892   2.581  19.043  0.00  0.00    +0.000 C 
ATOM     15  C   UNL     1       1.070   3.469  20.271  0.00  0.00    +0.000 C 
ENDBRANCH  13  15
ENDBRANCH   1  13
TORSDOF 3
ENDMDL
MODEL 5
REMARK VINA RESULT:      -6.0      1.865      3.829
REMARK  Name = 
REMARK  5 active torsions:
REMARK  status: ('A' for Active; 'I' for Inactive)
REMARK    1  A    between atoms: C_1  and  C_2
REMARK    2  A    between atoms: C_2  and  C_3
REMARK    3  A    between atoms: C_3  and  C_4
REMARK    4  A    between atoms: C_6  and  C_7
REMARK    5  A    between atoms: C_12  and  O_13
REMARK                            x       y       z     vdW  Elec       q    Type
REMARK                         _______ _______ _______ _____ _____    ______ ____
ROOT
ATOM      1  C   UNL     1       5.321   4.659  15.976  0.00  0.00    +0.000 A 
ATOM      2  N   UNL     1       4.327   3.852  16.317  0.00  0.00    +0.000 NA
ATOM      3  C   UNL     1       4.364   3.732  17.684  0.00  0.00    +0.000 A 
ATOM      4  C   UNL     1       3.392   2.879  18.401  0.00  0.00    +0.000 C 
ATOM      5  C   UNL     1       5.400   4.482  18.179  0.00  0.00    +0.000 A 
ATOM      6  C   UNL     1       5.921   4.732  19.479  0.00  0.00    +0.000 A 
ATOM      7  N   UNL     1       6.956   5.500  19.657  0.00  0.00    +0.000 NA
ATOM      8  N   UNL     1       7.588   6.110  18.523  0.00  0.00    +0.000 NA
ATOM      9  C   UNL     1       7.107   5.880  17.347  0.00  0.00    +0.000 A 
ATOM     10  N   UNL     1       6.008   5.072  17.102  0.00  0.00    +0.000 N 
ENDROOT
BRANCH   9  11
ATOM     11  O   UNL     1       7.658   6.421  16.248  0.00  0.00    +0.000 OA
ATOM     12  H   UNL     1       7.760   5.703  15.597  0.00  0.00    +0.000 HD
ENDBRANCH   9  11
BRANCH   1  13
ATOM     13  C   UNL     1       5.649   5.003  14.559  0.00  0.00    +0.000 C 
BRANCH  13  15
ATOM     14  C   UNL     1       5.750   3.449  12.518  0.00  0.00    +0.000 C 
ATOM     15  C   UNL     1       6.414   3.907  13.813  0.00  0.00    +0.000 C 
ENDBRANCH  13  15
ENDBRANCH   1  13
TORSDOF 3
ENDMDL
MODEL 6
REMARK VINA RESULT:      -5.8      2.337      4.544
REMARK  Name = 
REMARK  5 active torsions:
REMARK  status: ('A' for Active; 'I' for Inactive)
REMARK    1  A    between atoms: C_1  and  C_2
REMARK    2  A    between atoms: C_2  and  C_3
REMARK    3  A    between atoms: C_3  and  C_4
REMARK    4  A    between atoms: C_6  and  C_7
REMARK    5  A    between atoms: C_12  and  O_13
REMARK                            x       y       z     vdW  Elec       q    Type
REMARK                         _______ _______ _______ _____ _____    ______ ____
ROOT
ATOM      1  C   UNL     1       4.933   5.207  18.073  0.00  0.00    +0.000 A 
ATOM      2  N   UNL     1       4.456   6.381  17.686  0.00  0.00    +0.000 NA
ATOM      3  C   UNL     1       3.278   6.574  18.364  0.00  0.00    +0.000 A 
ATOM      4  C   UNL     1       2.469   7.793  18.152  0.00  0.00    +0.000 C 
ATOM      5  C   UNL     1       3.039   5.496  19.177  0.00  0.00    +0.000 A 
ATOM      6  C   UNL     1       1.999   5.137  20.080  0.00  0.00    +0.000 A 
ATOM      7  N   UNL     1       2.026   4.009  20.727  0.00  0.00    +0.000 NA
ATOM      8  N   UNL     1       3.122   3.106  20.531  0.00  0.00    +0.000 NA
ATOM      9  C   UNL     1       4.062   3.441  19.710  0.00  0.00    +0.000 A 
ATOM     10  N   UNL     1       4.084   4.628  18.997  0.00  0.00    +0.000 N 
ENDROOT
BRANCH   9  11
ATOM     11  O   UNL     1       5.111   2.634  19.483  0.00  0.00    +0.000 OA
ATOM     12  H   UNL     1       4.950   1.811  19.979  0.00  0.00    +0.000 HD
ENDBRANCH   9  11
BRANCH   1  13
ATOM     13  C   UNL     1       6.186   4.608  17.521  0.00  0.00    +0.000 C 
BRANCH  13  15
ATOM     14  C   UNL     1       7.706   5.760  19.240  0.00  0.00    +0.000 C 
ATOM     15  C   UNL     1       7.441   5.449  17.770  0.00  0.00    +0.000 C 
ENDBRANCH  13  15
ENDBRANCH   1  13
TORSDOF 3
ENDMDL
MODEL 7
REMARK VINA RESULT:      -5.7      2.221      2.956
REMARK  Name = 
REMARK  5 active torsions:
REMARK  status: ('A' for Active; 'I' for Inactive)
REMARK    1  A    between atoms: C_1  and  C_2
REMARK    2  A    between atoms: C_2  and  C_3
REMARK    3  A    between atoms: C_3  and  C_4
REMARK    4  A    between atoms: C_6  and  C_7
REMARK    5  A    between atoms: C_12  and  O_13
REMARK                            x       y       z     vdW  Elec       q    Type
REMARK                         _______ _______ _______ _____ _____    ______ ____
ROOT
ATOM      1  C   UNL     1       2.546   4.547  18.678  0.00  0.00    +0.000 A 
ATOM      2  N   UNL     1       1.997   5.709  18.353  0.00  0.00    +0.000 NA
ATOM      3  C   UNL     1       3.028   6.575  18.089  0.00  0.00    +0.000 A 
ATOM      4  C   UNL     1       2.764   7.979  17.707  0.00  0.00    +0.000 C 
ATOM      5  C   UNL     1       4.223   5.924  18.257  0.00  0.00    +0.000 A 
ATOM      6  C   UNL     1       5.591   6.301  18.139  0.00  0.00    +0.000 A 
ATOM      7  N   UNL     1       6.548   5.453  18.380  0.00  0.00    +0.000 NA
ATOM      8  N   UNL     1       6.225   4.112  18.771  0.00  0.00    +0.000 NA
ATOM      9  C   UNL     1       4.980   3.779  18.874  0.00  0.00    +0.000 A 
ATOM     10  N   UNL     1       3.924   4.640  18.629  0.00  0.00    +0.000 N 
ENDROOT
BRANCH   9  11
ATOM     11  O   UNL     1       4.617   2.539  19.239  0.00  0.00    +0.000 OA
ATOM     12  H   UNL     1       3.739   2.611  19.656  0.00  0.00    +0.000 HD
ENDBRANCH   9  11
BRANCH   1  13
ATOM     13  C   UNL     1       1.750   3.349  19.086  0.00  0.00    +0.000 C 
BRANCH  13  15
ATOM     14  C   UNL     1       2.072   3.265  21.632  0.00  0.00    +0.000 C 
ATOM     15  C   UNL     1       1.106   3.472  20.469  0.00  0.00    +0.000 C 
ENDBRANCH  13  15
ENDBRANCH   1  13
TORSDOF 3
ENDMDL
MODEL 8
REMARK VINA RESULT:      -5.7      2.386      4.766
REMARK  Name = 
REMARK  5 active torsions:
REMARK  status: ('A' for Active; 'I' for Inactive)
REMARK    1  A    between atoms: C_1  and  C_2
REMARK    2  A    between atoms: C_2  and  C_3
REMARK    3  A    between atoms: C_3  and  C_4
REMARK    4  A    between atoms: C_6  and  C_7
REMARK    5  A    between atoms: C_12  and  O_13
REMARK                            x       y       z     vdW  Elec       q    Type
REMARK                         _______ _______ _______ _____ _____    ______ ____
ROOT
ATOM      1  C   UNL     1       4.264   4.512  17.237  0.00  0.00    +0.000 A 
ATOM      2  N   UNL     1       4.011   5.812  17.286  0.00  0.00    +0.000 NA
ATOM      3  C   UNL     1       2.967   5.981  18.160  0.00  0.00    +0.000 A 
ATOM      4  C   UNL     1       2.415   7.325  18.438  0.00  0.00    +0.000 C 
ATOM      5  C   UNL     1       2.582   4.759  18.650  0.00  0.00    +0.000 A 
ATOM      6  C   UNL     1       1.577   4.319  19.556  0.00  0.00    +0.000 A 
ATOM      7  N   UNL     1       1.425   3.056  19.835  0.00  0.00    +0.000 NA
ATOM      8  N   UNL     1       2.285   2.087  19.220  0.00  0.00    +0.000 NA
ATOM      9  C   UNL     1       3.195   2.498  18.400  0.00  0.00    +0.000 A 
ATOM     10  N   UNL     1       3.400   3.827  18.070  0.00  0.00    +0.000 N 
ENDROOT
BRANCH   9  11
ATOM     11  O   UNL     1       4.027   1.636  17.793  0.00  0.00    +0.000 OA
ATOM     12  H   UNL     1       4.899   2.068  17.745  0.00  0.00    +0.000 HD
ENDBRANCH   9  11
BRANCH   1  13
ATOM     13  C   UNL     1       5.308   3.912  16.352  0.00  0.00    +0.000 C 
BRANCH  13  15
ATOM     14  C   UNL     1       6.076   3.946  13.902  0.00  0.00    +0.000 C 
ATOM     15  C   UNL     1       5.640   4.757  15.119  0.00  0.00    +0.000 C 
ENDBRANCH  13  15
ENDBRANCH   1  13
TORSDOF 3
ENDMDL
MODEL 9
REMARK VINA RESULT:      -5.7      2.316      4.570
REMARK  Name = 
REMARK  5 active torsions:
REMARK  status: ('A' for Active; 'I' for Inactive)
REMARK    1  A    between atoms: C_1  and  C_2
REMARK    2  A    between atoms: C_2  and  C_3
REMARK    3  A    between atoms: C_3  and  C_4
REMARK    4  A    between atoms: C_6  and  C_7
REMARK    5  A    between atoms: C_12  and  O_13
REMARK                            x       y       z     vdW  Elec       q    Type
REMARK                         _______ _______ _______ _____ _____    ______ ____
ROOT
ATOM      1  C   UNL     1       4.950   6.196  17.538  0.00  0.00    +0.000 A 
ATOM      2  N   UNL     1       4.220   7.277  17.303  0.00  0.00    +0.000 NA
ATOM      3  C   UNL     1       3.081   7.160  18.060  0.00  0.00    +0.000 A 
ATOM      4  C   UNL     1       2.031   8.200  18.022  0.00  0.00    +0.000 C 
ATOM      5  C   UNL     1       3.124   5.985  18.767  0.00  0.00    +0.000 A 
ATOM      6  C   UNL     1       2.247   5.339  19.682  0.00  0.00    +0.000 A 
ATOM      7  N   UNL     1       2.547   4.185  20.205  0.00  0.00    +0.000 NA
ATOM      8  N   UNL     1       3.784   3.550  19.855  0.00  0.00    +0.000 NA
ATOM      9  C   UNL     1       4.574   4.145  19.024  0.00  0.00    +0.000 A 
ATOM     10  N   UNL     1       4.305   5.372  18.441  0.00  0.00    +0.000 N 
ENDROOT
BRANCH   9  11
ATOM     11  O   UNL     1       5.744   3.597  18.658  0.00  0.00    +0.000 OA
ATOM     12  H   UNL     1       5.535   2.768  18.190  0.00  0.00    +0.000 HD
ENDBRANCH   9  11
BRANCH   1  13
ATOM     13  C   UNL     1       6.253   5.922  16.859  0.00  0.00    +0.000 C 
BRANCH  13  15
ATOM     14  C   UNL     1       7.902   6.377  18.774  0.00  0.00    +0.000 C 
ATOM     15  C   UNL     1       7.417   6.768  17.381  0.00  0.00    +0.000 C 
ENDBRANCH  13  15
ENDBRANCH   1  13
TORSDOF 3
ENDMDL
