MODEL 1
REMARK VINA RESULT:      -5.9      0.000      0.000
REMARK  Name = 
REMARK  9 active torsions:
REMARK  status: ('A' for Active; 'I' for Inactive)
REMARK    1  A    between atoms: C_1  and  C_2
REMARK    2  A    between atoms: C_2  and  O_4
REMARK    3  A    between atoms: O_4  and  C_5
REMARK    4  A    between atoms: C_5  and  C_6
REMARK    5  A    between atoms: C_6  and  C_8
REMARK    6  A    between atoms: C_8  and  O_9
REMARK    7  A    between atoms: C_23  and  C_24
REMARK    8  A    between atoms: C_26  and  O_27
REMARK    9  A    between atoms: C_29  and  C_30
REMARK                            x       y       z     vdW  Elec       q    Type
REMARK                         _______ _______ _______ _____ _____    ______ ____
ROOT
ATOM      1  C   UNL     1      10.224  16.077  18.231  0.00  0.00    +0.000 C 
ATOM      2  C   UNL     1       9.045  15.188  17.722  0.00  0.00    +0.000 C 
ATOM      3  C   UNL     1       7.920  15.520  18.613  0.00  0.00    +0.000 C 
ATOM      4  C   UNL     1       8.603  15.622  19.938  0.00  0.00    +0.000 C 
ATOM      5  C   UNL     1       8.670  14.605  21.015  0.00  0.00    +0.000 C 
ATOM      6  C   UNL     1       8.280  13.209  20.665  0.00  0.00    +0.000 C 
ATOM      7  C   UNL     1       8.812  12.353  21.805  0.00  0.00    +0.000 C 
ATOM      8  F   UNL     1      10.149  12.533  21.974  0.00  0.00    +0.000 F 
ATOM      9  C   UNL     1       8.040  12.744  23.047  0.00  0.00    +0.000 C 
ATOM     10  C   UNL     1       7.328  11.712  23.536  0.00  0.00    +0.000 C 
ATOM     11  C   UNL     1       6.177  11.919  24.414  0.00  0.00    +0.000 C 
ATOM     12  O   UNL     1       5.374  11.006  24.575  0.00  0.00    +0.000 OA
ATOM     13  C   UNL     1       6.042  13.276  25.037  0.00  0.00    +0.000 C 
ATOM     14  C   UNL     1       6.412  14.364  24.013  0.00  0.00    +0.000 C 
ATOM     15  C   UNL     1       7.885  14.256  23.466  0.00  0.00    +0.000 C 
ATOM     16  C   UNL     1       8.818  14.631  24.633  0.00  0.00    +0.000 C 
ATOM     17  C   UNL     1       8.096  15.306  22.242  0.00  0.00    +0.000 C 
ATOM     18  C   UNL     1       9.004  16.684  22.360  0.00  0.00    +0.000 C 
ATOM     19  C   UNL     1       9.615  17.382  20.898  0.00  0.00    +0.000 C 
ATOM     20  C   UNL     1      10.044  16.230  19.839  0.00  0.00    +0.000 C 
ATOM     21  C   UNL     1      11.400  15.795  20.493  0.00  0.00    +0.000 C 
ENDROOT
BRANCH   1  22
ATOM     22  C   UNL     1      11.372  15.282  17.410  0.00  0.00    +0.000 C 
ATOM     23  O   UNL     1      12.332  15.937  16.968  0.00  0.00    +0.000 OA
BRANCH  22  24
ATOM     24  C   UNL     1      11.203  13.792  16.959  0.00  0.00    +0.000 C 
BRANCH  24  25
ATOM     25  O   UNL     1      12.056  12.780  17.557  0.00  0.00    +0.000 OA
BRANCH  25  27
ATOM     26  C   UNL     1      12.333  11.942  19.795  0.00  0.00    +0.000 C 
ATOM     27  C   UNL     1      11.505  11.999  18.529  0.00  0.00    +0.000 C 
ATOM     28  O   UNL     1      10.403  11.472  18.437  0.00  0.00    +0.000 OA
ENDBRANCH  25  27
ENDBRANCH  24  25
ENDBRANCH  22  24
ENDBRANCH   1  22
BRANCH   1  29
ATOM     29  O   UNL     1      10.060  17.388  17.690  0.00  0.00    +0.000 OA
ATOM     30  H   UNL     1       9.096  17.520  17.587  0.00  0.00    +0.000 HD
ENDBRANCH   1  29
BRANCH  18  31
ATOM     31  O   UNL     1       8.228  17.647  23.071  0.00  0.00    +0.000 OA
ATOM     32  H   UNL     1       8.180  17.389  24.007  0.00  0.00    +0.000 HD
ENDBRANCH  18  31
TORSDOF 6
ENDMDL
MODEL 2
REMARK VINA RESULT:      -5.8      9.215     11.219
REMARK  Name = 
REMARK  9 active torsions:
REMARK  status: ('A' for Active; 'I' for Inactive)
REMARK    1  A    between atoms: C_1  and  C_2
REMARK    2  A    between atoms: C_2  and  O_4
REMARK    3  A    between atoms: O_4  and  C_5
REMARK    4  A    between atoms: C_5  and  C_6
REMARK    5  A    between atoms: C_6  and  C_8
REMARK    6  A    between atoms: C_8  and  O_9
REMARK    7  A    between atoms: C_23  and  C_24
REMARK    8  A    between atoms: C_26  and  O_27
REMARK    9  A    between atoms: C_29  and  C_30
REMARK                            x       y       z     vdW  Elec       q    Type
REMARK                         _______ _______ _______ _____ _____    ______ ____
ROOT
ATOM      1  C   UNL     1       6.819   4.657  16.603  0.00  0.00    +0.000 C 
ATOM      2  C   UNL     1       7.288   6.118  16.897  0.00  0.00    +0.000 C 
ATOM      3  C   UNL     1       6.926   6.346  18.306  0.00  0.00    +0.000 C 
ATOM      4  C   UNL     1       5.589   5.683  18.387  0.00  0.00    +0.000 C 
ATOM      5  C   UNL     1       4.249   6.314  18.328  0.00  0.00    +0.000 C 
ATOM      6  C   UNL     1       4.174   7.722  17.843  0.00  0.00    +0.000 C 
ATOM      7  C   UNL     1       2.704   7.952  17.523  0.00  0.00    +0.000 C 
ATOM      8  F   UNL     1       2.243   7.030  16.636  0.00  0.00    +0.000 F 
ATOM      9  C   UNL     1       1.951   7.882  18.834  0.00  0.00    +0.000 C 
ATOM     10  C   UNL     1       1.348   9.049  19.125  0.00  0.00    +0.000 C 
ATOM     11  C   UNL     1       0.962   9.395  20.493  0.00  0.00    +0.000 C 
ATOM     12  O   UNL     1       0.718  10.565  20.768  0.00  0.00    +0.000 OA
ATOM     13  C   UNL     1       0.925   8.273  21.485  0.00  0.00    +0.000 C 
ATOM     14  C   UNL     1       2.122   7.331  21.259  0.00  0.00    +0.000 C 
ATOM     15  C   UNL     1       2.159   6.675  19.828  0.00  0.00    +0.000 C 
ATOM     16  C   UNL     1       0.990   5.672  19.771  0.00  0.00    +0.000 C 
ATOM     17  C   UNL     1       3.564   5.883  19.621  0.00  0.00    +0.000 C 
ATOM     18  C   UNL     1       3.695   4.234  19.596  0.00  0.00    +0.000 C 
ATOM     19  C   UNL     1       5.076   3.540  18.815  0.00  0.00    +0.000 C 
ATOM     20  C   UNL     1       5.490   4.394  17.500  0.00  0.00    +0.000 C 
ATOM     21  C   UNL     1       4.372   3.892  16.524  0.00  0.00    +0.000 C 
ENDROOT
BRANCH   1  22
ATOM     22  C   UNL     1       6.948   4.783  14.992  0.00  0.00    +0.000 C 
ATOM     23  O   UNL     1       7.712   5.649  14.534  0.00  0.00    +0.000 OA
BRANCH  22  24
ATOM     24  C   UNL     1       5.989   4.026  14.013  0.00  0.00    +0.000 C 
BRANCH  24  25
ATOM     25  O   UNL     1       6.481   3.663  12.695  0.00  0.00    +0.000 OA
BRANCH  25  27
ATOM     26  C   UNL     1       4.338   3.456  11.621  0.00  0.00    +0.000 C 
ATOM     27  C   UNL     1       5.688   2.851  11.940  0.00  0.00    +0.000 C 
ATOM     28  O   UNL     1       6.056   1.778  11.475  0.00  0.00    +0.000 OA
ENDBRANCH  25  27
ENDBRANCH  24  25
ENDBRANCH  22  24
ENDBRANCH   1  22
BRANCH   1  29
ATOM     29  O   UNL     1       7.814   3.762  17.101  0.00  0.00    +0.000 OA
ATOM     30  H   UNL     1       8.618   3.927  16.569  0.00  0.00    +0.000 HD
ENDBRANCH   1  29
BRANCH  18  31
ATOM     31  O   UNL     1       3.620   3.779  20.947  0.00  0.00    +0.000 OA
ATOM     32  H   UNL     1       4.444   3.313  21.170  0.00  0.00    +0.000 HD
ENDBRANCH  18  31
TORSDOF 6
ENDMDL
MODEL 3
REMARK VINA RESULT:      -5.7      8.707     11.171
REMARK  Name = 
REMARK  9 active torsions:
REMARK  status: ('A' for Active; 'I' for Inactive)
REMARK    1  A    between atoms: C_1  and  C_2
REMARK    2  A    between atoms: C_2  and  O_4
REMARK    3  A    between atoms: O_4  and  C_5
REMARK    4  A    between atoms: C_5  and  C_6
REMARK    5  A    between atoms: C_6  and  C_8
REMARK    6  A    between atoms: C_8  and  O_9
REMARK    7  A    between atoms: C_23  and  C_24
REMARK    8  A    between atoms: C_26  and  O_27
REMARK    9  A    between atoms: C_29  and  C_30
REMARK                            x       y       z     vdW  Elec       q    Type
REMARK                         _______ _______ _______ _____ _____    ______ ____
ROOT
ATOM      1  C   UNL     1       0.540  10.970  18.974  0.00  0.00    +0.000 C 
ATOM      2  C   UNL     1      -0.984  10.861  18.649  0.00  0.00    +0.000 C 
ATOM      3  C   UNL     1      -1.313  12.136  17.990  0.00  0.00    +0.000 C 
ATOM      4  C   UNL     1      -0.525  13.111  18.804  0.00  0.00    +0.000 C 
ATOM      5  C   UNL     1      -1.003  13.984  19.903  0.00  0.00    +0.000 C 
ATOM      6  C   UNL     1      -2.339  13.678  20.491  0.00  0.00    +0.000 C 
ATOM      7  C   UNL     1      -2.380  14.450  21.801  0.00  0.00    +0.000 C 
ATOM      8  F   UNL     1      -1.331  14.120  22.600  0.00  0.00    +0.000 F 
ATOM      9  C   UNL     1      -2.364  15.921  21.447  0.00  0.00    +0.000 C 
ATOM     10  C   UNL     1      -3.485  16.544  21.856  0.00  0.00    +0.000 C 
ATOM     11  C   UNL     1      -3.925  17.805  21.260  0.00  0.00    +0.000 C 
ATOM     12  O   UNL     1      -5.085  18.171  21.419  0.00  0.00    +0.000 OA
ATOM     13  C   UNL     1      -2.911  18.557  20.451  0.00  0.00    +0.000 C 
ATOM     14  C   UNL     1      -2.082  17.574  19.603  0.00  0.00    +0.000 C 
ATOM     15  C   UNL     1      -1.292  16.507  20.450  0.00  0.00    +0.000 C 
ATOM     16  C   UNL     1      -0.172  17.267  21.186  0.00  0.00    +0.000 C 
ATOM     17  C   UNL     1      -0.635  15.396  19.460  0.00  0.00    +0.000 C 
ATOM     18  C   UNL     1       0.985  15.291  19.143  0.00  0.00    +0.000 C 
ATOM     19  C   UNL     1       1.606  13.778  18.573  0.00  0.00    +0.000 C 
ATOM     20  C   UNL     1       0.849  12.534  19.288  0.00  0.00    +0.000 C 
ATOM     21  C   UNL     1       1.562  12.587  20.682  0.00  0.00    +0.000 C 
ENDROOT
BRANCH   1  22
ATOM     22  C   UNL     1       0.565   9.707  19.989  0.00  0.00    +0.000 C 
ATOM     23  O   UNL     1       1.573   8.981  19.992  0.00  0.00    +0.000 OA
BRANCH  22  24
ATOM     24  C   UNL     1      -0.703   9.242  20.780  0.00  0.00    +0.000 C 
BRANCH  24  25
ATOM     25  O   UNL     1      -0.545   8.787  22.150  0.00  0.00    +0.000 OA
BRANCH  25  27
ATOM     26  C   UNL     1      -1.172  10.926  23.057  0.00  0.00    +0.000 C 
ATOM     27  C   UNL     1      -0.242   9.731  23.086  0.00  0.00    +0.000 C 
ATOM     28  O   UNL     1       0.629   9.594  23.937  0.00  0.00    +0.000 OA
ENDBRANCH  25  27
ENDBRANCH  24  25
ENDBRANCH  22  24
ENDBRANCH   1  22
BRANCH   1  29
ATOM     29  O   UNL     1       1.272  10.654  17.789  0.00  0.00    +0.000 OA
ATOM     30  H   UNL     1       1.467   9.697  17.838  0.00  0.00    +0.000 HD
ENDBRANCH   1  29
BRANCH  18  31
ATOM     31  O   UNL     1       1.307  16.328  18.216  0.00  0.00    +0.000 OA
ATOM     32  H   UNL     1       2.267  16.328  18.061  0.00  0.00    +0.000 HD
ENDBRANCH  18  31
TORSDOF 6
ENDMDL
MODEL 4
REMARK VINA RESULT:      -5.7      2.039      4.220
REMARK  Name = 
REMARK  9 active torsions:
REMARK  status: ('A' for Active; 'I' for Inactive)
REMARK    1  A    between atoms: C_1  and  C_2
REMARK    2  A    between atoms: C_2  and  O_4
REMARK    3  A    between atoms: O_4  and  C_5
REMARK    4  A    between atoms: C_5  and  C_6
REMARK    5  A    between atoms: C_6  and  C_8
REMARK    6  A    between atoms: C_8  and  O_9
REMARK    7  A    between atoms: C_23  and  C_24
REMARK    8  A    between atoms: C_26  and  O_27
REMARK    9  A    between atoms: C_29  and  C_30
REMARK                            x       y       z     vdW  Elec       q    Type
REMARK                         _______ _______ _______ _____ _____    ______ ____
ROOT
ATOM      1  C   UNL     1      11.367  13.397  17.811  0.00  0.00    +0.000 C 
ATOM      2  C   UNL     1      12.285  14.296  18.698  0.00  0.00    +0.000 C 
ATOM      3  C   UNL     1      12.330  13.608  19.999  0.00  0.00    +0.000 C 
ATOM      4  C   UNL     1      10.915  13.155  20.153  0.00  0.00    +0.000 C 
ATOM      5  C   UNL     1       9.832  13.787  20.944  0.00  0.00    +0.000 C 
ATOM      6  C   UNL     1      10.053  15.184  21.417  0.00  0.00    +0.000 C 
ATOM      7  C   UNL     1       8.676  15.682  21.832  0.00  0.00    +0.000 C 
ATOM      8  F   UNL     1       7.785  15.573  20.811  0.00  0.00    +0.000 F 
ATOM      9  C   UNL     1       8.251  14.859  23.028  0.00  0.00    +0.000 C 
ATOM     10  C   UNL     1       8.087  15.622  24.124  0.00  0.00    +0.000 C 
ATOM     11  C   UNL     1       8.133  15.053  25.471  0.00  0.00    +0.000 C 
ATOM     12  O   UNL     1       8.302  15.799  26.431  0.00  0.00    +0.000 OA
ATOM     13  C   UNL     1       8.005  13.564  25.577  0.00  0.00    +0.000 C 
ATOM     14  C   UNL     1       8.801  12.885  24.447  0.00  0.00    +0.000 C 
ATOM     15  C   UNL     1       8.325  13.284  23.000  0.00  0.00    +0.000 C 
ATOM     16  C   UNL     1       6.938  12.643  22.798  0.00  0.00    +0.000 C 
ATOM     17  C   UNL     1       9.363  12.692  21.897  0.00  0.00    +0.000 C 
ATOM     18  C   UNL     1       9.011  11.428  20.889  0.00  0.00    +0.000 C 
ATOM     19  C   UNL     1       9.924  11.276  19.425  0.00  0.00    +0.000 C 
ATOM     20  C   UNL     1      10.256  12.734  18.794  0.00  0.00    +0.000 C 
ATOM     21  C   UNL     1       8.851  13.056  18.180  0.00  0.00    +0.000 C 
ENDROOT
BRANCH   1  22
ATOM     22  C   UNL     1      11.159  14.503  16.645  0.00  0.00    +0.000 C 
ATOM     23  O   UNL     1      11.265  14.132  15.464  0.00  0.00    +0.000 OA
BRANCH  22  24
ATOM     24  C   UNL     1      11.063  16.035  16.951  0.00  0.00    +0.000 C 
BRANCH  24  25
ATOM     25  O   UNL     1       9.749  16.638  17.096  0.00  0.00    +0.000 OA
BRANCH  25  27
ATOM     26  C   UNL     1      10.785  17.695  18.994  0.00  0.00    +0.000 C 
ATOM     27  C   UNL     1       9.522  17.365  18.227  0.00  0.00    +0.000 C 
ATOM     28  O   UNL     1       8.423  17.799  18.549  0.00  0.00    +0.000 OA
ENDBRANCH  25  27
ENDBRANCH  24  25
ENDBRANCH  22  24
ENDBRANCH   1  22
BRANCH   1  29
ATOM     29  O   UNL     1      12.151  12.311  17.315  0.00  0.00    +0.000 OA
ATOM     30  H   UNL     1      11.549  11.771  16.765  0.00  0.00    +0.000 HD
ENDBRANCH   1  29
BRANCH  18  31
ATOM     31  O   UNL     1       9.117  10.228  21.654  0.00  0.00    +0.000 OA
ATOM     32  H   UNL     1       9.028   9.463  21.059  0.00  0.00    +0.000 HD
ENDBRANCH  18  31
TORSDOF 6
ENDMDL
MODEL 5
REMARK VINA RESULT:      -5.6      7.513     10.245
REMARK  Name = 
REMARK  9 active torsions:
REMARK  status: ('A' for Active; 'I' for Inactive)
REMARK    1  A    between atoms: C_1  and  C_2
REMARK    2  A    between atoms: C_2  and  O_4
REMARK    3  A    between atoms: O_4  and  C_5
REMARK    4  A    between atoms: C_5  and  C_6
REMARK    5  A    between atoms: C_6  and  C_8
REMARK    6  A    between atoms: C_8  and  O_9
REMARK    7  A    between atoms: C_23  and  C_24
REMARK    8  A    between atoms: C_26  and  O_27
REMARK    9  A    between atoms: C_29  and  C_30
REMARK                            x       y       z     vdW  Elec       q    Type
REMARK                         _______ _______ _______ _____ _____    ______ ____
ROOT
ATOM      1  C   UNL     1      -1.192  12.401  20.472  0.00  0.00    +0.000 C 
ATOM      2  C   UNL     1      -0.254  11.235  20.026  0.00  0.00    +0.000 C 
ATOM      3  C   UNL     1       0.972  11.423  20.820  0.00  0.00    +0.000 C 
ATOM      4  C   UNL     1       1.129  12.908  20.788  0.00  0.00    +0.000 C 
ATOM      5  C   UNL     1       2.015  13.717  19.917  0.00  0.00    +0.000 C 
ATOM      6  C   UNL     1       2.613  13.042  18.730  0.00  0.00    +0.000 C 
ATOM      7  C   UNL     1       3.121  14.172  17.847  0.00  0.00    +0.000 C 
ATOM      8  F   UNL     1       2.125  15.048  17.548  0.00  0.00    +0.000 F 
ATOM      9  C   UNL     1       4.246  14.849  18.600  0.00  0.00    +0.000 C 
ATOM     10  C   UNL     1       5.416  14.748  17.943  0.00  0.00    +0.000 C 
ATOM     11  C   UNL     1       6.699  14.895  18.630  0.00  0.00    +0.000 C 
ATOM     12  O   UNL     1       7.720  14.487  18.086  0.00  0.00    +0.000 OA
ATOM     13  C   UNL     1       6.664  15.516  19.994  0.00  0.00    +0.000 C 
ATOM     14  C   UNL     1       5.447  14.992  20.779  0.00  0.00    +0.000 C 
ATOM     15  C   UNL     1       4.062  15.306  20.098  0.00  0.00    +0.000 C 
ATOM     16  C   UNL     1       3.847  16.827  20.215  0.00  0.00    +0.000 C 
ATOM     17  C   UNL     1       2.872  14.526  20.885  0.00  0.00    +0.000 C 
ATOM     18  C   UNL     1       1.759  15.281  21.848  0.00  0.00    +0.000 C 
ATOM     19  C   UNL     1       0.258  14.471  22.145  0.00  0.00    +0.000 C 
ATOM     20  C   UNL     1      -0.240  13.670  20.825  0.00  0.00    +0.000 C 
ATOM     21  C   UNL     1      -0.772  14.885  19.991  0.00  0.00    +0.000 C 
ENDROOT
BRANCH   1  22
ATOM     22  C   UNL     1      -2.237  12.226  19.246  0.00  0.00    +0.000 C 
ATOM     23  O   UNL     1      -3.452  12.234  19.510  0.00  0.00    +0.000 OA
BRANCH  22  24
ATOM     24  C   UNL     1      -1.779  11.821  17.805  0.00  0.00    +0.000 C 
BRANCH  24  25
ATOM     25  O   UNL     1      -2.399  10.670  17.172  0.00  0.00    +0.000 OA
BRANCH  25  27
ATOM     26  C   UNL     1      -2.968  10.208  14.880  0.00  0.00    +0.000 C 
ATOM     27  C   UNL     1      -3.297  10.917  16.176  0.00  0.00    +0.000 C 
ATOM     28  O   UNL     1      -4.324  11.567  16.331  0.00  0.00    +0.000 OA
ENDBRANCH  25  27
ENDBRANCH  24  25
ENDBRANCH  22  24
ENDBRANCH   1  22
BRANCH   1  29
ATOM     29  O   UNL     1      -1.818  12.025  21.700  0.00  0.00    +0.000 OA
ATOM     30  H   UNL     1      -2.765  11.895  21.492  0.00  0.00    +0.000 HD
ENDBRANCH   1  29
BRANCH  18  31
ATOM     31  O   UNL     1       2.400  15.583  23.087  0.00  0.00    +0.000 OA
ATOM     32  H   UNL     1       1.747  15.521  23.806  0.00  0.00    +0.000 HD
ENDBRANCH  18  31
TORSDOF 6
ENDMDL
MODEL 6
REMARK VINA RESULT:      -5.5      9.631     11.847
REMARK  Name = 
REMARK  9 active torsions:
REMARK  status: ('A' for Active; 'I' for Inactive)
REMARK    1  A    between atoms: C_1  and  C_2
REMARK    2  A    between atoms: C_2  and  O_4
REMARK    3  A    between atoms: O_4  and  C_5
REMARK    4  A    between atoms: C_5  and  C_6
REMARK    5  A    between atoms: C_6  and  C_8
REMARK    6  A    between atoms: C_8  and  O_9
REMARK    7  A    between atoms: C_23  and  C_24
REMARK    8  A    between atoms: C_26  and  O_27
REMARK    9  A    between atoms: C_29  and  C_30
REMARK                            x       y       z     vdW  Elec       q    Type
REMARK                         _______ _______ _______ _____ _____    ______ ____
ROOT
ATOM      1  C   UNL     1       0.030  12.636  19.092  0.00  0.00    +0.000 C 
ATOM      2  C   UNL     1      -1.093  11.579  18.845  0.00  0.00    +0.000 C 
ATOM      3  C   UNL     1      -2.331  12.371  18.747  0.00  0.00    +0.000 C 
ATOM      4  C   UNL     1      -2.126  13.387  19.823  0.00  0.00    +0.000 C 
ATOM      5  C   UNL     1      -2.676  13.387  21.200  0.00  0.00    +0.000 C 
ATOM      6  C   UNL     1      -3.260  12.112  21.706  0.00  0.00    +0.000 C 
ATOM      7  C   UNL     1      -3.368  12.297  23.212  0.00  0.00    +0.000 C 
ATOM      8  F   UNL     1      -2.163  12.613  23.757  0.00  0.00    +0.000 F 
ATOM      9  C   UNL     1      -4.387  13.390  23.450  0.00  0.00    +0.000 C 
ATOM     10  C   UNL     1      -5.453  12.936  24.134  0.00  0.00    +0.000 C 
ATOM     11  C   UNL     1      -6.742  13.627  24.096  0.00  0.00    +0.000 C 
ATOM     12  O   UNL     1      -7.752  13.030  24.455  0.00  0.00    +0.000 OA
ATOM     13  C   UNL     1      -6.736  15.033  23.578  0.00  0.00    +0.000 C 
ATOM     14  C   UNL     1      -5.789  15.144  22.369  0.00  0.00    +0.000 C 
ATOM     15  C   UNL     1      -4.294  14.769  22.690  0.00  0.00    +0.000 C 
ATOM     16  C   UNL     1      -3.740  15.889  23.592  0.00  0.00    +0.000 C 
ATOM     17  C   UNL     1      -3.433  14.706  21.312  0.00  0.00    +0.000 C 
ATOM     18  C   UNL     1      -2.306  15.837  20.880  0.00  0.00    +0.000 C 
ATOM     19  C   UNL     1      -1.090  15.377  19.737  0.00  0.00    +0.000 C 
ATOM     20  C   UNL     1      -0.631  13.838  19.963  0.00  0.00    +0.000 C 
ATOM     21  C   UNL     1       0.276  14.040  21.225  0.00  0.00    +0.000 C 
ENDROOT
BRANCH   1  22
ATOM     22  C   UNL     1       1.152  11.556  19.541  0.00  0.00    +0.000 C 
ATOM     23  O   UNL     1       2.249  11.579  18.958  0.00  0.00    +0.000 OA
BRANCH  22  24
ATOM     24  C   UNL     1       0.829  10.359  20.498  0.00  0.00    +0.000 C 
BRANCH  24  25
ATOM     25  O   UNL     1       0.830  10.591  21.931  0.00  0.00    +0.000 OA
BRANCH  25  27
ATOM     26  C   UNL     1      -0.499   8.586  21.911  0.00  0.00    +0.000 C 
ATOM     27  C   UNL     1       0.186   9.675  22.708  0.00  0.00    +0.000 C 
ATOM     28  O   UNL     1       0.232   9.667  23.933  0.00  0.00    +0.000 OA
ENDBRANCH  25  27
ENDBRANCH  24  25
ENDBRANCH  22  24
ENDBRANCH   1  22
BRANCH   1  29
ATOM     29  O   UNL     1       0.386  13.211  17.835  0.00  0.00    +0.000 OA
ATOM     30  H   UNL     1       0.830  14.058  18.040  0.00  0.00    +0.000 HD
ENDBRANCH   1  29
BRANCH  18  31
ATOM     31  O   UNL     1      -3.010  16.984  20.405  0.00  0.00    +0.000 OA
ATOM     32  H   UNL     1      -2.761  17.755  20.943  0.00  0.00    +0.000 HD
ENDBRANCH  18  31
TORSDOF 6
ENDMDL
MODEL 7
REMARK VINA RESULT:      -5.5      1.563      2.011
REMARK  Name = 
REMARK  9 active torsions:
REMARK  status: ('A' for Active; 'I' for Inactive)
REMARK    1  A    between atoms: C_1  and  C_2
REMARK    2  A    between atoms: C_2  and  O_4
REMARK    3  A    between atoms: O_4  and  C_5
REMARK    4  A    between atoms: C_5  and  C_6
REMARK    5  A    between atoms: C_6  and  C_8
REMARK    6  A    between atoms: C_8  and  O_9
REMARK    7  A    between atoms: C_23  and  C_24
REMARK    8  A    between atoms: C_26  and  O_27
REMARK    9  A    between atoms: C_29  and  C_30
REMARK                            x       y       z     vdW  Elec       q    Type
REMARK                         _______ _______ _______ _____ _____    ______ ____
ROOT
ATOM      1  C   UNL     1      10.184  14.729  17.829  0.00  0.00    +0.000 C 
ATOM      2  C   UNL     1       8.735  14.154  17.731  0.00  0.00    +0.000 C 
ATOM      3  C   UNL     1       7.898  15.140  18.435  0.00  0.00    +0.000 C 
ATOM      4  C   UNL     1       8.762  15.494  19.601  0.00  0.00    +0.000 C 
ATOM      5  C   UNL     1       8.678  14.984  20.991  0.00  0.00    +0.000 C 
ATOM      6  C   UNL     1       7.848  13.768  21.228  0.00  0.00    +0.000 C 
ATOM      7  C   UNL     1       8.260  13.270  22.605  0.00  0.00    +0.000 C 
ATOM      8  F   UNL     1       9.601  13.051  22.668  0.00  0.00    +0.000 F 
ATOM      9  C   UNL     1       7.824  14.321  23.603  0.00  0.00    +0.000 C 
ATOM     10  C   UNL     1       6.916  13.836  24.470  0.00  0.00    +0.000 C 
ATOM     11  C   UNL     1       6.014  14.718  25.212  0.00  0.00    +0.000 C 
ATOM     12  O   UNL     1       5.009  14.246  25.733  0.00  0.00    +0.000 OA
ATOM     13  C   UNL     1       6.376  16.172  25.250  0.00  0.00    +0.000 C 
ATOM     14  C   UNL     1       6.901  16.620  23.874  0.00  0.00    +0.000 C 
ATOM     15  C   UNL     1       8.182  15.842  23.392  0.00  0.00    +0.000 C 
ATOM     16  C   UNL     1       9.342  16.293  24.302  0.00  0.00    +0.000 C 
ATOM     17  C   UNL     1       8.518  16.234  21.850  0.00  0.00    +0.000 C 
ATOM     18  C   UNL     1       9.798  17.179  21.400  0.00  0.00    +0.000 C 
ATOM     19  C   UNL     1      10.374  17.047  19.772  0.00  0.00    +0.000 C 
ATOM     20  C   UNL     1      10.289  15.514  19.248  0.00  0.00    +0.000 C 
ATOM     21  C   UNL     1      11.534  14.933  20.000  0.00  0.00    +0.000 C 
ENDROOT
BRANCH   1  22
ATOM     22  C   UNL     1      10.917  13.358  17.371  0.00  0.00    +0.000 C 
ATOM     23  O   UNL     1      11.428  13.321  16.239  0.00  0.00    +0.000 OA
BRANCH  22  24
ATOM     24  C   UNL     1      10.804  12.031  18.194  0.00  0.00    +0.000 C 
BRANCH  24  25
ATOM     25  O   UNL     1       9.915  10.987  17.717  0.00  0.00    +0.000 OA
BRANCH  25  27
ATOM     26  C   UNL     1       9.461  10.773  20.070  0.00  0.00    +0.000 C 
ATOM     27  C   UNL     1       9.221  10.285  18.658  0.00  0.00    +0.000 C 
ATOM     28  O   UNL     1       8.406   9.410  18.391  0.00  0.00    +0.000 OA
ENDBRANCH  25  27
ENDBRANCH  24  25
ENDBRANCH  22  24
ENDBRANCH   1  22
BRANCH   1  29
ATOM     29  O   UNL     1      10.338  15.723  16.816  0.00  0.00    +0.000 OA
ATOM     30  H   UNL     1      10.185  16.584  17.256  0.00  0.00    +0.000 HD
ENDBRANCH   1  29
BRANCH  18  31
ATOM     31  O   UNL     1       9.451  18.534  21.683  0.00  0.00    +0.000 OA
ATOM     32  H   UNL     1       8.534  18.693  21.399  0.00  0.00    +0.000 HD
ENDBRANCH  18  31
TORSDOF 6
ENDMDL
MODEL 8
REMARK VINA RESULT:      -5.5      9.911     12.021
REMARK  Name = 
REMARK  9 active torsions:
REMARK  status: ('A' for Active; 'I' for Inactive)
REMARK    1  A    between atoms: C_1  and  C_2
REMARK    2  A    between atoms: C_2  and  O_4
REMARK    3  A    between atoms: O_4  and  C_5
REMARK    4  A    between atoms: C_5  and  C_6
REMARK    5  A    between atoms: C_6  and  C_8
REMARK    6  A    between atoms: C_8  and  O_9
REMARK    7  A    between atoms: C_23  and  C_24
REMARK    8  A    between atoms: C_26  and  O_27
REMARK    9  A    between atoms: C_29  and  C_30
REMARK                            x       y       z     vdW  Elec       q    Type
REMARK                         _______ _______ _______ _____ _____    ______ ____
ROOT
ATOM      1  C   UNL     1       0.713  12.118  19.865  0.00  0.00    +0.000 C 
ATOM      2  C   UNL     1       0.500  11.366  21.217  0.00  0.00    +0.000 C 
ATOM      3  C   UNL     1      -0.727  10.577  21.012  0.00  0.00    +0.000 C 
ATOM      4  C   UNL     1      -1.581  11.538  20.249  0.00  0.00    +0.000 C 
ATOM      5  C   UNL     1      -2.669  12.404  20.764  0.00  0.00    +0.000 C 
ATOM      6  C   UNL     1      -2.760  12.587  22.241  0.00  0.00    +0.000 C 
ATOM      7  C   UNL     1      -3.674  13.788  22.434  0.00  0.00    +0.000 C 
ATOM      8  F   UNL     1      -3.206  14.875  21.765  0.00  0.00    +0.000 F 
ATOM      9  C   UNL     1      -5.046  13.383  21.940  0.00  0.00    +0.000 C 
ATOM     10  C   UNL     1      -5.959  13.412  22.928  0.00  0.00    +0.000 C 
ATOM     11  C   UNL     1      -7.206  12.652  22.846  0.00  0.00    +0.000 C 
ATOM     12  O   UNL     1      -7.851  12.446  23.869  0.00  0.00    +0.000 OA
ATOM     13  C   UNL     1      -7.594  12.141  21.491  0.00  0.00    +0.000 C 
ATOM     14  C   UNL     1      -6.348  11.624  20.748  0.00  0.00    +0.000 C 
ATOM     15  C   UNL     1      -5.236  12.716  20.524  0.00  0.00    +0.000 C 
ATOM     16  C   UNL     1      -5.796  13.711  19.488  0.00  0.00    +0.000 C 
ATOM     17  C   UNL     1      -3.890  12.019  19.935  0.00  0.00    +0.000 C 
ATOM     18  C   UNL     1      -3.370  12.198  18.375  0.00  0.00    +0.000 C 
ATOM     19  C   UNL     1      -1.696  11.911  18.038  0.00  0.00    +0.000 C 
ATOM     20  C   UNL     1      -0.761  12.432  19.257  0.00  0.00    +0.000 C 
ATOM     21  C   UNL     1      -0.815  13.970  18.961  0.00  0.00    +0.000 C 
ENDROOT
BRANCH   1  22
ATOM     22  C   UNL     1       1.813  13.156  20.446  0.00  0.00    +0.000 C 
ATOM     23  O   UNL     1       1.610  13.656  21.566  0.00  0.00    +0.000 OA
BRANCH  22  24
ATOM     24  C   UNL     1       2.980  13.720  19.568  0.00  0.00    +0.000 C 
BRANCH  24  25
ATOM     25  O   UNL     1       2.661  14.330  18.289  0.00  0.00    +0.000 OA
BRANCH  25  27
ATOM     26  C   UNL     1       4.869  15.147  17.795  0.00  0.00    +0.000 C 
ATOM     27  C   UNL     1       3.387  15.424  17.924  0.00  0.00    +0.000 C 
ATOM     28  O   UNL     1       2.890  16.505  17.632  0.00  0.00    +0.000 OA
ENDBRANCH  25  27
ENDBRANCH  24  25
ENDBRANCH  22  24
ENDBRANCH   1  22
BRANCH   1  29
ATOM     29  O   UNL     1       1.334  11.217  18.947  0.00  0.00    +0.000 OA
ATOM     30  H   UNL     1       2.284  11.452  18.938  0.00  0.00    +0.000 HD
ENDBRANCH   1  29
BRANCH  18  31
ATOM     31  O   UNL     1      -4.181  11.357  17.555  0.00  0.00    +0.000 OA
ATOM     32  H   UNL     1      -5.110  11.632  17.639  0.00  0.00    +0.000 HD
ENDBRANCH  18  31
TORSDOF 6
ENDMDL
MODEL 9
REMARK VINA RESULT:      -5.5      9.161     11.152
REMARK  Name = 
REMARK  9 active torsions:
REMARK  status: ('A' for Active; 'I' for Inactive)
REMARK    1  A    between atoms: C_1  and  C_2
REMARK    2  A    between atoms: C_2  and  O_4
REMARK    3  A    between atoms: O_4  and  C_5
REMARK    4  A    between atoms: C_5  and  C_6
REMARK    5  A    between atoms: C_6  and  C_8
REMARK    6  A    between atoms: C_8  and  O_9
REMARK    7  A    between atoms: C_23  and  C_24
REMARK    8  A    between atoms: C_26  and  O_27
REMARK    9  A    between atoms: C_29  and  C_30
REMARK                            x       y       z     vdW  Elec       q    Type
REMARK                         _______ _______ _______ _____ _____    ______ ____
ROOT
ATOM      1  C   UNL     1       5.521   4.842  16.765  0.00  0.00    +0.000 C 
ATOM      2  C   UNL     1       6.198   6.239  16.937  0.00  0.00    +0.000 C 
ATOM      3  C   UNL     1       6.034   6.555  18.366  0.00  0.00    +0.000 C 
ATOM      4  C   UNL     1       4.644   6.073  18.625  0.00  0.00    +0.000 C 
ATOM      5  C   UNL     1       3.395   6.870  18.687  0.00  0.00    +0.000 C 
ATOM      6  C   UNL     1       3.440   8.260  18.149  0.00  0.00    +0.000 C 
ATOM      7  C   UNL     1       1.983   8.667  17.985  0.00  0.00    +0.000 C 
ATOM      8  F   UNL     1       1.311   7.785  17.198  0.00  0.00    +0.000 F 
ATOM      9  C   UNL     1       1.385   8.736  19.374  0.00  0.00    +0.000 C 
ATOM     10  C   UNL     1       0.970   9.980  19.676  0.00  0.00    +0.000 C 
ATOM     11  C   UNL     1       0.791  10.415  21.061  0.00  0.00    +0.000 C 
ATOM     12  O   UNL     1       0.729  11.615  21.308  0.00  0.00    +0.000 OA
ATOM     13  C   UNL     1       0.731   9.339  22.102  0.00  0.00    +0.000 C 
ATOM     14  C   UNL     1       1.766   8.244  21.787  0.00  0.00    +0.000 C 
ATOM     15  C   UNL     1       1.554   7.544  20.392  0.00  0.00    +0.000 C 
ATOM     16  C   UNL     1       0.271   6.699  20.512  0.00  0.00    +0.000 C 
ATOM     17  C   UNL     1       2.816   6.571  20.067  0.00  0.00    +0.000 C 
ATOM     18  C   UNL     1       2.737   4.919  20.103  0.00  0.00    +0.000 C 
ATOM     19  C   UNL     1       3.920   4.028  19.206  0.00  0.00    +0.000 C 
ATOM     20  C   UNL     1       4.282   4.781  17.815  0.00  0.00    +0.000 C 
ATOM     21  C   UNL     1       3.005   4.397  16.993  0.00  0.00    +0.000 C 
ENDROOT
BRANCH   1  22
ATOM     22  C   UNL     1       5.476   4.900  15.146  0.00  0.00    +0.000 C 
ATOM     23  O   UNL     1       5.272   6.000  14.607  0.00  0.00    +0.000 OA
BRANCH  22  24
ATOM     24  C   UNL     1       5.447   3.608  14.261  0.00  0.00    +0.000 C 
BRANCH  24  25
ATOM     25  O   UNL     1       6.378   3.499  13.152  0.00  0.00    +0.000 OA
BRANCH  25  27
ATOM     26  C   UNL     1       4.551   3.337  11.595  0.00  0.00    +0.000 C 
ATOM     27  C   UNL     1       5.929   2.881  12.023  0.00  0.00    +0.000 C 
ATOM     28  O   UNL     1       6.604   2.104  11.357  0.00  0.00    +0.000 OA
ENDBRANCH  25  27
ENDBRANCH  24  25
ENDBRANCH  22  24
ENDBRANCH   1  22
BRANCH   1  29
ATOM     29  O   UNL     1       6.447   3.842  17.189  0.00  0.00    +0.000 OA
ATOM     30  H   UNL     1       5.926   3.189  17.699  0.00  0.00    +0.000 HD
ENDBRANCH   1  29
BRANCH  18  31
ATOM     31  O   UNL     1       2.764   4.520  21.473  0.00  0.00    +0.000 OA
ATOM     32  H   UNL     1       3.600   4.056  21.652  0.00  0.00    +0.000 HD
ENDBRANCH  18  31
TORSDOF 6
ENDMDL
