MODEL 1
REMARK VINA RESULT:      -8.9      0.000      0.000
REMARK  Name = 
REMARK  3 active torsions:
REMARK  status: ('A' for Active; 'I' for Inactive)
REMARK    1  A    between atoms: C_12  and  C_13
REMARK    2  A    between atoms: C_13  and  C_15
REMARK    3  A    between atoms: C_18  and  C_19
REMARK                            x       y       z     vdW  Elec       q    Type
REMARK                         _______ _______ _______ _____ _____    ______ ____
ROOT
ATOM      1  C   UNL     1       6.339   4.719  17.589  0.00  0.00    +0.000 C 
ATOM      2  O   UNL     1       6.558   4.127  16.528  0.00  0.00    +0.000 OA
ENDROOT
BRANCH   1  14
ATOM      3  O   UNL     1       3.347   3.153  20.290  0.00  0.00    +0.000 OA
ATOM      4  C   UNL     1       3.297   4.286  19.823  0.00  0.00    +0.000 C 
ATOM      5  O   UNL     1       2.539   5.304  20.407  0.00  0.00    +0.000 OA
ATOM      6  C   UNL     1       2.367   6.544  19.749  0.00  0.00    +0.000 A 
ATOM      7  C   UNL     1       1.702   7.556  20.433  0.00  0.00    +0.000 A 
ATOM      8  C   UNL     1       1.448   8.759  19.775  0.00  0.00    +0.000 A 
ATOM      9  C   UNL     1       1.833   8.922  18.441  0.00  0.00    +0.000 A 
ATOM     10  C   UNL     1       2.517   7.902  17.773  0.00  0.00    +0.000 A 
ATOM     11  C   UNL     1       2.837   6.722  18.443  0.00  0.00    +0.000 A 
ATOM     12  N   UNL     1       3.569   5.700  17.825  0.00  0.00    +0.000 N 
ATOM     13  C   UNL     1       4.114   4.725  18.644  0.00  0.00    +0.000 C 
ATOM     14  C   UNL     1       5.351   4.201  18.572  0.00  0.00    +0.000 C 
ATOM     15  H   UNL     1       4.217   6.023  17.099  0.00  0.00    +0.000 HD
ENDBRANCH   1  14
BRANCH   1  16
ATOM     16  C   UNL     1       7.003   6.021  17.855  0.00  0.00    +0.000 A 
ATOM     17  C   UNL     1       7.942   6.201  18.872  0.00  0.00    +0.000 A 
ATOM     18  C   UNL     1       8.520   7.458  19.080  0.00  0.00    +0.000 A 
ATOM     19  C   UNL     1       8.180   8.570  18.281  0.00  0.00    +0.000 A 
ATOM     20  C   UNL     1       7.257   8.355  17.245  0.00  0.00    +0.000 A 
ATOM     21  C   UNL     1       6.677   7.106  17.031  0.00  0.00    +0.000 A 
BRANCH  19  22
ATOM     22  C   UNL     1       8.761   9.905  18.524  0.00  0.00    +0.000 A 
ATOM     23  C   UNL     1       9.546  10.169  19.659  0.00  0.00    +0.000 A 
ATOM     24  C   UNL     1      10.073  11.436  19.905  0.00  0.00    +0.000 A 
ATOM     25  C   UNL     1       9.833  12.476  19.011  0.00  0.00    +0.000 A 
ATOM     26  C   UNL     1       9.070  12.242  17.871  0.00  0.00    +0.000 A 
ATOM     27  C   UNL     1       8.541  10.974  17.631  0.00  0.00    +0.000 A 
ENDBRANCH  19  22
ENDBRANCH   1  16
TORSDOF 3
ENDMDL
MODEL 2
REMARK VINA RESULT:      -8.8      0.457      1.356
REMARK  Name = 
REMARK  3 active torsions:
REMARK  status: ('A' for Active; 'I' for Inactive)
REMARK    1  A    between atoms: C_12  and  C_13
REMARK    2  A    between atoms: C_13  and  C_15
REMARK    3  A    between atoms: C_18  and  C_19
REMARK                            x       y       z     vdW  Elec       q    Type
REMARK                         _______ _______ _______ _____ _____    ______ ____
ROOT
ATOM      1  C   UNL     1       6.491   4.965  17.485  0.00  0.00    +0.000 C 
ATOM      2  O   UNL     1       6.741   4.406  16.413  0.00  0.00    +0.000 OA
ENDROOT
BRANCH   1  14
ATOM      3  O   UNL     1       3.505   3.249  20.102  0.00  0.00    +0.000 OA
ATOM      4  C   UNL     1       3.430   4.392  19.662  0.00  0.00    +0.000 C 
ATOM      5  O   UNL     1       2.636   5.373  20.259  0.00  0.00    +0.000 OA
ATOM      6  C   UNL     1       2.439   6.624  19.630  0.00  0.00    +0.000 A 
ATOM      7  C   UNL     1       1.736   7.600  20.329  0.00  0.00    +0.000 A 
ATOM      8  C   UNL     1       1.458   8.811  19.697  0.00  0.00    +0.000 A 
ATOM      9  C   UNL     1       1.857   9.018  18.374  0.00  0.00    +0.000 A 
ATOM     10  C   UNL     1       2.580   8.035  17.691  0.00  0.00    +0.000 A 
ATOM     11  C   UNL     1       2.922   6.848  18.336  0.00  0.00    +0.000 A 
ATOM     12  N   UNL     1       3.691   5.862  17.704  0.00  0.00    +0.000 N 
ATOM     13  C   UNL     1       4.252   4.882  18.506  0.00  0.00    +0.000 C 
ATOM     14  C   UNL     1       5.504   4.395  18.440  0.00  0.00    +0.000 C 
ATOM     15  H   UNL     1       4.341   6.222  16.996  0.00  0.00    +0.000 HD
ENDBRANCH   1  14
BRANCH   1  16
ATOM     16  C   UNL     1       7.116   6.276  17.795  0.00  0.00    +0.000 A 
ATOM     17  C   UNL     1       6.855   7.435  17.061  0.00  0.00    +0.000 A 
ATOM     18  C   UNL     1       7.488   8.636  17.397  0.00  0.00    +0.000 A 
ATOM     19  C   UNL     1       8.400   8.718  18.471  0.00  0.00    +0.000 A 
ATOM     20  C   UNL     1       8.621   7.545  19.211  0.00  0.00    +0.000 A 
ATOM     21  C   UNL     1       7.994   6.345  18.884  0.00  0.00    +0.000 A 
BRANCH  19  22
ATOM     22  C   UNL     1       9.098   9.975  18.801  0.00  0.00    +0.000 A 
ATOM     23  C   UNL     1       9.595  10.824  17.798  0.00  0.00    +0.000 A 
ATOM     24  C   UNL     1      10.279  11.999  18.107  0.00  0.00    +0.000 A 
ATOM     25  C   UNL     1      10.478  12.360  19.437  0.00  0.00    +0.000 A 
ATOM     26  C   UNL     1       9.985  11.546  20.452  0.00  0.00    +0.000 A 
ATOM     27  C   UNL     1       9.305  10.370  20.139  0.00  0.00    +0.000 A 
ENDBRANCH  19  22
ENDBRANCH   1  16
TORSDOF 3
ENDMDL
MODEL 3
REMARK VINA RESULT:      -8.4      3.789      6.624
REMARK  Name = 
REMARK  3 active torsions:
REMARK  status: ('A' for Active; 'I' for Inactive)
REMARK    1  A    between atoms: C_12  and  C_13
REMARK    2  A    between atoms: C_13  and  C_15
REMARK    3  A    between atoms: C_18  and  C_19
REMARK                            x       y       z     vdW  Elec       q    Type
REMARK                         _______ _______ _______ _____ _____    ______ ____
ROOT
ATOM      1  C   UNL     1       3.797   7.321  17.204  0.00  0.00    +0.000 C 
ATOM      2  O   UNL     1       3.716   7.526  15.989  0.00  0.00    +0.000 OA
ENDROOT
BRANCH   1  14
ATOM      3  O   UNL     1       6.562   4.325  18.647  0.00  0.00    +0.000 OA
ATOM      4  C   UNL     1       5.354   4.274  18.854  0.00  0.00    +0.000 C 
ATOM      5  O   UNL     1       4.803   3.511  19.887  0.00  0.00    +0.000 OA
ATOM      6  C   UNL     1       3.403   3.338  19.988  0.00  0.00    +0.000 A 
ATOM      7  C   UNL     1       2.910   2.668  21.103  0.00  0.00    +0.000 A 
ATOM      8  C   UNL     1       1.542   2.413  21.184  0.00  0.00    +0.000 A 
ATOM      9  C   UNL     1       0.694   2.801  20.142  0.00  0.00    +0.000 A 
ATOM     10  C   UNL     1       1.203   3.490  19.037  0.00  0.00    +0.000 A 
ATOM     11  C   UNL     1       2.558   3.811  18.978  0.00  0.00    +0.000 A 
ATOM     12  N   UNL     1       3.094   4.548  17.914  0.00  0.00    +0.000 N 
ATOM     13  C   UNL     1       4.355   5.093  18.091  0.00  0.00    +0.000 C 
ATOM     14  C   UNL     1       4.759   6.331  17.757  0.00  0.00    +0.000 C 
ATOM     15  H   UNL     1       2.434   5.197  17.474  0.00  0.00    +0.000 HD
ENDBRANCH   1  14
BRANCH   1  16
ATOM     16  C   UNL     1       2.858   8.005  18.129  0.00  0.00    +0.000 A 
ATOM     17  C   UNL     1       2.194   9.188  17.801  0.00  0.00    +0.000 A 
ATOM     18  C   UNL     1       1.333   9.790  18.725  0.00  0.00    +0.000 A 
ATOM     19  C   UNL     1       1.109   9.231  20.001  0.00  0.00    +0.000 A 
ATOM     20  C   UNL     1       1.765   8.024  20.294  0.00  0.00    +0.000 A 
ATOM     21  C   UNL     1       2.624   7.418  19.380  0.00  0.00    +0.000 A 
BRANCH  19  22
ATOM     22  C   UNL     1       0.230   9.885  20.991  0.00  0.00    +0.000 A 
ATOM     23  C   UNL     1      -0.478  11.058  20.681  0.00  0.00    +0.000 A 
ATOM     24  C   UNL     1      -1.287  11.693  21.622  0.00  0.00    +0.000 A 
ATOM     25  C   UNL     1      -1.414  11.163  22.903  0.00  0.00    +0.000 A 
ATOM     26  C   UNL     1      -0.736   9.994  23.235  0.00  0.00    +0.000 A 
ATOM     27  C   UNL     1       0.076   9.364  22.291  0.00  0.00    +0.000 A 
ENDBRANCH  19  22
ENDBRANCH   1  16
TORSDOF 3
ENDMDL
MODEL 4
REMARK VINA RESULT:      -8.2      3.634      6.491
REMARK  Name = 
REMARK  3 active torsions:
REMARK  status: ('A' for Active; 'I' for Inactive)
REMARK    1  A    between atoms: C_12  and  C_13
REMARK    2  A    between atoms: C_13  and  C_15
REMARK    3  A    between atoms: C_18  and  C_19
REMARK                            x       y       z     vdW  Elec       q    Type
REMARK                         _______ _______ _______ _____ _____    ______ ____
ROOT
ATOM      1  C   UNL     1       2.068   5.530  20.374  0.00  0.00    +0.000 C 
ATOM      2  O   UNL     1       2.499   5.213  21.487  0.00  0.00    +0.000 OA
ENDROOT
BRANCH   1  14
ATOM      3  O   UNL     1       1.808   2.483  17.316  0.00  0.00    +0.000 OA
ATOM      4  C   UNL     1       2.813   3.162  17.498  0.00  0.00    +0.000 C 
ATOM      5  O   UNL     1       3.797   3.322  16.520  0.00  0.00    +0.000 OA
ATOM      6  C   UNL     1       5.019   3.965  16.823  0.00  0.00    +0.000 A 
ATOM      7  C   UNL     1       5.907   4.199  15.778  0.00  0.00    +0.000 A 
ATOM      8  C   UNL     1       7.152   4.757  16.066  0.00  0.00    +0.000 A 
ATOM      9  C   UNL     1       7.503   5.043  17.388  0.00  0.00    +0.000 A 
ATOM     10  C   UNL     1       6.591   4.820  18.425  0.00  0.00    +0.000 A 
ATOM     11  C   UNL     1       5.319   4.328  18.140  0.00  0.00    +0.000 A 
ATOM     12  N   UNL     1       4.360   4.142  19.145  0.00  0.00    +0.000 N 
ATOM     13  C   UNL     1       3.046   3.965  18.744  0.00  0.00    +0.000 C 
ATOM     14  C   UNL     1       1.950   4.531  19.279  0.00  0.00    +0.000 C 
ATOM     15  H   UNL     1       4.454   4.780  19.942  0.00  0.00    +0.000 HD
ENDBRANCH   1  14
BRANCH   1  16
ATOM     16  C   UNL     1       1.743   6.951  20.089  0.00  0.00    +0.000 A 
ATOM     17  C   UNL     1       1.100   7.783  21.006  0.00  0.00    +0.000 A 
ATOM     18  C   UNL     1       0.810   9.109  20.669  0.00  0.00    +0.000 A 
ATOM     19  C   UNL     1       1.151   9.643  19.408  0.00  0.00    +0.000 A 
ATOM     20  C   UNL     1       1.824   8.794  18.515  0.00  0.00    +0.000 A 
ATOM     21  C   UNL     1       2.117   7.473  18.844  0.00  0.00    +0.000 A 
BRANCH  19  22
ATOM     22  C   UNL     1       0.811  11.031  19.037  0.00  0.00    +0.000 A 
ATOM     23  C   UNL     1       1.806  11.972  18.725  0.00  0.00    +0.000 A 
ATOM     24  C   UNL     1       1.489  13.290  18.400  0.00  0.00    +0.000 A 
ATOM     25  C   UNL     1       0.159  13.701  18.371  0.00  0.00    +0.000 A 
ATOM     26  C   UNL     1      -0.849  12.788  18.663  0.00  0.00    +0.000 A 
ATOM     27  C   UNL     1      -0.528  11.471  18.991  0.00  0.00    +0.000 A 
ENDBRANCH  19  22
ENDBRANCH   1  16
TORSDOF 3
ENDMDL
MODEL 5
REMARK VINA RESULT:      -8.2      4.864      7.988
REMARK  Name = 
REMARK  3 active torsions:
REMARK  status: ('A' for Active; 'I' for Inactive)
REMARK    1  A    between atoms: C_12  and  C_13
REMARK    2  A    between atoms: C_13  and  C_15
REMARK    3  A    between atoms: C_18  and  C_19
REMARK                            x       y       z     vdW  Elec       q    Type
REMARK                         _______ _______ _______ _____ _____    ______ ____
ROOT
ATOM      1  C   UNL     1       0.719   9.568  20.293  0.00  0.00    +0.000 C 
ATOM      2  O   UNL     1       0.471   9.389  21.489  0.00  0.00    +0.000 OA
ENDROOT
BRANCH   1  14
ATOM      3  O   UNL     1      -0.901  12.994  18.208  0.00  0.00    +0.000 OA
ATOM      4  C   UNL     1      -1.292  12.641  19.316  0.00  0.00    +0.000 C 
ATOM      5  O   UNL     1      -2.533  13.023  19.829  0.00  0.00    +0.000 OA
ATOM      6  C   UNL     1      -2.876  12.743  21.172  0.00  0.00    +0.000 A 
ATOM      7  C   UNL     1      -4.170  13.043  21.589  0.00  0.00    +0.000 A 
ATOM      8  C   UNL     1      -4.506  12.852  22.928  0.00  0.00    +0.000 A 
ATOM      9  C   UNL     1      -3.544  12.395  23.834  0.00  0.00    +0.000 A 
ATOM     10  C   UNL     1      -2.254  12.080  23.395  0.00  0.00    +0.000 A 
ATOM     11  C   UNL     1      -1.927  12.202  22.046  0.00  0.00    +0.000 A 
ATOM     12  N   UNL     1      -0.662  11.844  21.560  0.00  0.00    +0.000 N 
ATOM     13  C   UNL     1      -0.530  11.688  20.190  0.00  0.00    +0.000 C 
ATOM     14  C   UNL     1       0.117  10.703  19.543  0.00  0.00    +0.000 C 
ATOM     15  H   UNL     1      -0.198  11.103  22.095  0.00  0.00    +0.000 HD
ENDBRANCH   1  14
BRANCH   1  16
ATOM     16  C   UNL     1       1.560   8.588  19.561  0.00  0.00    +0.000 A 
ATOM     17  C   UNL     1       1.982   7.381  20.119  0.00  0.00    +0.000 A 
ATOM     18  C   UNL     1       2.787   6.508  19.379  0.00  0.00    +0.000 A 
ATOM     19  C   UNL     1       3.194   6.812  18.063  0.00  0.00    +0.000 A 
ATOM     20  C   UNL     1       2.730   8.019  17.514  0.00  0.00    +0.000 A 
ATOM     21  C   UNL     1       1.928   8.893  18.244  0.00  0.00    +0.000 A 
BRANCH  19  22
ATOM     22  C   UNL     1       4.074   5.909  17.296  0.00  0.00    +0.000 A 
ATOM     23  C   UNL     1       4.994   6.405  16.356  0.00  0.00    +0.000 A 
ATOM     24  C   UNL     1       5.807   5.554  15.610  0.00  0.00    +0.000 A 
ATOM     25  C   UNL     1       5.726   4.176  15.792  0.00  0.00    +0.000 A 
ATOM     26  C   UNL     1       4.835   3.656  16.725  0.00  0.00    +0.000 A 
ATOM     27  C   UNL     1       4.019   4.511  17.466  0.00  0.00    +0.000 A 
ENDBRANCH  19  22
ENDBRANCH   1  16
TORSDOF 3
ENDMDL
MODEL 6
REMARK VINA RESULT:      -8.1      3.981      8.215
REMARK  Name = 
REMARK  3 active torsions:
REMARK  status: ('A' for Active; 'I' for Inactive)
REMARK    1  A    between atoms: C_12  and  C_13
REMARK    2  A    between atoms: C_13  and  C_15
REMARK    3  A    between atoms: C_18  and  C_19
REMARK                            x       y       z     vdW  Elec       q    Type
REMARK                         _______ _______ _______ _____ _____    ______ ____
ROOT
ATOM      1  C   UNL     1       1.435   8.477  19.828  0.00  0.00    +0.000 C 
ATOM      2  O   UNL     1       1.834   8.835  18.716  0.00  0.00    +0.000 OA
ENDROOT
BRANCH   1  14
ATOM      3  O   UNL     1       2.157   4.473  21.296  0.00  0.00    +0.000 OA
ATOM      4  C   UNL     1       2.625   4.892  20.243  0.00  0.00    +0.000 C 
ATOM      5  O   UNL     1       3.074   4.041  19.231  0.00  0.00    +0.000 OA
ATOM      6  C   UNL     1       3.765   4.553  18.109  0.00  0.00    +0.000 A 
ATOM      7  C   UNL     1       4.082   3.671  17.081  0.00  0.00    +0.000 A 
ATOM      8  C   UNL     1       4.833   4.136  16.003  0.00  0.00    +0.000 A 
ATOM      9  C   UNL     1       5.281   5.460  15.980  0.00  0.00    +0.000 A 
ATOM     10  C   UNL     1       4.938   6.340  17.012  0.00  0.00    +0.000 A 
ATOM     11  C   UNL     1       4.129   5.904  18.060  0.00  0.00    +0.000 A 
ATOM     12  N   UNL     1       3.720   6.769  19.082  0.00  0.00    +0.000 N 
ATOM     13  C   UNL     1       2.675   6.350  19.888  0.00  0.00    +0.000 C 
ATOM     14  C   UNL     1       1.623   7.079  20.301  0.00  0.00    +0.000 C 
ATOM     15  H   UNL     1       3.639   7.751  18.798  0.00  0.00    +0.000 HD
ENDBRANCH   1  14
BRANCH   1  16
ATOM     16  C   UNL     1       0.674   9.427  20.678  0.00  0.00    +0.000 A 
ATOM     17  C   UNL     1       0.230   9.111  21.962  0.00  0.00    +0.000 A 
ATOM     18  C   UNL     1      -0.496  10.048  22.705  0.00  0.00    +0.000 A 
ATOM     19  C   UNL     1      -0.800  11.326  22.190  0.00  0.00    +0.000 A 
ATOM     20  C   UNL     1      -0.315  11.630  20.908  0.00  0.00    +0.000 A 
ATOM     21  C   UNL     1       0.409  10.703  20.162  0.00  0.00    +0.000 A 
BRANCH  19  22
ATOM     22  C   UNL     1      -1.599  12.301  22.958  0.00  0.00    +0.000 A 
ATOM     23  C   UNL     1      -1.081  13.559  23.310  0.00  0.00    +0.000 A 
ATOM     24  C   UNL     1      -1.823  14.472  24.058  0.00  0.00    +0.000 A 
ATOM     25  C   UNL     1      -3.113  14.150  24.470  0.00  0.00    +0.000 A 
ATOM     26  C   UNL     1      -3.658  12.917  24.126  0.00  0.00    +0.000 A 
ATOM     27  C   UNL     1      -2.911  12.005  23.380  0.00  0.00    +0.000 A 
ENDBRANCH  19  22
ENDBRANCH   1  16
TORSDOF 3
ENDMDL
MODEL 7
REMARK VINA RESULT:      -8.1      4.595      7.659
REMARK  Name = 
REMARK  3 active torsions:
REMARK  status: ('A' for Active; 'I' for Inactive)
REMARK    1  A    between atoms: C_12  and  C_13
REMARK    2  A    between atoms: C_13  and  C_15
REMARK    3  A    between atoms: C_18  and  C_19
REMARK                            x       y       z     vdW  Elec       q    Type
REMARK                         _______ _______ _______ _____ _____    ______ ____
ROOT
ATOM      1  C   UNL     1       0.632   9.232  20.045  0.00  0.00    +0.000 C 
ATOM      2  O   UNL     1       0.185   8.918  21.151  0.00  0.00    +0.000 OA
ENDROOT
BRANCH   1  14
ATOM      3  O   UNL     1      -0.725  12.802  18.016  0.00  0.00    +0.000 OA
ATOM      4  C   UNL     1      -1.132  12.469  19.124  0.00  0.00    +0.000 C 
ATOM      5  O   UNL     1      -2.332  12.945  19.656  0.00  0.00    +0.000 OA
ATOM      6  C   UNL     1      -2.683  12.678  20.999  0.00  0.00    +0.000 A 
ATOM      7  C   UNL     1      -3.943  13.077  21.434  0.00  0.00    +0.000 A 
ATOM      8  C   UNL     1      -4.280  12.898  22.775  0.00  0.00    +0.000 A 
ATOM      9  C   UNL     1      -3.348  12.354  23.664  0.00  0.00    +0.000 A 
ATOM     10  C   UNL     1      -2.093  11.940  23.208  0.00  0.00    +0.000 A 
ATOM     11  C   UNL     1      -1.772  12.051  21.856  0.00  0.00    +0.000 A 
ATOM     12  N   UNL     1      -0.546  11.598  21.352  0.00  0.00    +0.000 N 
ATOM     13  C   UNL     1      -0.440  11.448  19.979  0.00  0.00    +0.000 C 
ATOM     14  C   UNL     1       0.117  10.420  19.314  0.00  0.00    +0.000 C 
ATOM     15  H   UNL     1      -0.137  10.815  21.873  0.00  0.00    +0.000 HD
ENDBRANCH   1  14
BRANCH   1  16
ATOM     16  C   UNL     1       1.640   8.364  19.384  0.00  0.00    +0.000 A 
ATOM     17  C   UNL     1       2.120   7.186  19.957  0.00  0.00    +0.000 A 
ATOM     18  C   UNL     1       3.081   6.420  19.288  0.00  0.00    +0.000 A 
ATOM     19  C   UNL     1       3.591   6.806  18.030  0.00  0.00    +0.000 A 
ATOM     20  C   UNL     1       3.069   7.980  17.462  0.00  0.00    +0.000 A 
ATOM     21  C   UNL     1       2.111   8.747  18.122  0.00  0.00    +0.000 A 
BRANCH  19  22
ATOM     22  C   UNL     1       4.633   6.020  17.341  0.00  0.00    +0.000 A 
ATOM     23  C   UNL     1       4.368   4.737  16.832  0.00  0.00    +0.000 A 
ATOM     24  C   UNL     1       5.356   3.981  16.205  0.00  0.00    +0.000 A 
ATOM     25  C   UNL     1       6.643   4.496  16.063  0.00  0.00    +0.000 A 
ATOM     26  C   UNL     1       6.932   5.769  16.545  0.00  0.00    +0.000 A 
ATOM     27  C   UNL     1       5.940   6.520  17.176  0.00  0.00    +0.000 A 
ENDBRANCH  19  22
ENDBRANCH   1  16
TORSDOF 3
ENDMDL
MODEL 8
REMARK VINA RESULT:      -8.1      4.976      8.146
REMARK  Name = 
REMARK  3 active torsions:
REMARK  status: ('A' for Active; 'I' for Inactive)
REMARK    1  A    between atoms: C_12  and  C_13
REMARK    2  A    between atoms: C_13  and  C_15
REMARK    3  A    between atoms: C_18  and  C_19
REMARK                            x       y       z     vdW  Elec       q    Type
REMARK                         _______ _______ _______ _____ _____    ______ ____
ROOT
ATOM      1  C   UNL     1       0.467   9.918  20.278  0.00  0.00    +0.000 C 
ATOM      2  O   UNL     1       0.681  10.196  21.461  0.00  0.00    +0.000 OA
ENDROOT
BRANCH   1  14
ATOM      3  O   UNL     1      -2.761  11.802  18.101  0.00  0.00    +0.000 OA
ATOM      4  C   UNL     1      -2.559  11.996  19.295  0.00  0.00    +0.000 C 
ATOM      5  O   UNL     1      -3.546  12.488  20.152  0.00  0.00    +0.000 OA
ATOM      6  C   UNL     1      -3.229  12.862  21.478  0.00  0.00    +0.000 A 
ATOM      7  C   UNL     1      -4.276  13.233  22.317  0.00  0.00    +0.000 A 
ATOM      8  C   UNL     1      -3.980  13.684  23.603  0.00  0.00    +0.000 A 
ATOM      9  C   UNL     1      -2.651  13.786  24.021  0.00  0.00    +0.000 A 
ATOM     10  C   UNL     1      -1.611  13.391  23.173  0.00  0.00    +0.000 A 
ATOM     11  C   UNL     1      -1.899  12.874  21.911  0.00  0.00    +0.000 A 
ATOM     12  N   UNL     1      -0.888  12.418  21.055  0.00  0.00    +0.000 N 
ATOM     13  C   UNL     1      -1.273  11.635  19.979  0.00  0.00    +0.000 C 
ATOM     14  C   UNL     1      -0.683  10.508  19.542  0.00  0.00    +0.000 C 
ATOM     15  H   UNL     1      -0.057  12.059  21.536  0.00  0.00    +0.000 HD
ENDBRANCH   1  14
BRANCH   1  16
ATOM     16  C   UNL     1       1.314   8.907  19.595  0.00  0.00    +0.000 A 
ATOM     17  C   UNL     1       1.734   7.726  20.209  0.00  0.00    +0.000 A 
ATOM     18  C   UNL     1       2.544   6.822  19.514  0.00  0.00    +0.000 A 
ATOM     19  C   UNL     1       2.958   7.068  18.188  0.00  0.00    +0.000 A 
ATOM     20  C   UNL     1       2.497   8.248  17.582  0.00  0.00    +0.000 A 
ATOM     21  C   UNL     1       1.690   9.153  18.268  0.00  0.00    +0.000 A 
BRANCH  19  22
ATOM     22  C   UNL     1       3.844   6.133  17.467  0.00  0.00    +0.000 A 
ATOM     23  C   UNL     1       3.746   4.743  17.646  0.00  0.00    +0.000 A 
ATOM     24  C   UNL     1       4.599   3.859  16.987  0.00  0.00    +0.000 A 
ATOM     25  C   UNL     1       5.574   4.346  16.121  0.00  0.00    +0.000 A 
ATOM     26  C   UNL     1       5.687   5.718  15.913  0.00  0.00    +0.000 A 
ATOM     27  C   UNL     1       4.834   6.599  16.578  0.00  0.00    +0.000 A 
ENDBRANCH  19  22
ENDBRANCH   1  16
TORSDOF 3
ENDMDL
MODEL 9
REMARK VINA RESULT:      -8.0      2.274      6.564
REMARK  Name = 
REMARK  3 active torsions:
REMARK  status: ('A' for Active; 'I' for Inactive)
REMARK    1  A    between atoms: C_12  and  C_13
REMARK    2  A    between atoms: C_13  and  C_15
REMARK    3  A    between atoms: C_18  and  C_19
REMARK                            x       y       z     vdW  Elec       q    Type
REMARK                         _______ _______ _______ _____ _____    ______ ____
ROOT
ATOM      1  C   UNL     1       3.141   3.586  18.241  0.00  0.00    +0.000 C 
ATOM      2  O   UNL     1       3.065   2.468  18.758  0.00  0.00    +0.000 OA
ENDROOT
BRANCH   1  14
ATOM      3  O   UNL     1       5.298   4.025  14.518  0.00  0.00    +0.000 OA
ATOM      4  C   UNL     1       5.643   4.576  15.558  0.00  0.00    +0.000 C 
ATOM      5  O   UNL     1       6.483   5.691  15.573  0.00  0.00    +0.000 OA
ATOM      6  C   UNL     1       6.998   6.192  16.790  0.00  0.00    +0.000 A 
ATOM      7  C   UNL     1       7.732   7.374  16.750  0.00  0.00    +0.000 A 
ATOM      8  C   UNL     1       8.318   7.843  17.925  0.00  0.00    +0.000 A 
ATOM      9  C   UNL     1       8.190   7.114  19.110  0.00  0.00    +0.000 A 
ATOM     10  C   UNL     1       7.434   5.938  19.139  0.00  0.00    +0.000 A 
ATOM     11  C   UNL     1       6.786   5.497  17.986  0.00  0.00    +0.000 A 
ATOM     12  N   UNL     1       5.976   4.354  17.989  0.00  0.00    +0.000 N 
ATOM     13  C   UNL     1       5.127   4.176  16.909  0.00  0.00    +0.000 C 
ATOM     14  C   UNL     1       3.839   3.790  16.943  0.00  0.00    +0.000 C 
ATOM     15  H   UNL     1       5.528   4.155  18.889  0.00  0.00    +0.000 HD
ENDBRANCH   1  14
BRANCH   1  16
ATOM     16  C   UNL     1       2.607   4.769  18.963  0.00  0.00    +0.000 A 
ATOM     17  C   UNL     1       1.971   4.680  20.202  0.00  0.00    +0.000 A 
ATOM     18  C   UNL     1       1.477   5.832  20.823  0.00  0.00    +0.000 A 
ATOM     19  C   UNL     1       1.603   7.105  20.227  0.00  0.00    +0.000 A 
ATOM     20  C   UNL     1       2.274   7.171  18.995  0.00  0.00    +0.000 A 
ATOM     21  C   UNL     1       2.769   6.028  18.371  0.00  0.00    +0.000 A 
BRANCH  19  22
ATOM     22  C   UNL     1       1.048   8.317  20.863  0.00  0.00    +0.000 A 
ATOM     23  C   UNL     1       0.504   8.282  22.157  0.00  0.00    +0.000 A 
ATOM     24  C   UNL     1      -0.045   9.418  22.750  0.00  0.00    +0.000 A 
ATOM     25  C   UNL     1      -0.057  10.628  22.060  0.00  0.00    +0.000 A 
ATOM     26  C   UNL     1       0.488  10.696  20.781  0.00  0.00    +0.000 A 
ATOM     27  C   UNL     1       1.032   9.555  20.191  0.00  0.00    +0.000 A 
ENDBRANCH  19  22
ENDBRANCH   1  16
TORSDOF 3
ENDMDL
