MODEL 1
REMARK VINA RESULT:      -8.7      0.000      0.000
REMARK  Name = 
REMARK  0 active torsions:
REMARK  status: ('A' for Active; 'I' for Inactive)
REMARK                            x       y       z     vdW  Elec       q    Type
REMARK                         _______ _______ _______ _____ _____    ______ ____
ROOT
ATOM      1  O   UNL     1       1.999   3.414  16.563  0.00  0.00    +0.000 OA
ATOM      2  C   UNL     1       2.666   3.600  17.558  0.00  0.00    +0.000 C 
ATOM      3  C   UNL     1       2.225   3.396  18.945  0.00  0.00    +0.000 A 
ATOM      4  C   UNL     1       1.011   2.956  19.436  0.00  0.00    +0.000 A 
ATOM      5  C   UNL     1       0.887   2.840  20.823  0.00  0.00    +0.000 A 
ATOM      6  C   UNL     1       1.964   3.158  21.671  0.00  0.00    +0.000 A 
ATOM      7  C   UNL     1       3.186   3.600  21.147  0.00  0.00    +0.000 A 
ATOM      8  C   UNL     1       3.298   3.718  19.772  0.00  0.00    +0.000 A 
ATOM      9  C   UNL     1       4.406   4.114  18.931  0.00  0.00    +0.000 A 
ATOM     10  N   UNL     1       5.645   4.466  19.367  0.00  0.00    +0.000 N 
ATOM     11  C   UNL     1       6.679   4.766  18.506  0.00  0.00    +0.000 A 
ATOM     12  O   UNL     1       7.784   5.094  18.925  0.00  0.00    +0.000 OA
ATOM     13  C   UNL     1       6.383   4.654  17.046  0.00  0.00    +0.000 A 
ATOM     14  C   UNL     1       7.421   4.830  16.126  0.00  0.00    +0.000 A 
ATOM     15  C   UNL     1       7.163   4.697  14.764  0.00  0.00    +0.000 A 
ATOM     16  C   UNL     1       5.867   4.425  14.324  0.00  0.00    +0.000 A 
ATOM     17  C   UNL     1       4.824   4.253  15.241  0.00  0.00    +0.000 A 
ATOM     18  C   UNL     1       5.076   4.337  16.613  0.00  0.00    +0.000 A 
ATOM     19  C   UNL     1       4.076   4.054  17.634  0.00  0.00    +0.000 A 
ATOM     20  H   UNL     1       5.861   4.510  20.354  0.00  0.00    +0.000 HD
ENDROOT
TORSDOF 0
ENDMDL
MODEL 2
REMARK VINA RESULT:      -8.0      2.449      5.277
REMARK  Name = 
REMARK  0 active torsions:
REMARK  status: ('A' for Active; 'I' for Inactive)
REMARK                            x       y       z     vdW  Elec       q    Type
REMARK                         _______ _______ _______ _____ _____    ______ ____
ROOT
ATOM      1  O   UNL     1       3.561   6.949  16.816  0.00  0.00    +0.000 OA
ATOM      2  C   UNL     1       4.392   6.333  17.449  0.00  0.00    +0.000 C 
ATOM      3  C   UNL     1       5.774   6.760  17.707  0.00  0.00    +0.000 A 
ATOM      4  C   UNL     1       6.435   7.912  17.324  0.00  0.00    +0.000 A 
ATOM      5  C   UNL     1       7.761   8.056  17.739  0.00  0.00    +0.000 A 
ATOM      6  C   UNL     1       8.383   7.063  18.516  0.00  0.00    +0.000 A 
ATOM      7  C   UNL     1       7.691   5.905  18.893  0.00  0.00    +0.000 A 
ATOM      8  C   UNL     1       6.379   5.767  18.473  0.00  0.00    +0.000 A 
ATOM      9  C   UNL     1       5.401   4.727  18.706  0.00  0.00    +0.000 A 
ATOM     10  N   UNL     1       5.602   3.604  19.446  0.00  0.00    +0.000 N 
ATOM     11  C   UNL     1       4.603   2.685  19.687  0.00  0.00    +0.000 A 
ATOM     12  O   UNL     1       4.813   1.672  20.347  0.00  0.00    +0.000 OA
ATOM     13  C   UNL     1       3.257   2.998  19.117  0.00  0.00    +0.000 A 
ATOM     14  C   UNL     1       2.178   2.166  19.426  0.00  0.00    +0.000 A 
ATOM     15  C   UNL     1       0.913   2.466  18.925  0.00  0.00    +0.000 A 
ATOM     16  C   UNL     1       0.739   3.572  18.092  0.00  0.00    +0.000 A 
ATOM     17  C   UNL     1       1.818   4.404  17.776  0.00  0.00    +0.000 A 
ATOM     18  C   UNL     1       3.083   4.144  18.308  0.00  0.00    +0.000 A 
ATOM     19  C   UNL     1       4.231   5.024  18.127  0.00  0.00    +0.000 A 
ATOM     20  H   UNL     1       6.500   3.404  19.864  0.00  0.00    +0.000 HD
ENDROOT
TORSDOF 0
ENDMDL
MODEL 3
REMARK VINA RESULT:      -7.8      3.996      4.183
REMARK  Name = 
REMARK  0 active torsions:
REMARK  status: ('A' for Active; 'I' for Inactive)
REMARK                            x       y       z     vdW  Elec       q    Type
REMARK                         _______ _______ _______ _____ _____    ______ ____
ROOT
ATOM      1  O   UNL     1       2.660   9.158  17.055  0.00  0.00    +0.000 OA
ATOM      2  C   UNL     1       2.529   8.440  18.022  0.00  0.00    +0.000 C 
ATOM      3  C   UNL     1       1.647   8.687  19.172  0.00  0.00    +0.000 A 
ATOM      4  C   UNL     1       0.784   9.738  19.420  0.00  0.00    +0.000 A 
ATOM      5  C   UNL     1       0.047   9.694  20.606  0.00  0.00    +0.000 A 
ATOM      6  C   UNL     1       0.185   8.615  21.498  0.00  0.00    +0.000 A 
ATOM      7  C   UNL     1       1.064   7.561  21.222  0.00  0.00    +0.000 A 
ATOM      8  C   UNL     1       1.796   7.616  20.048  0.00  0.00    +0.000 A 
ATOM      9  C   UNL     1       2.751   6.697  19.468  0.00  0.00    +0.000 A 
ATOM     10  N   UNL     1       3.134   5.509  20.009  0.00  0.00    +0.000 N 
ATOM     11  C   UNL     1       3.998   4.646  19.369  0.00  0.00    +0.000 A 
ATOM     12  O   UNL     1       4.339   3.586  19.884  0.00  0.00    +0.000 OA
ATOM     13  C   UNL     1       4.478   5.064  18.017  0.00  0.00    +0.000 A 
ATOM     14  C   UNL     1       5.260   4.179  17.269  0.00  0.00    +0.000 A 
ATOM     15  C   UNL     1       5.686   4.547  15.995  0.00  0.00    +0.000 A 
ATOM     16  C   UNL     1       5.362   5.806  15.488  0.00  0.00    +0.000 A 
ATOM     17  C   UNL     1       4.584   6.697  16.236  0.00  0.00    +0.000 A 
ATOM     18  C   UNL     1       4.108   6.325  17.496  0.00  0.00    +0.000 A 
ATOM     19  C   UNL     1       3.197   7.142  18.287  0.00  0.00    +0.000 A 
ATOM     20  H   UNL     1       2.785   5.204  20.907  0.00  0.00    +0.000 HD
ENDROOT
TORSDOF 0
ENDMDL
MODEL 4
REMARK VINA RESULT:      -7.8      4.472      5.202
REMARK  Name = 
REMARK  0 active torsions:
REMARK  status: ('A' for Active; 'I' for Inactive)
REMARK                            x       y       z     vdW  Elec       q    Type
REMARK                         _______ _______ _______ _____ _____    ______ ____
ROOT
ATOM      1  O   UNL     1       2.678   8.528  17.268  0.00  0.00    +0.000 OA
ATOM      2  C   UNL     1       2.292   8.196  18.368  0.00  0.00    +0.000 C 
ATOM      3  C   UNL     1       1.509   9.024  19.296  0.00  0.00    +0.000 A 
ATOM      4  C   UNL     1       1.032  10.312  19.152  0.00  0.00    +0.000 A 
ATOM      5  C   UNL     1       0.288  10.841  20.210  0.00  0.00    +0.000 A 
ATOM      6  C   UNL     1       0.041  10.080  21.366  0.00  0.00    +0.000 A 
ATOM      7  C   UNL     1       0.534   8.774  21.487  0.00  0.00    +0.000 A 
ATOM      8  C   UNL     1       1.275   8.260  20.437  0.00  0.00    +0.000 A 
ATOM      9  C   UNL     1       1.892   6.967  20.241  0.00  0.00    +0.000 A 
ATOM     10  N   UNL     1       1.850   5.928  21.119  0.00  0.00    +0.000 N 
ATOM     11  C   UNL     1       2.401   4.696  20.839  0.00  0.00    +0.000 A 
ATOM     12  O   UNL     1       2.362   3.780  21.653  0.00  0.00    +0.000 OA
ATOM     13  C   UNL     1       3.028   4.537  19.492  0.00  0.00    +0.000 A 
ATOM     14  C   UNL     1       3.497   3.278  19.105  0.00  0.00    +0.000 A 
ATOM     15  C   UNL     1       4.055   3.112  17.839  0.00  0.00    +0.000 A 
ATOM     16  C   UNL     1       4.175   4.207  16.982  0.00  0.00    +0.000 A 
ATOM     17  C   UNL     1       3.712   5.469  17.368  0.00  0.00    +0.000 A 
ATOM     18  C   UNL     1       3.106   5.642  18.615  0.00  0.00    +0.000 A 
ATOM     19  C   UNL     1       2.491   6.891  19.046  0.00  0.00    +0.000 A 
ATOM     20  H   UNL     1       1.396   6.019  22.017  0.00  0.00    +0.000 HD
ENDROOT
TORSDOF 0
ENDMDL
MODEL 5
REMARK VINA RESULT:      -7.5      4.408      6.226
REMARK  Name = 
REMARK  0 active torsions:
REMARK  status: ('A' for Active; 'I' for Inactive)
REMARK                            x       y       z     vdW  Elec       q    Type
REMARK                         _______ _______ _______ _____ _____    ______ ____
ROOT
ATOM      1  O   UNL     1       2.029   4.905  21.293  0.00  0.00    +0.000 OA
ATOM      2  C   UNL     1       2.413   5.359  20.236  0.00  0.00    +0.000 C 
ATOM      3  C   UNL     1       3.146   4.626  19.194  0.00  0.00    +0.000 A 
ATOM      4  C   UNL     1       3.550   3.305  19.155  0.00  0.00    +0.000 A 
ATOM      5  C   UNL     1       4.222   2.877  18.007  0.00  0.00    +0.000 A 
ATOM      6  C   UNL     1       4.466   3.764  16.944  0.00  0.00    +0.000 A 
ATOM      7  C   UNL     1       4.044   5.098  17.008  0.00  0.00    +0.000 A 
ATOM      8  C   UNL     1       3.385   5.516  18.151  0.00  0.00    +0.000 A 
ATOM      9  C   UNL     1       2.811   6.793  18.515  0.00  0.00    +0.000 A 
ATOM     10  N   UNL     1       2.806   7.909  17.737  0.00  0.00    +0.000 N 
ATOM     11  C   UNL     1       2.178   9.076  18.116  0.00  0.00    +0.000 A 
ATOM     12  O   UNL     1       2.199  10.074  17.403  0.00  0.00    +0.000 OA
ATOM     13  C   UNL     1       1.462   9.052  19.428  0.00  0.00    +0.000 A 
ATOM     14  C   UNL     1       0.709  10.165  19.813  0.00  0.00    +0.000 A 
ATOM     15  C   UNL     1       0.013  10.141  21.019  0.00  0.00    +0.000 A 
ATOM     16  C   UNL     1       0.100   9.024  21.851  0.00  0.00    +0.000 A 
ATOM     17  C   UNL     1       0.858   7.910  21.472  0.00  0.00    +0.000 A 
ATOM     18  C   UNL     1       1.523   7.900  20.244  0.00  0.00    +0.000 A 
ATOM     19  C   UNL     1       2.233   6.739  19.722  0.00  0.00    +0.000 A 
ATOM     20  H   UNL     1       3.258   7.920  16.833  0.00  0.00    +0.000 HD
ENDROOT
TORSDOF 0
ENDMDL
MODEL 6
REMARK VINA RESULT:      -7.5      1.999      5.794
REMARK  Name = 
REMARK  0 active torsions:
REMARK  status: ('A' for Active; 'I' for Inactive)
REMARK                            x       y       z     vdW  Elec       q    Type
REMARK                         _______ _______ _______ _____ _____    ______ ____
ROOT
ATOM      1  O   UNL     1       3.718   7.001  17.547  0.00  0.00    +0.000 OA
ATOM      2  C   UNL     1       4.108   5.892  17.253  0.00  0.00    +0.000 C 
ATOM      3  C   UNL     1       5.074   5.566  16.194  0.00  0.00    +0.000 A 
ATOM      4  C   UNL     1       5.753   6.398  15.324  0.00  0.00    +0.000 A 
ATOM      5  C   UNL     1       6.637   5.798  14.424  0.00  0.00    +0.000 A 
ATOM      6  C   UNL     1       6.820   4.403  14.419  0.00  0.00    +0.000 A 
ATOM      7  C   UNL     1       6.122   3.582  15.314  0.00  0.00    +0.000 A 
ATOM      8  C   UNL     1       5.243   4.185  16.197  0.00  0.00    +0.000 A 
ATOM      9  C   UNL     1       4.406   3.636  17.242  0.00  0.00    +0.000 A 
ATOM     10  N   UNL     1       4.324   2.321  17.582  0.00  0.00    +0.000 N 
ATOM     11  C   UNL     1       3.557   1.873  18.636  0.00  0.00    +0.000 A 
ATOM     12  O   UNL     1       3.489   0.681  18.915  0.00  0.00    +0.000 OA
ATOM     13  C   UNL     1       2.833   2.916  19.424  0.00  0.00    +0.000 A 
ATOM     14  C   UNL     1       2.135   2.537  20.574  0.00  0.00    +0.000 A 
ATOM     15  C   UNL     1       1.483   3.506  21.333  0.00  0.00    +0.000 A 
ATOM     16  C   UNL     1       1.498   4.840  20.923  0.00  0.00    +0.000 A 
ATOM     17  C   UNL     1       2.191   5.222  19.769  0.00  0.00    +0.000 A 
ATOM     18  C   UNL     1       2.890   4.270  19.023  0.00  0.00    +0.000 A 
ATOM     19  C   UNL     1       3.732   4.601  17.880  0.00  0.00    +0.000 A 
ATOM     20  H   UNL     1       4.840   1.615  17.075  0.00  0.00    +0.000 HD
ENDROOT
TORSDOF 0
ENDMDL
MODEL 7
REMARK VINA RESULT:      -7.4      1.797      5.532
REMARK  Name = 
REMARK  0 active torsions:
REMARK  status: ('A' for Active; 'I' for Inactive)
REMARK                            x       y       z     vdW  Elec       q    Type
REMARK                         _______ _______ _______ _____ _____    ______ ____
ROOT
ATOM      1  O   UNL     1       2.423   6.034  17.415  0.00  0.00    +0.000 OA
ATOM      2  C   UNL     1       3.428   5.394  17.639  0.00  0.00    +0.000 C 
ATOM      3  C   UNL     1       4.725   5.558  16.968  0.00  0.00    +0.000 A 
ATOM      4  C   UNL     1       5.108   6.441  15.977  0.00  0.00    +0.000 A 
ATOM      5  C   UNL     1       6.434   6.378  15.541  0.00  0.00    +0.000 A 
ATOM      6  C   UNL     1       7.331   5.452  16.102  0.00  0.00    +0.000 A 
ATOM      7  C   UNL     1       6.919   4.569  17.108  0.00  0.00    +0.000 A 
ATOM      8  C   UNL     1       5.602   4.633  17.528  0.00  0.00    +0.000 A 
ATOM      9  C   UNL     1       4.881   3.895  18.543  0.00  0.00    +0.000 A 
ATOM     10  N   UNL     1       5.407   2.927  19.340  0.00  0.00    +0.000 N 
ATOM     11  C   UNL     1       4.682   2.310  20.337  0.00  0.00    +0.000 A 
ATOM     12  O   UNL     1       5.175   1.429  21.035  0.00  0.00    +0.000 OA
ATOM     13  C   UNL     1       3.277   2.783  20.529  0.00  0.00    +0.000 A 
ATOM     14  C   UNL     1       2.531   2.281  21.599  0.00  0.00    +0.000 A 
ATOM     15  C   UNL     1       1.232   2.739  21.805  0.00  0.00    +0.000 A 
ATOM     16  C   UNL     1       0.672   3.666  20.925  0.00  0.00    +0.000 A 
ATOM     17  C   UNL     1       1.414   4.167  19.850  0.00  0.00    +0.000 A 
ATOM     18  C   UNL     1       2.735   3.754  19.657  0.00  0.00    +0.000 A 
ATOM     19  C   UNL     1       3.613   4.313  18.638  0.00  0.00    +0.000 A 
ATOM     20  H   UNL     1       6.367   2.627  19.239  0.00  0.00    +0.000 HD
ENDROOT
TORSDOF 0
ENDMDL
MODEL 8
REMARK VINA RESULT:      -7.3      1.452      1.453
REMARK  Name = 
REMARK  0 active torsions:
REMARK  status: ('A' for Active; 'I' for Inactive)
REMARK                            x       y       z     vdW  Elec       q    Type
REMARK                         _______ _______ _______ _____ _____    ______ ____
ROOT
ATOM      1  O   UNL     1       3.116   1.768  17.049  0.00  0.00    +0.000 OA
ATOM      2  C   UNL     1       3.234   2.789  17.690  0.00  0.00    +0.000 C 
ATOM      3  C   UNL     1       2.595   3.080  18.981  0.00  0.00    +0.000 A 
ATOM      4  C   UNL     1       1.754   2.299  19.752  0.00  0.00    +0.000 A 
ATOM      5  C   UNL     1       1.311   2.839  20.962  0.00  0.00    +0.000 A 
ATOM      6  C   UNL     1       1.717   4.124  21.367  0.00  0.00    +0.000 A 
ATOM      7  C   UNL     1       2.572   4.894  20.568  0.00  0.00    +0.000 A 
ATOM      8  C   UNL     1       3.001   4.354  19.368  0.00  0.00    +0.000 A 
ATOM      9  C   UNL     1       3.888   4.868  18.347  0.00  0.00    +0.000 A 
ATOM     10  N   UNL     1       4.521   6.071  18.382  0.00  0.00    +0.000 N 
ATOM     11  C   UNL     1       5.410   6.471  17.407  0.00  0.00    +0.000 A 
ATOM     12  O   UNL     1       5.959   7.567  17.454  0.00  0.00    +0.000 OA
ATOM     13  C   UNL     1       5.678   5.494  16.308  0.00  0.00    +0.000 A 
ATOM     14  C   UNL     1       6.656   5.793  15.356  0.00  0.00    +0.000 A 
ATOM     15  C   UNL     1       6.935   4.876  14.345  0.00  0.00    +0.000 A 
ATOM     16  C   UNL     1       6.213   3.684  14.268  0.00  0.00    +0.000 A 
ATOM     17  C   UNL     1       5.229   3.383  15.216  0.00  0.00    +0.000 A 
ATOM     18  C   UNL     1       4.970   4.271  16.263  0.00  0.00    +0.000 A 
ATOM     19  C   UNL     1       4.050   3.983  17.356  0.00  0.00    +0.000 A 
ATOM     20  H   UNL     1       4.372   6.721  19.141  0.00  0.00    +0.000 HD
ENDROOT
TORSDOF 0
ENDMDL
MODEL 9
REMARK VINA RESULT:      -7.2      2.336      5.568
REMARK  Name = 
REMARK  0 active torsions:
REMARK  status: ('A' for Active; 'I' for Inactive)
REMARK                            x       y       z     vdW  Elec       q    Type
REMARK                         _______ _______ _______ _____ _____    ______ ____
ROOT
ATOM      1  O   UNL     1       2.803   6.907  17.973  0.00  0.00    +0.000 OA
ATOM      2  C   UNL     1       3.772   6.208  18.176  0.00  0.00    +0.000 C 
ATOM      3  C   UNL     1       5.156   6.511  17.782  0.00  0.00    +0.000 A 
ATOM      4  C   UNL     1       5.672   7.612  17.127  0.00  0.00    +0.000 A 
ATOM      5  C   UNL     1       7.051   7.634  16.902  0.00  0.00    +0.000 A 
ATOM      6  C   UNL     1       7.867   6.574  17.335  0.00  0.00    +0.000 A 
ATOM      7  C   UNL     1       7.318   5.469  18.000  0.00  0.00    +0.000 A 
ATOM      8  C   UNL     1       5.951   5.452  18.212  0.00  0.00    +0.000 A 
ATOM      9  C   UNL     1       5.094   4.492  18.874  0.00  0.00    +0.000 A 
ATOM     10  N   UNL     1       5.507   3.338  19.464  0.00  0.00    +0.000 N 
ATOM     11  C   UNL     1       4.646   2.501  20.141  0.00  0.00    +0.000 A 
ATOM     12  O   UNL     1       5.040   1.458  20.653  0.00  0.00    +0.000 OA
ATOM     13  C   UNL     1       3.220   2.940  20.228  0.00  0.00    +0.000 A 
ATOM     14  C   UNL     1       2.324   2.194  21.000  0.00  0.00    +0.000 A 
ATOM     15  C   UNL     1       1.001   2.612  21.112  0.00  0.00    +0.000 A 
ATOM     16  C   UNL     1       0.568   3.749  20.428  0.00  0.00    +0.000 A 
ATOM     17  C   UNL     1       1.460   4.495  19.649  0.00  0.00    +0.000 A 
ATOM     18  C   UNL     1       2.803   4.116  19.564  0.00  0.00    +0.000 A 
ATOM     19  C   UNL     1       3.819   4.900  18.875  0.00  0.00    +0.000 A 
ATOM     20  H   UNL     1       6.476   3.054  19.440  0.00  0.00    +0.000 HD
ENDROOT
TORSDOF 0
ENDMDL
