MODEL 1
REMARK VINA RESULT:      -8.2      0.000      0.000
REMARK  Name = 
REMARK  7 active torsions:
REMARK  status: ('A' for Active; 'I' for Inactive)
REMARK    1  A    between atoms: C_1  and  C_2
REMARK    2  A    between atoms: N_4  and  C_5
REMARK    3  A    between atoms: C_8  and  C_9
REMARK    4  A    between atoms: C_9  and  N_10
REMARK    5  A    between atoms: C_15  and  C_16
REMARK    6  A    between atoms: N_18  and  C_19
REMARK    7  A    between atoms: N_23  and  C_24
REMARK                            x       y       z     vdW  Elec       q    Type
REMARK                         _______ _______ _______ _____ _____    ______ ____
ROOT
ATOM      1  N   UNL     1       6.902   5.909  16.993  0.00  0.00    +0.000 NA
ATOM      2  C   UNL     1       6.993   4.934  18.077  0.00  0.00    +0.000 C 
ATOM      3  C   UNL     1       5.644   4.615  18.727  0.00  0.00    +0.000 C 
ATOM      4  C   UNL     1       4.432   4.434  17.762  0.00  0.00    +0.000 C 
ATOM      5  C   UNL     1       4.580   5.147  16.395  0.00  0.00    +0.000 C 
ATOM      6  C   UNL     1       6.025   5.360  15.919  0.00  0.00    +0.000 C 
ATOM      7  C   UNL     1       6.544   4.058  15.272  0.00  0.00    +0.000 C 
ATOM      8  C   UNL     1       4.190   2.876  17.541  0.00  0.00    +0.000 C 
ATOM      9  N   UNL     1       2.973   2.465  18.322  0.00  0.00    +0.000 NA
ATOM     10  C   UNL     1       3.276   1.978  19.686  0.00  0.00    +0.000 C 
ATOM     11  S   UNL     1       1.910   3.796  18.284  0.00  0.00    +0.000 S 
ATOM     12  O   UNL     1       1.419   3.947  16.930  0.00  0.00    +0.000 OA
ATOM     13  O   UNL     1       1.030   3.779  19.433  0.00  0.00    +0.000 OA
ATOM     14  N   UNL     1       3.176   4.893  18.493  0.00  0.00    +0.000 N 
ENDROOT
BRANCH  14  15
ATOM     15  C   UNL     1       2.806   6.248  18.768  0.00  0.00    +0.000 A 
ATOM     16  C   UNL     1       2.394   6.540  20.073  0.00  0.00    +0.000 A 
ATOM     17  C   UNL     1       1.910   7.809  20.404  0.00  0.00    +0.000 A 
ATOM     18  C   UNL     1       1.851   8.802  19.430  0.00  0.00    +0.000 A 
ATOM     19  C   UNL     1       2.256   8.508  18.134  0.00  0.00    +0.000 A 
ATOM     20  F   UNL     1       2.186   9.462  17.195  0.00  0.00    +0.000 F 
ATOM     21  C   UNL     1       2.711   7.237  17.788  0.00  0.00    +0.000 A 
ENDBRANCH  14  15
BRANCH   1  22
ATOM     22  C   UNL     1       6.429   7.241  17.486  0.00  0.00    +0.000 C 
BRANCH  22  26
ATOM     23  C   UNL     1       8.977  10.538  18.783  0.00  0.00    +0.000 A 
ATOM     24  C   UNL     1       8.063  10.723  17.742  0.00  0.00    +0.000 A 
ATOM     25  C   UNL     1       7.301   9.649  17.234  0.00  0.00    +0.000 A 
ATOM     26  C   UNL     1       7.449   8.355  17.741  0.00  0.00    +0.000 A 
ATOM     27  C   UNL     1       8.472   8.154  18.689  0.00  0.00    +0.000 A 
ATOM     28  C   UNL     1       9.225   9.228  19.203  0.00  0.00    +0.000 A 
BRANCH  23  32
ATOM     29  C   UNL     1      11.236  13.286  20.107  0.00  0.00    +0.000 C 
ATOM     30  C   UNL     1      10.941  11.970  19.418  0.00  0.00    +0.000 C 
ATOM     31  O   UNL     1      11.842  11.355  18.856  0.00  0.00    +0.000 OA
ATOM     32  N   UNL     1       9.605  11.596  19.494  0.00  0.00    +0.000 N 
ATOM     33  H   UNL     1       8.992  12.212  20.013  0.00  0.00    +0.000 HD
ENDBRANCH  23  32
ENDBRANCH  22  26
ENDBRANCH   1  22
TORSDOF 4
ENDMDL
MODEL 2
REMARK VINA RESULT:      -7.7      0.855      1.197
REMARK  Name = 
REMARK  7 active torsions:
REMARK  status: ('A' for Active; 'I' for Inactive)
REMARK    1  A    between atoms: C_1  and  C_2
REMARK    2  A    between atoms: N_4  and  C_5
REMARK    3  A    between atoms: C_8  and  C_9
REMARK    4  A    between atoms: C_9  and  N_10
REMARK    5  A    between atoms: C_15  and  C_16
REMARK    6  A    between atoms: N_18  and  C_19
REMARK    7  A    between atoms: N_23  and  C_24
REMARK                            x       y       z     vdW  Elec       q    Type
REMARK                         _______ _______ _______ _____ _____    ______ ____
ROOT
ATOM      1  N   UNL     1       6.631   5.602  16.954  0.00  0.00    +0.000 NA
ATOM      2  C   UNL     1       6.736   4.759  18.142  0.00  0.00    +0.000 C 
ATOM      3  C   UNL     1       5.402   4.552  18.865  0.00  0.00    +0.000 C 
ATOM      4  C   UNL     1       4.157   4.286  17.963  0.00  0.00    +0.000 C 
ATOM      5  C   UNL     1       4.277   4.830  16.517  0.00  0.00    +0.000 C 
ATOM      6  C   UNL     1       5.710   4.951  15.978  0.00  0.00    +0.000 C 
ATOM      7  C   UNL     1       6.183   3.570  15.475  0.00  0.00    +0.000 C 
ATOM      8  C   UNL     1       3.877   2.720  17.935  0.00  0.00    +0.000 C 
ATOM      9  N   UNL     1       2.677   2.432  18.793  0.00  0.00    +0.000 NA
ATOM     10  C   UNL     1       3.012   2.102  20.196  0.00  0.00    +0.000 C 
ATOM     11  S   UNL     1       1.640   3.774  18.628  0.00  0.00    +0.000 S 
ATOM     12  O   UNL     1       1.110   3.776  17.280  0.00  0.00    +0.000 OA
ATOM     13  O   UNL     1       0.797   3.913  19.796  0.00  0.00    +0.000 OA
ATOM     14  N   UNL     1       2.934   4.857  18.670  0.00  0.00    +0.000 N 
ENDROOT
BRANCH  14  15
ATOM     15  C   UNL     1       2.599   6.244  18.793  0.00  0.00    +0.000 A 
ATOM     16  C   UNL     1       2.822   7.051  17.673  0.00  0.00    +0.000 A 
ATOM     17  C   UNL     1       2.630   8.434  17.737  0.00  0.00    +0.000 A 
ATOM     18  C   UNL     1       2.195   9.017  18.924  0.00  0.00    +0.000 A 
ATOM     19  C   UNL     1       1.979   8.214  20.037  0.00  0.00    +0.000 A 
ATOM     20  F   UNL     1       1.573   8.780  21.183  0.00  0.00    +0.000 F 
ATOM     21  C   UNL     1       2.198   6.839  19.990  0.00  0.00    +0.000 A 
ENDBRANCH  14  15
BRANCH   1  22
ATOM     22  C   UNL     1       6.200   6.993  17.298  0.00  0.00    +0.000 C 
BRANCH  22  26
ATOM     23  C   UNL     1       8.874  10.083  18.833  0.00  0.00    +0.000 A 
ATOM     24  C   UNL     1       7.948  10.388  17.832  0.00  0.00    +0.000 A 
ATOM     25  C   UNL     1       7.143   9.388  17.246  0.00  0.00    +0.000 A 
ATOM     26  C   UNL     1       7.260   8.049  17.632  0.00  0.00    +0.000 A 
ATOM     27  C   UNL     1       8.292   7.733  18.537  0.00  0.00    +0.000 A 
ATOM     28  C   UNL     1       9.088   8.734  19.129  0.00  0.00    +0.000 A 
BRANCH  23  32
ATOM     29  C   UNL     1      11.042  12.865  20.234  0.00  0.00    +0.000 C 
ATOM     30  C   UNL     1      10.723  11.719  19.297  0.00  0.00    +0.000 C 
ATOM     31  O   UNL     1      11.468  11.470  18.355  0.00  0.00    +0.000 OA
ATOM     32  N   UNL     1       9.548  11.053  19.623  0.00  0.00    +0.000 N 
ATOM     33  H   UNL     1       9.058  11.377  20.447  0.00  0.00    +0.000 HD
ENDBRANCH  23  32
ENDBRANCH  22  26
ENDBRANCH   1  22
TORSDOF 4
ENDMDL
MODEL 3
REMARK VINA RESULT:      -7.6      0.644      1.061
REMARK  Name = 
REMARK  7 active torsions:
REMARK  status: ('A' for Active; 'I' for Inactive)
REMARK    1  A    between atoms: C_1  and  C_2
REMARK    2  A    between atoms: N_4  and  C_5
REMARK    3  A    between atoms: C_8  and  C_9
REMARK    4  A    between atoms: C_9  and  N_10
REMARK    5  A    between atoms: C_15  and  C_16
REMARK    6  A    between atoms: N_18  and  C_19
REMARK    7  A    between atoms: N_23  and  C_24
REMARK                            x       y       z     vdW  Elec       q    Type
REMARK                         _______ _______ _______ _____ _____    ______ ____
ROOT
ATOM      1  N   UNL     1       6.966   6.258  16.707  0.00  0.00    +0.000 NA
ATOM      2  C   UNL     1       7.227   5.332  17.806  0.00  0.00    +0.000 C 
ATOM      3  C   UNL     1       5.961   4.893  18.547  0.00  0.00    +0.000 C 
ATOM      4  C   UNL     1       4.719   4.555  17.665  0.00  0.00    +0.000 C 
ATOM      5  C   UNL     1       4.708   5.238  16.274  0.00  0.00    +0.000 C 
ATOM      6  C   UNL     1       6.090   5.588  15.704  0.00  0.00    +0.000 C 
ATOM      7  C   UNL     1       6.706   4.329  15.056  0.00  0.00    +0.000 C 
ATOM      8  C   UNL     1       4.633   2.975  17.497  0.00  0.00    +0.000 C 
ATOM      9  N   UNL     1       3.516   2.461  18.362  0.00  0.00    +0.000 NA
ATOM     10  C   UNL     1       3.950   2.051  19.715  0.00  0.00    +0.000 C 
ATOM     11  S   UNL     1       2.316   3.671  18.359  0.00  0.00    +0.000 S 
ATOM     12  O   UNL     1       1.731   3.728  17.036  0.00  0.00    +0.000 OA
ATOM     13  O   UNL     1       1.514   3.596  19.562  0.00  0.00    +0.000 OA
ATOM     14  N   UNL     1       3.467   4.901  18.463  0.00  0.00    +0.000 N 
ENDROOT
BRANCH  14  15
ATOM     15  C   UNL     1       2.971   6.218  18.728  0.00  0.00    +0.000 A 
ATOM     16  C   UNL     1       2.454   6.454  20.006  0.00  0.00    +0.000 A 
ATOM     17  C   UNL     1       1.848   7.674  20.318  0.00  0.00    +0.000 A 
ATOM     18  C   UNL     1       1.772   8.675  19.354  0.00  0.00    +0.000 A 
ATOM     19  C   UNL     1       2.282   8.437  18.084  0.00  0.00    +0.000 A 
ATOM     20  F   UNL     1       2.195   9.397  17.153  0.00  0.00    +0.000 F 
ATOM     21  C   UNL     1       2.860   7.212  17.755  0.00  0.00    +0.000 A 
ENDBRANCH  14  15
BRANCH   1  22
ATOM     22  C   UNL     1       6.384   7.547  17.196  0.00  0.00    +0.000 C 
BRANCH  22  26
ATOM     23  C   UNL     1       9.372  10.468  18.456  0.00  0.00    +0.000 A 
ATOM     24  C   UNL     1       9.367   9.185  19.008  0.00  0.00    +0.000 A 
ATOM     25  C   UNL     1       8.353   8.254  18.696  0.00  0.00    +0.000 A 
ATOM     26  C   UNL     1       7.302   8.593  17.839  0.00  0.00    +0.000 A 
ATOM     27  C   UNL     1       7.239   9.931  17.401  0.00  0.00    +0.000 A 
ATOM     28  C   UNL     1       8.258  10.856  17.705  0.00  0.00    +0.000 A 
BRANCH  23  32
ATOM     29  C   UNL     1      12.331  12.624  19.457  0.00  0.00    +0.000 C 
ATOM     30  C   UNL     1      11.028  11.892  19.698  0.00  0.00    +0.000 C 
ATOM     31  O   UNL     1      10.579  11.795  20.836  0.00  0.00    +0.000 OA
ATOM     32  N   UNL     1      10.466  11.372  18.539  0.00  0.00    +0.000 N 
ATOM     33  H   UNL     1      10.959  11.558  17.675  0.00  0.00    +0.000 HD
ENDBRANCH  23  32
ENDBRANCH  22  26
ENDBRANCH   1  22
TORSDOF 4
ENDMDL
MODEL 4
REMARK VINA RESULT:      -7.4      6.362      9.942
REMARK  Name = 
REMARK  7 active torsions:
REMARK  status: ('A' for Active; 'I' for Inactive)
REMARK    1  A    between atoms: C_1  and  C_2
REMARK    2  A    between atoms: N_4  and  C_5
REMARK    3  A    between atoms: C_8  and  C_9
REMARK    4  A    between atoms: C_9  and  N_10
REMARK    5  A    between atoms: C_15  and  C_16
REMARK    6  A    between atoms: N_18  and  C_19
REMARK    7  A    between atoms: N_23  and  C_24
REMARK                            x       y       z     vdW  Elec       q    Type
REMARK                         _______ _______ _______ _____ _____    ______ ____
ROOT
ATOM      1  N   UNL     1      -0.727  10.547  19.130  0.00  0.00    +0.000 NA
ATOM      2  C   UNL     1      -1.062  10.716  20.541  0.00  0.00    +0.000 C 
ATOM      3  C   UNL     1      -0.703  12.099  21.093  0.00  0.00    +0.000 C 
ATOM      4  C   UNL     1      -1.028  13.319  20.176  0.00  0.00    +0.000 C 
ATOM      5  C   UNL     1      -1.108  12.990  18.664  0.00  0.00    +0.000 C 
ATOM      6  C   UNL     1      -1.495  11.542  18.327  0.00  0.00    +0.000 C 
ATOM      7  C   UNL     1      -3.029  11.392  18.418  0.00  0.00    +0.000 C 
ATOM      8  C   UNL     1      -2.396  13.969  20.665  0.00  0.00    +0.000 C 
ATOM      9  N   UNL     1      -2.086  15.249  21.390  0.00  0.00    +0.000 NA
ATOM     10  C   UNL     1      -1.924  15.083  22.850  0.00  0.00    +0.000 C 
ATOM     11  S   UNL     1      -0.725  15.918  20.614  0.00  0.00    +0.000 S 
ATOM     12  O   UNL     1      -1.123  16.355  19.292  0.00  0.00    +0.000 OA
ATOM     13  O   UNL     1       0.015  16.766  21.525  0.00  0.00    +0.000 OA
ATOM     14  N   UNL     1       0.005  14.404  20.453  0.00  0.00    +0.000 N 
ENDROOT
BRANCH  14  15
ATOM     15  C   UNL     1       1.373  14.398  20.029  0.00  0.00    +0.000 A 
ATOM     16  C   UNL     1       2.335  14.092  20.996  0.00  0.00    +0.000 A 
ATOM     17  C   UNL     1       3.698  14.171  20.700  0.00  0.00    +0.000 A 
ATOM     18  C   UNL     1       4.107  14.541  19.422  0.00  0.00    +0.000 A 
ATOM     19  C   UNL     1       3.150  14.849  18.463  0.00  0.00    +0.000 A 
ATOM     20  F   UNL     1       3.547  15.218  17.237  0.00  0.00    +0.000 F 
ATOM     21  C   UNL     1       1.789  14.803  18.760  0.00  0.00    +0.000 A 
ENDBRANCH  14  15
BRANCH   1  22
ATOM     22  C   UNL     1       0.747  10.645  18.894  0.00  0.00    +0.000 C 
BRANCH  22  26
ATOM     23  C   UNL     1       2.685   6.737  18.765  0.00  0.00    +0.000 A 
ATOM     24  C   UNL     1       2.110   7.197  19.952  0.00  0.00    +0.000 A 
ATOM     25  C   UNL     1       1.567   8.497  20.050  0.00  0.00    +0.000 A 
ATOM     26  C   UNL     1       1.608   9.379  18.967  0.00  0.00    +0.000 A 
ATOM     27  C   UNL     1       2.316   8.956  17.824  0.00  0.00    +0.000 A 
ATOM     28  C   UNL     1       2.847   7.655  17.724  0.00  0.00    +0.000 A 
BRANCH  23  32
ATOM     29  C   UNL     1       3.067   3.172  17.519  0.00  0.00    +0.000 C 
ATOM     30  C   UNL     1       2.300   4.445  17.812  0.00  0.00    +0.000 C 
ATOM     31  O   UNL     1       1.145   4.569  17.420  0.00  0.00    +0.000 OA
ATOM     32  N   UNL     1       3.041   5.383  18.520  0.00  0.00    +0.000 N 
ATOM     33  H   UNL     1       3.980   5.113  18.783  0.00  0.00    +0.000 HD
ENDBRANCH  23  32
ENDBRANCH  22  26
ENDBRANCH   1  22
TORSDOF 4
ENDMDL
MODEL 5
REMARK VINA RESULT:      -7.3      8.705     12.293
REMARK  Name = 
REMARK  7 active torsions:
REMARK  status: ('A' for Active; 'I' for Inactive)
REMARK    1  A    between atoms: C_1  and  C_2
REMARK    2  A    between atoms: N_4  and  C_5
REMARK    3  A    between atoms: C_8  and  C_9
REMARK    4  A    between atoms: C_9  and  N_10
REMARK    5  A    between atoms: C_15  and  C_16
REMARK    6  A    between atoms: N_18  and  C_19
REMARK    7  A    between atoms: N_23  and  C_24
REMARK                            x       y       z     vdW  Elec       q    Type
REMARK                         _______ _______ _______ _____ _____    ______ ____
ROOT
ATOM      1  N   UNL     1      -0.294  12.228  19.253  0.00  0.00    +0.000 NA
ATOM      2  C   UNL     1      -0.423  13.584  18.727  0.00  0.00    +0.000 C 
ATOM      3  C   UNL     1      -1.050  14.567  19.720  0.00  0.00    +0.000 C 
ATOM      4  C   UNL     1      -0.566  14.465  21.199  0.00  0.00    +0.000 C 
ATOM      5  C   UNL     1      -0.001  13.079  21.601  0.00  0.00    +0.000 C 
ATOM      6  C   UNL     1       0.594  12.254  20.450  0.00  0.00    +0.000 C 
ATOM      7  C   UNL     1       2.033  12.737  20.169  0.00  0.00    +0.000 C 
ATOM      8  C   UNL     1       0.526  15.594  21.454  0.00  0.00    +0.000 C 
ATOM      9  N   UNL     1      -0.099  16.689  22.273  0.00  0.00    +0.000 NA
ATOM     10  C   UNL     1      -0.686  17.779  21.462  0.00  0.00    +0.000 C 
ATOM     11  S   UNL     1      -1.211  15.929  23.316  0.00  0.00    +0.000 S 
ATOM     12  O   UNL     1      -0.466  15.152  24.286  0.00  0.00    +0.000 OA
ATOM     13  O   UNL     1      -2.263  16.847  23.697  0.00  0.00    +0.000 OA
ATOM     14  N   UNL     1      -1.724  14.874  22.102  0.00  0.00    +0.000 N 
ENDROOT
BRANCH  14  15
ATOM     15  C   UNL     1      -2.890  14.094  22.387  0.00  0.00    +0.000 A 
ATOM     16  C   UNL     1      -3.932  14.150  21.457  0.00  0.00    +0.000 A 
ATOM     17  C   UNL     1      -5.150  13.510  21.706  0.00  0.00    +0.000 A 
ATOM     18  C   UNL     1      -5.325  12.794  22.886  0.00  0.00    +0.000 A 
ATOM     19  C   UNL     1      -4.290  12.742  23.812  0.00  0.00    +0.000 A 
ATOM     20  F   UNL     1      -4.466  12.063  24.953  0.00  0.00    +0.000 F 
ATOM     21  C   UNL     1      -3.084  13.403  23.584  0.00  0.00    +0.000 A 
ENDBRANCH  14  15
BRANCH   1  22
ATOM     22  C   UNL     1      -1.629  11.620  19.549  0.00  0.00    +0.000 C 
BRANCH  22  26
ATOM     23  C   UNL     1      -3.765  10.607  15.881  0.00  0.00    +0.000 A 
ATOM     24  C   UNL     1      -4.393  11.362  16.875  0.00  0.00    +0.000 A 
ATOM     25  C   UNL     1      -3.764  11.618  18.112  0.00  0.00    +0.000 A 
ATOM     26  C   UNL     1      -2.496  11.103  18.396  0.00  0.00    +0.000 A 
ATOM     27  C   UNL     1      -1.933  10.228  17.446  0.00  0.00    +0.000 A 
ATOM     28  C   UNL     1      -2.558   9.983  16.207  0.00  0.00    +0.000 A 
BRANCH  23  32
ATOM     29  C   UNL     1      -4.397   9.776  12.232  0.00  0.00    +0.000 C 
ATOM     30  C   UNL     1      -3.535   9.972  13.461  0.00  0.00    +0.000 C 
ATOM     31  O   UNL     1      -2.349   9.660  13.435  0.00  0.00    +0.000 OA
ATOM     32  N   UNL     1      -4.229  10.501  14.542  0.00  0.00    +0.000 N 
ATOM     33  H   UNL     1      -5.205  10.720  14.389  0.00  0.00    +0.000 HD
ENDBRANCH  23  32
ENDBRANCH  22  26
ENDBRANCH   1  22
TORSDOF 4
ENDMDL
MODEL 6
REMARK VINA RESULT:      -7.3      6.948     10.424
REMARK  Name = 
REMARK  7 active torsions:
REMARK  status: ('A' for Active; 'I' for Inactive)
REMARK    1  A    between atoms: C_1  and  C_2
REMARK    2  A    between atoms: N_4  and  C_5
REMARK    3  A    between atoms: C_8  and  C_9
REMARK    4  A    between atoms: C_9  and  N_10
REMARK    5  A    between atoms: C_15  and  C_16
REMARK    6  A    between atoms: N_18  and  C_19
REMARK    7  A    between atoms: N_23  and  C_24
REMARK                            x       y       z     vdW  Elec       q    Type
REMARK                         _______ _______ _______ _____ _____    ______ ____
ROOT
ATOM      1  N   UNL     1       1.176  12.757  18.685  0.00  0.00    +0.000 NA
ATOM      2  C   UNL     1       0.452  13.911  18.158  0.00  0.00    +0.000 C 
ATOM      3  C   UNL     1      -0.323  14.686  19.228  0.00  0.00    +0.000 C 
ATOM      4  C   UNL     1       0.407  14.916  20.587  0.00  0.00    +0.000 C 
ATOM      5  C   UNL     1       1.518  13.885  20.908  0.00  0.00    +0.000 C 
ATOM      6  C   UNL     1       2.177  13.228  19.686  0.00  0.00    +0.000 C 
ATOM      7  C   UNL     1       3.253  14.178  19.117  0.00  0.00    +0.000 C 
ATOM      8  C   UNL     1       1.012  16.388  20.593  0.00  0.00    +0.000 C 
ATOM      9  N   UNL     1       0.166  17.250  21.488  0.00  0.00    +0.000 NA
ATOM     10  C   UNL     1      -0.921  17.960  20.778  0.00  0.00    +0.000 C 
ATOM     11  S   UNL     1      -0.377  16.240  22.748  0.00  0.00    +0.000 S 
ATOM     12  O   UNL     1       0.761  15.893  23.575  0.00  0.00    +0.000 OA
ATOM     13  O   UNL     1      -1.618  16.738  23.302  0.00  0.00    +0.000 OA
ATOM     14  N   UNL     1      -0.647  14.956  21.687  0.00  0.00    +0.000 N 
ENDROOT
BRANCH  14  15
ATOM     15  C   UNL     1      -1.360  13.832  22.214  0.00  0.00    +0.000 A 
ATOM     16  C   UNL     1      -2.719  14.018  22.491  0.00  0.00    +0.000 A 
ATOM     17  C   UNL     1      -3.467  13.013  23.111  0.00  0.00    +0.000 A 
ATOM     18  C   UNL     1      -2.860  11.805  23.442  0.00  0.00    +0.000 A 
ATOM     19  C   UNL     1      -1.510  11.624  23.171  0.00  0.00    +0.000 A 
ATOM     20  F   UNL     1      -0.925  10.465  23.503  0.00  0.00    +0.000 F 
ATOM     21  C   UNL     1      -0.749  12.632  22.581  0.00  0.00    +0.000 A 
ENDBRANCH  14  15
BRANCH   1  22
ATOM     22  C   UNL     1       0.246  11.732  19.253  0.00  0.00    +0.000 C 
BRANCH  22  26
ATOM     23  C   UNL     1       2.029   7.760  19.559  0.00  0.00    +0.000 A 
ATOM     24  C   UNL     1       1.938   8.396  18.318  0.00  0.00    +0.000 A 
ATOM     25  C   UNL     1       1.276   9.635  18.174  0.00  0.00    +0.000 A 
ATOM     26  C   UNL     1       0.666  10.258  19.266  0.00  0.00    +0.000 A 
ATOM     27  C   UNL     1       0.640   9.542  20.479  0.00  0.00    +0.000 A 
ATOM     28  C   UNL     1       1.311   8.311  20.624  0.00  0.00    +0.000 A 
BRANCH  23  32
ATOM     29  C   UNL     1       3.999   4.516  19.539  0.00  0.00    +0.000 C 
ATOM     30  C   UNL     1       2.818   5.402  19.202  0.00  0.00    +0.000 C 
ATOM     31  O   UNL     1       1.950   5.002  18.435  0.00  0.00    +0.000 OA
ATOM     32  N   UNL     1       2.865   6.642  19.827  0.00  0.00    +0.000 N 
ATOM     33  H   UNL     1       3.647   6.807  20.446  0.00  0.00    +0.000 HD
ENDBRANCH  23  32
ENDBRANCH  22  26
ENDBRANCH   1  22
TORSDOF 4
ENDMDL
MODEL 7
REMARK VINA RESULT:      -7.1      1.021      1.565
REMARK  Name = 
REMARK  7 active torsions:
REMARK  status: ('A' for Active; 'I' for Inactive)
REMARK    1  A    between atoms: C_1  and  C_2
REMARK    2  A    between atoms: N_4  and  C_5
REMARK    3  A    between atoms: C_8  and  C_9
REMARK    4  A    between atoms: C_9  and  N_10
REMARK    5  A    between atoms: C_15  and  C_16
REMARK    6  A    between atoms: N_18  and  C_19
REMARK    7  A    between atoms: N_23  and  C_24
REMARK                            x       y       z     vdW  Elec       q    Type
REMARK                         _______ _______ _______ _____ _____    ______ ____
ROOT
ATOM      1  N   UNL     1       6.643   5.763  16.771  0.00  0.00    +0.000 NA
ATOM      2  C   UNL     1       6.846   5.001  18.001  0.00  0.00    +0.000 C 
ATOM      3  C   UNL     1       5.555   4.760  18.790  0.00  0.00    +0.000 C 
ATOM      4  C   UNL     1       4.295   4.368  17.959  0.00  0.00    +0.000 C 
ATOM      5  C   UNL     1       4.325   4.829  16.480  0.00  0.00    +0.000 C 
ATOM      6  C   UNL     1       5.726   5.001  15.874  0.00  0.00    +0.000 C 
ATOM      7  C   UNL     1       6.262   3.622  15.434  0.00  0.00    +0.000 C 
ATOM      8  C   UNL     1       4.110   2.789  18.034  0.00  0.00    +0.000 C 
ATOM      9  N   UNL     1       2.964   2.485  18.958  0.00  0.00    +0.000 NA
ATOM     10  C   UNL     1       3.373   2.261  20.362  0.00  0.00    +0.000 C 
ATOM     11  S   UNL     1       1.841   3.751  18.759  0.00  0.00    +0.000 S 
ATOM     12  O   UNL     1       1.260   3.640  17.437  0.00  0.00    +0.000 OA
ATOM     13  O   UNL     1       1.037   3.912  19.952  0.00  0.00    +0.000 OA
ATOM     14  N   UNL     1       3.067   4.909  18.682  0.00  0.00    +0.000 N 
ENDROOT
BRANCH  14  15
ATOM     15  C   UNL     1       2.654   6.279  18.738  0.00  0.00    +0.000 A 
ATOM     16  C   UNL     1       2.848   7.046  17.586  0.00  0.00    +0.000 A 
ATOM     17  C   UNL     1       2.579   8.418  17.585  0.00  0.00    +0.000 A 
ATOM     18  C   UNL     1       2.094   9.028  18.738  0.00  0.00    +0.000 A 
ATOM     19  C   UNL     1       1.906   8.264  19.884  0.00  0.00    +0.000 A 
ATOM     20  F   UNL     1       1.452   8.856  20.998  0.00  0.00    +0.000 F 
ATOM     21  C   UNL     1       2.202   6.902  19.902  0.00  0.00    +0.000 A 
ENDBRANCH  14  15
BRANCH   1  22
ATOM     22  C   UNL     1       6.142   7.145  17.051  0.00  0.00    +0.000 C 
BRANCH  22  26
ATOM     23  C   UNL     1       9.129   9.983  18.491  0.00  0.00    +0.000 A 
ATOM     24  C   UNL     1       9.121   8.669  18.966  0.00  0.00    +0.000 A 
ATOM     25  C   UNL     1       8.106   7.760  18.596  0.00  0.00    +0.000 A 
ATOM     26  C   UNL     1       7.059   8.150  17.757  0.00  0.00    +0.000 A 
ATOM     27  C   UNL     1       6.999   9.511  17.400  0.00  0.00    +0.000 A 
ATOM     28  C   UNL     1       8.018  10.415  17.761  0.00  0.00    +0.000 A 
BRANCH  23  32
ATOM     29  C   UNL     1      11.981  12.196  19.663  0.00  0.00    +0.000 C 
ATOM     30  C   UNL     1      10.640  11.505  19.798  0.00  0.00    +0.000 C 
ATOM     31  O   UNL     1      10.044  11.526  20.870  0.00  0.00    +0.000 OA
ATOM     32  N   UNL     1      10.224  10.878  18.631  0.00  0.00    +0.000 N 
ATOM     33  H   UNL     1      10.830  10.972  17.826  0.00  0.00    +0.000 HD
ENDBRANCH  23  32
ENDBRANCH  22  26
ENDBRANCH   1  22
TORSDOF 4
ENDMDL
MODEL 8
REMARK VINA RESULT:      -7.1      6.869     10.496
REMARK  Name = 
REMARK  7 active torsions:
REMARK  status: ('A' for Active; 'I' for Inactive)
REMARK    1  A    between atoms: C_1  and  C_2
REMARK    2  A    between atoms: N_4  and  C_5
REMARK    3  A    between atoms: C_8  and  C_9
REMARK    4  A    between atoms: C_9  and  N_10
REMARK    5  A    between atoms: C_15  and  C_16
REMARK    6  A    between atoms: N_18  and  C_19
REMARK    7  A    between atoms: N_23  and  C_24
REMARK                            x       y       z     vdW  Elec       q    Type
REMARK                         _______ _______ _______ _____ _____    ______ ____
ROOT
ATOM      1  N   UNL     1      -0.949  11.472  20.766  0.00  0.00    +0.000 NA
ATOM      2  C   UNL     1      -1.039  12.071  22.095  0.00  0.00    +0.000 C 
ATOM      3  C   UNL     1      -0.481  13.495  22.161  0.00  0.00    +0.000 C 
ATOM      4  C   UNL     1      -0.843  14.440  20.974  0.00  0.00    +0.000 C 
ATOM      5  C   UNL     1      -1.190  13.714  19.650  0.00  0.00    +0.000 C 
ATOM      6  C   UNL     1      -1.748  12.291  19.809  0.00  0.00    +0.000 C 
ATOM      7  C   UNL     1      -3.254  12.370  20.136  0.00  0.00    +0.000 C 
ATOM      8  C   UNL     1      -2.055  15.370  21.419  0.00  0.00    +0.000 C 
ATOM      9  N   UNL     1      -1.526  16.752  21.687  0.00  0.00    +0.000 NA
ATOM     10  C   UNL     1      -1.147  16.983  23.098  0.00  0.00    +0.000 C 
ATOM     11  S   UNL     1      -0.253  16.997  20.581  0.00  0.00    +0.000 S 
ATOM     12  O   UNL     1      -0.818  17.094  19.251  0.00  0.00    +0.000 OA
ATOM     13  O   UNL     1       0.691  17.965  21.097  0.00  0.00    +0.000 OA
ATOM     14  N   UNL     1       0.310  15.419  20.783  0.00  0.00    +0.000 N 
ENDROOT
BRANCH  14  15
ATOM     15  C   UNL     1       1.587  15.119  20.208  0.00  0.00    +0.000 A 
ATOM     16  C   UNL     1       2.585  14.675  21.080  0.00  0.00    +0.000 A 
ATOM     17  C   UNL     1       3.891  14.465  20.627  0.00  0.00    +0.000 A 
ATOM     18  C   UNL     1       4.200  14.684  19.288  0.00  0.00    +0.000 A 
ATOM     19  C   UNL     1       3.208  15.129  18.423  0.00  0.00    +0.000 A 
ATOM     20  F   UNL     1       3.511  15.352  17.137  0.00  0.00    +0.000 F 
ATOM     21  C   UNL     1       1.911  15.370  18.874  0.00  0.00    +0.000 A 
ENDBRANCH  14  15
BRANCH   1  22
ATOM     22  C   UNL     1       0.472  11.310  20.325  0.00  0.00    +0.000 C 
BRANCH  22  26
ATOM     23  C   UNL     1       2.353   7.747  18.650  0.00  0.00    +0.000 A 
ATOM     24  C   UNL     1       1.969   8.798  17.814  0.00  0.00    +0.000 A 
ATOM     25  C   UNL     1       1.268   9.916  18.314  0.00  0.00    +0.000 A 
ATOM     26  C   UNL     1       0.912  10.001  19.663  0.00  0.00    +0.000 A 
ATOM     27  C   UNL     1       1.178   8.874  20.466  0.00  0.00    +0.000 A 
ATOM     28  C   UNL     1       1.888   7.763  19.968  0.00  0.00    +0.000 A 
BRANCH  23  32
ATOM     29  C   UNL     1       4.069   4.624  17.343  0.00  0.00    +0.000 C 
ATOM     30  C   UNL     1       2.915   5.405  17.935  0.00  0.00    +0.000 C 
ATOM     31  O   UNL     1       1.816   4.876  18.060  0.00  0.00    +0.000 OA
ATOM     32  N   UNL     1       3.250   6.710  18.273  0.00  0.00    +0.000 N 
ATOM     33  H   UNL     1       4.211   6.985  18.119  0.00  0.00    +0.000 HD
ENDBRANCH  23  32
ENDBRANCH  22  26
ENDBRANCH   1  22
TORSDOF 4
ENDMDL
MODEL 9
REMARK VINA RESULT:      -7.1      7.168     10.670
REMARK  Name = 
REMARK  7 active torsions:
REMARK  status: ('A' for Active; 'I' for Inactive)
REMARK    1  A    between atoms: C_1  and  C_2
REMARK    2  A    between atoms: N_4  and  C_5
REMARK    3  A    between atoms: C_8  and  C_9
REMARK    4  A    between atoms: C_9  and  N_10
REMARK    5  A    between atoms: C_15  and  C_16
REMARK    6  A    between atoms: N_18  and  C_19
REMARK    7  A    between atoms: N_23  and  C_24
REMARK                            x       y       z     vdW  Elec       q    Type
REMARK                         _______ _______ _______ _____ _____    ______ ____
ROOT
ATOM      1  N   UNL     1       1.689  12.582  19.379  0.00  0.00    +0.000 NA
ATOM      2  C   UNL     1       1.039  13.355  18.323  0.00  0.00    +0.000 C 
ATOM      3  C   UNL     1      -0.060  14.289  18.838  0.00  0.00    +0.000 C 
ATOM      4  C   UNL     1       0.253  15.075  20.148  0.00  0.00    +0.000 C 
ATOM      5  C   UNL     1       1.319  14.417  21.060  0.00  0.00    +0.000 C 
ATOM      6  C   UNL     1       2.338  13.522  20.338  0.00  0.00    +0.000 C 
ATOM      7  C   UNL     1       3.442  14.406  19.720  0.00  0.00    +0.000 C 
ATOM      8  C   UNL     1       0.706  16.550  19.757  0.00  0.00    +0.000 C 
ATOM      9  N   UNL     1      -0.421  17.495  20.067  0.00  0.00    +0.000 NA
ATOM     10  C   UNL     1      -1.331  17.732  18.925  0.00  0.00    +0.000 C 
ATOM     11  S   UNL     1      -1.196  16.876  21.452  0.00  0.00    +0.000 S 
ATOM     12  O   UNL     1      -0.299  17.023  22.580  0.00  0.00    +0.000 OA
ATOM     13  O   UNL     1      -2.579  17.302  21.496  0.00  0.00    +0.000 OA
ATOM     14  N   UNL     1      -1.059  15.288  20.895  0.00  0.00    +0.000 N 
ENDROOT
BRANCH  14  15
ATOM     15  C   UNL     1      -1.790  14.293  21.619  0.00  0.00    +0.000 A 
ATOM     16  C   UNL     1      -1.149  13.709  22.716  0.00  0.00    +0.000 A 
ATOM     17  C   UNL     1      -1.742  12.652  23.413  0.00  0.00    +0.000 A 
ATOM     18  C   UNL     1      -2.993  12.184  23.024  0.00  0.00    +0.000 A 
ATOM     19  C   UNL     1      -3.627  12.762  21.931  0.00  0.00    +0.000 A 
ATOM     20  F   UNL     1      -4.826  12.301  21.550  0.00  0.00    +0.000 F 
ATOM     21  C   UNL     1      -3.029  13.796  21.212  0.00  0.00    +0.000 A 
ENDBRANCH  14  15
BRANCH   1  22
ATOM     22  C   UNL     1       0.730  11.653  20.056  0.00  0.00    +0.000 C 
BRANCH  22  26
ATOM     23  C   UNL     1       1.975   7.471  20.028  0.00  0.00    +0.000 A 
ATOM     24  C   UNL     1       1.928   8.198  18.836  0.00  0.00    +0.000 A 
ATOM     25  C   UNL     1       1.433   9.520  18.800  0.00  0.00    +0.000 A 
ATOM     26  C   UNL     1       0.949  10.140  19.956  0.00  0.00    +0.000 A 
ATOM     27  C   UNL     1       0.869   9.350  21.120  0.00  0.00    +0.000 A 
ATOM     28  C   UNL     1       1.374   8.035  21.156  0.00  0.00    +0.000 A 
BRANCH  23  32
ATOM     29  C   UNL     1       3.096   3.849  20.210  0.00  0.00    +0.000 C 
ATOM     30  C   UNL     1       2.090   4.977  20.307  0.00  0.00    +0.000 C 
ATOM     31  O   UNL     1       0.900   4.726  20.464  0.00  0.00    +0.000 OA
ATOM     32  N   UNL     1       2.662   6.237  20.187  0.00  0.00    +0.000 N 
ATOM     33  H   UNL     1       3.668   6.268  20.078  0.00  0.00    +0.000 HD
ENDBRANCH  23  32
ENDBRANCH  22  26
ENDBRANCH   1  22
TORSDOF 4
ENDMDL
