MODEL 1
REMARK VINA RESULT:      -8.7      0.000      0.000
REMARK  Name = 
REMARK  4 active torsions:
REMARK  status: ('A' for Active; 'I' for Inactive)
REMARK    1  A    between atoms: O_1  and  C_2
REMARK    2  A    between atoms: C_4  and  N_5
REMARK    3  A    between atoms: N_5  and  C_6
REMARK    4  A    between atoms: C_13  and  C_14
REMARK                            x       y       z     vdW  Elec       q    Type
REMARK                         _______ _______ _______ _____ _____    ______ ____
ROOT
ATOM      1  C   UNL     1       2.189   4.183  20.638  0.00  0.00    +0.000 A 
ATOM      2  C   UNL     1       3.368   3.739  20.051  0.00  0.00    +0.000 A 
ATOM      3  C   UNL     1       4.117   4.613  19.261  0.00  0.00    +0.000 A 
ATOM      4  C   UNL     1       3.631   5.918  19.059  0.00  0.00    +0.000 A 
ATOM      5  C   UNL     1       2.432   6.389  19.634  0.00  0.00    +0.000 A 
ATOM      6  C   UNL     1       1.744   5.493  20.463  0.00  0.00    +0.000 A 
ENDROOT
BRANCH   5   7
ATOM      7  C   UNL     1       1.961   7.779  19.382  0.00  0.00    +0.000 A 
ATOM      8  C   UNL     1       2.105   8.359  18.098  0.00  0.00    +0.000 A 
ATOM      9  C   UNL     1       1.656   9.639  17.807  0.00  0.00    +0.000 A 
ATOM     10  C   UNL     1       1.068  10.412  18.800  0.00  0.00    +0.000 A 
ATOM     11  C   UNL     1       0.925   9.868  20.090  0.00  0.00    +0.000 A 
ATOM     12  S   UNL     1       0.247  10.690  21.447  0.00  0.00    +0.000 S 
ATOM     13  C   UNL     1       0.439   9.338  22.456  0.00  0.00    +0.000 A 
ATOM     14  C   UNL     1       0.985   8.272  21.779  0.00  0.00    +0.000 A 
ATOM     15  C   UNL     1       1.334   8.564  20.406  0.00  0.00    +0.000 A 
ENDBRANCH   5   7
BRANCH   1  16
ATOM     16  O   UNL     1       1.419   3.353  21.401  0.00  0.00    +0.000 OA
ATOM     17  H   UNL     1       1.330   2.500  20.947  0.00  0.00    +0.000 HD
ENDBRANCH   1  16
BRANCH   3  18
ATOM     18  N   UNL     1       5.334   4.180  18.698  0.00  0.00    +0.000 N 
ATOM     19  H   UNL     1       5.777   3.410  19.190  0.00  0.00    +0.000 HD
BRANCH  18  20
ATOM     20  C   UNL     1       5.807   4.311  17.379  0.00  0.00    +0.000 A 
ATOM     21  C   UNL     1       4.975   4.213  16.265  0.00  0.00    +0.000 A 
ATOM     22  C   UNL     1       5.500   4.350  14.981  0.00  0.00    +0.000 A 
ATOM     23  C   UNL     1       6.860   4.590  14.850  0.00  0.00    +0.000 A 
ATOM     24  N   UNL     1       7.703   4.702  15.896  0.00  0.00    +0.000 NA
ATOM     25  C   UNL     1       7.157   4.566  17.129  0.00  0.00    +0.000 A 
ENDBRANCH  18  20
ENDBRANCH   3  18
TORSDOF 4
ENDMDL
MODEL 2
REMARK VINA RESULT:      -8.5      4.287      7.531
REMARK  Name = 
REMARK  4 active torsions:
REMARK  status: ('A' for Active; 'I' for Inactive)
REMARK    1  A    between atoms: O_1  and  C_2
REMARK    2  A    between atoms: C_4  and  N_5
REMARK    3  A    between atoms: N_5  and  C_6
REMARK    4  A    between atoms: C_13  and  C_14
REMARK                            x       y       z     vdW  Elec       q    Type
REMARK                         _______ _______ _______ _____ _____    ______ ____
ROOT
ATOM      1  C   UNL     1       1.527   8.514  20.743  0.00  0.00    +0.000 A 
ATOM      2  C   UNL     1       0.859   9.485  20.007  0.00  0.00    +0.000 A 
ATOM      3  C   UNL     1       0.878   9.428  18.612  0.00  0.00    +0.000 A 
ATOM      4  C   UNL     1       1.608   8.396  17.993  0.00  0.00    +0.000 A 
ATOM      5  C   UNL     1       2.304   7.406  18.718  0.00  0.00    +0.000 A 
ATOM      6  C   UNL     1       2.210   7.474  20.115  0.00  0.00    +0.000 A 
ENDROOT
BRANCH   5   7
ATOM      7  C   UNL     1       3.067   6.340  18.012  0.00  0.00    +0.000 A 
ATOM      8  C   UNL     1       4.227   6.667  17.268  0.00  0.00    +0.000 A 
ATOM      9  C   UNL     1       4.987   5.705  16.617  0.00  0.00    +0.000 A 
ATOM     10  C   UNL     1       4.601   4.371  16.655  0.00  0.00    +0.000 A 
ATOM     11  C   UNL     1       3.444   4.019  17.373  0.00  0.00    +0.000 A 
ATOM     12  S   UNL     1       2.802   2.422  17.504  0.00  0.00    +0.000 S 
ATOM     13  C   UNL     1       1.536   2.935  18.514  0.00  0.00    +0.000 A 
ATOM     14  C   UNL     1       1.604   4.284  18.770  0.00  0.00    +0.000 A 
ATOM     15  C   UNL     1       2.676   4.961  18.073  0.00  0.00    +0.000 A 
ENDBRANCH   5   7
BRANCH   1  16
ATOM     16  O   UNL     1       1.548   8.547  22.108  0.00  0.00    +0.000 OA
ATOM     17  H   UNL     1       0.997   7.824  22.448  0.00  0.00    +0.000 HD
ENDBRANCH   1  16
BRANCH   3  18
ATOM     18  N   UNL     1       0.167  10.386  17.862  0.00  0.00    +0.000 N 
ATOM     19  H   UNL     1       0.660  10.732  17.045  0.00  0.00    +0.000 HD
BRANCH  18  20
ATOM     20  C   UNL     1      -1.219  10.613  17.784  0.00  0.00    +0.000 A 
ATOM     21  C   UNL     1      -2.050   9.920  16.906  0.00  0.00    +0.000 A 
ATOM     22  C   UNL     1      -3.417  10.188  16.870  0.00  0.00    +0.000 A 
ATOM     23  C   UNL     1      -3.920  11.152  17.732  0.00  0.00    +0.000 A 
ATOM     24  N   UNL     1      -3.159  11.842  18.605  0.00  0.00    +0.000 NA
ATOM     25  C   UNL     1      -1.835  11.553  18.613  0.00  0.00    +0.000 A 
ENDBRANCH  18  20
ENDBRANCH   3  18
TORSDOF 4
ENDMDL
MODEL 3
REMARK VINA RESULT:      -8.1      0.593      1.003
REMARK  Name = 
REMARK  4 active torsions:
REMARK  status: ('A' for Active; 'I' for Inactive)
REMARK    1  A    between atoms: O_1  and  C_2
REMARK    2  A    between atoms: C_4  and  N_5
REMARK    3  A    between atoms: N_5  and  C_6
REMARK    4  A    between atoms: C_13  and  C_14
REMARK                            x       y       z     vdW  Elec       q    Type
REMARK                         _______ _______ _______ _____ _____    ______ ____
ROOT
ATOM      1  C   UNL     1       2.191   4.078  20.722  0.00  0.00    +0.000 A 
ATOM      2  C   UNL     1       3.359   3.603  20.140  0.00  0.00    +0.000 A 
ATOM      3  C   UNL     1       4.119   4.447  19.328  0.00  0.00    +0.000 A 
ATOM      4  C   UNL     1       3.652   5.756  19.101  0.00  0.00    +0.000 A 
ATOM      5  C   UNL     1       2.464   6.258  19.671  0.00  0.00    +0.000 A 
ATOM      6  C   UNL     1       1.765   5.390  20.523  0.00  0.00    +0.000 A 
ENDROOT
BRANCH   5   7
ATOM      7  C   UNL     1       2.013   7.650  19.392  0.00  0.00    +0.000 A 
ATOM      8  C   UNL     1       2.177   8.207  18.100  0.00  0.00    +0.000 A 
ATOM      9  C   UNL     1       1.747   9.488  17.784  0.00  0.00    +0.000 A 
ATOM     10  C   UNL     1       1.160  10.284  18.759  0.00  0.00    +0.000 A 
ATOM     11  C   UNL     1       0.999   9.764  20.056  0.00  0.00    +0.000 A 
ATOM     12  S   UNL     1       0.320  10.617  21.394  0.00  0.00    +0.000 S 
ATOM     13  C   UNL     1       0.485   9.279  22.426  0.00  0.00    +0.000 A 
ATOM     14  C   UNL     1       1.022   8.195  21.772  0.00  0.00    +0.000 A 
ATOM     15  C   UNL     1       1.388   8.460  20.397  0.00  0.00    +0.000 A 
ENDBRANCH   5   7
BRANCH   1  16
ATOM     16  O   UNL     1       1.411   3.277  21.506  0.00  0.00    +0.000 OA
ATOM     17  H   UNL     1       1.617   3.451  22.438  0.00  0.00    +0.000 HD
ENDBRANCH   1  16
BRANCH   3  18
ATOM     18  N   UNL     1       5.325   3.984  18.769  0.00  0.00    +0.000 N 
ATOM     19  H   UNL     1       5.701   3.149  19.208  0.00  0.00    +0.000 HD
BRANCH  18  20
ATOM     20  C   UNL     1       5.852   4.190  17.481  0.00  0.00    +0.000 A 
ATOM     21  C   UNL     1       7.133   4.694  17.260  0.00  0.00    +0.000 A 
ATOM     22  C   UNL     1       7.603   4.880  15.962  0.00  0.00    +0.000 A 
ATOM     23  C   UNL     1       6.765   4.547  14.906  0.00  0.00    +0.000 A 
ATOM     24  N   UNL     1       5.523   4.049  15.068  0.00  0.00    +0.000 NA
ATOM     25  C   UNL     1       5.102   3.879  16.345  0.00  0.00    +0.000 A 
ENDBRANCH  18  20
ENDBRANCH   3  18
TORSDOF 4
ENDMDL
MODEL 4
REMARK VINA RESULT:      -8.1      3.455      5.065
REMARK  Name = 
REMARK  4 active torsions:
REMARK  status: ('A' for Active; 'I' for Inactive)
REMARK    1  A    between atoms: O_1  and  C_2
REMARK    2  A    between atoms: C_4  and  N_5
REMARK    3  A    between atoms: N_5  and  C_6
REMARK    4  A    between atoms: C_13  and  C_14
REMARK                            x       y       z     vdW  Elec       q    Type
REMARK                         _______ _______ _______ _____ _____    ______ ____
ROOT
ATOM      1  C   UNL     1       7.521   5.484  19.143  0.00  0.00    +0.000 A 
ATOM      2  C   UNL     1       7.781   5.663  17.790  0.00  0.00    +0.000 A 
ATOM      3  C   UNL     1       6.724   5.674  16.879  0.00  0.00    +0.000 A 
ATOM      4  C   UNL     1       5.418   5.469  17.365  0.00  0.00    +0.000 A 
ATOM      5  C   UNL     1       5.130   5.273  18.732  0.00  0.00    +0.000 A 
ATOM      6  C   UNL     1       6.218   5.326  19.613  0.00  0.00    +0.000 A 
ENDROOT
BRANCH   5   7
ATOM      7  C   UNL     1       3.730   5.054  19.192  0.00  0.00    +0.000 A 
ATOM      8  C   UNL     1       3.088   6.018  20.007  0.00  0.00    +0.000 A 
ATOM      9  C   UNL     1       1.777   5.871  20.436  0.00  0.00    +0.000 A 
ATOM     10  C   UNL     1       1.056   4.735  20.094  0.00  0.00    +0.000 A 
ATOM     11  C   UNL     1       1.673   3.752  19.298  0.00  0.00    +0.000 A 
ATOM     12  S   UNL     1       0.942   2.270  18.802  0.00  0.00    +0.000 S 
ATOM     13  C   UNL     1       2.313   1.805  17.915  0.00  0.00    +0.000 A 
ATOM     14  C   UNL     1       3.302   2.759  17.970  0.00  0.00    +0.000 A 
ATOM     15  C   UNL     1       2.983   3.888  18.817  0.00  0.00    +0.000 A 
ENDBRANCH   5   7
BRANCH   1  16
ATOM     16  O   UNL     1       8.530   5.448  20.062  0.00  0.00    +0.000 OA
ATOM     17  H   UNL     1       8.372   4.713  20.675  0.00  0.00    +0.000 HD
ENDBRANCH   1  16
BRANCH   3  18
ATOM     18  N   UNL     1       6.978   5.897  15.512  0.00  0.00    +0.000 N 
ATOM     19  H   UNL     1       7.716   6.569  15.324  0.00  0.00    +0.000 HD
BRANCH  18  20
ATOM     20  C   UNL     1       6.719   5.067  14.406  0.00  0.00    +0.000 A 
ATOM     21  C   UNL     1       5.611   4.224  14.336  0.00  0.00    +0.000 A 
ATOM     22  C   UNL     1       5.406   3.422  13.216  0.00  0.00    +0.000 A 
ATOM     23  C   UNL     1       6.327   3.491  12.181  0.00  0.00    +0.000 A 
ATOM     24  N   UNL     1       7.408   4.295  12.197  0.00  0.00    +0.000 NA
ATOM     25  C   UNL     1       7.574   5.063  13.302  0.00  0.00    +0.000 A 
ENDBRANCH  18  20
ENDBRANCH   3  18
TORSDOF 4
ENDMDL
MODEL 5
REMARK VINA RESULT:      -8.1      4.285      7.608
REMARK  Name = 
REMARK  4 active torsions:
REMARK  status: ('A' for Active; 'I' for Inactive)
REMARK    1  A    between atoms: O_1  and  C_2
REMARK    2  A    between atoms: C_4  and  N_5
REMARK    3  A    between atoms: N_5  and  C_6
REMARK    4  A    between atoms: C_13  and  C_14
REMARK                            x       y       z     vdW  Elec       q    Type
REMARK                         _______ _______ _______ _____ _____    ______ ____
ROOT
ATOM      1  C   UNL     1       1.621   8.398  20.745  0.00  0.00    +0.000 A 
ATOM      2  C   UNL     1       1.004   9.381  19.980  0.00  0.00    +0.000 A 
ATOM      3  C   UNL     1       0.929   9.231  18.595  0.00  0.00    +0.000 A 
ATOM      4  C   UNL     1       1.514   8.092  18.010  0.00  0.00    +0.000 A 
ATOM      5  C   UNL     1       2.156   7.086  18.764  0.00  0.00    +0.000 A 
ATOM      6  C   UNL     1       2.157   7.254  20.155  0.00  0.00    +0.000 A 
ENDROOT
BRANCH   5   7
ATOM      7  C   UNL     1       2.764   5.904  18.094  0.00  0.00    +0.000 A 
ATOM      8  C   UNL     1       2.029   4.700  17.964  0.00  0.00    +0.000 A 
ATOM      9  C   UNL     1       2.543   3.582  17.323  0.00  0.00    +0.000 A 
ATOM     10  C   UNL     1       3.832   3.607  16.808  0.00  0.00    +0.000 A 
ATOM     11  C   UNL     1       4.593   4.784  16.935  0.00  0.00    +0.000 A 
ATOM     12  S   UNL     1       6.215   4.985  16.384  0.00  0.00    +0.000 S 
ATOM     13  C   UNL     1       6.266   6.604  16.893  0.00  0.00    +0.000 A 
ATOM     14  C   UNL     1       5.073   6.999  17.452  0.00  0.00    +0.000 A 
ATOM     15  C   UNL     1       4.089   5.943  17.544  0.00  0.00    +0.000 A 
ENDBRANCH   5   7
BRANCH   1  16
ATOM     16  O   UNL     1       1.731   8.517  22.101  0.00  0.00    +0.000 OA
ATOM     17  H   UNL     1       1.541   7.658  22.509  0.00  0.00    +0.000 HD
ENDBRANCH   1  16
BRANCH   3  18
ATOM     18  N   UNL     1       0.268  10.204  17.820  0.00  0.00    +0.000 N 
ATOM     19  H   UNL     1       0.766  10.485  16.980  0.00  0.00    +0.000 HD
BRANCH  18  20
ATOM     20  C   UNL     1      -1.102  10.521  17.757  0.00  0.00    +0.000 A 
ATOM     21  C   UNL     1      -1.992   9.862  16.911  0.00  0.00    +0.000 A 
ATOM     22  C   UNL     1      -3.338  10.219  16.889  0.00  0.00    +0.000 A 
ATOM     23  C   UNL     1      -3.761  11.237  17.733  0.00  0.00    +0.000 A 
ATOM     24  N   UNL     1      -2.942  11.897  18.575  0.00  0.00    +0.000 NA
ATOM     25  C   UNL     1      -1.639  11.521  18.570  0.00  0.00    +0.000 A 
ENDBRANCH  18  20
ENDBRANCH   3  18
TORSDOF 4
ENDMDL
MODEL 6
REMARK VINA RESULT:      -8.0      0.932      2.091
REMARK  Name = 
REMARK  4 active torsions:
REMARK  status: ('A' for Active; 'I' for Inactive)
REMARK    1  A    between atoms: O_1  and  C_2
REMARK    2  A    between atoms: C_4  and  N_5
REMARK    3  A    between atoms: N_5  and  C_6
REMARK    4  A    between atoms: C_13  and  C_14
REMARK                            x       y       z     vdW  Elec       q    Type
REMARK                         _______ _______ _______ _____ _____    ______ ____
ROOT
ATOM      1  C   UNL     1       1.637   3.790  20.055  0.00  0.00    +0.000 A 
ATOM      2  C   UNL     1       2.940   3.598  19.611  0.00  0.00    +0.000 A 
ATOM      3  C   UNL     1       3.798   4.693  19.493  0.00  0.00    +0.000 A 
ATOM      4  C   UNL     1       3.298   5.972  19.802  0.00  0.00    +0.000 A 
ATOM      5  C   UNL     1       1.977   6.194  20.244  0.00  0.00    +0.000 A 
ATOM      6  C   UNL     1       1.171   5.058  20.399  0.00  0.00    +0.000 A 
ENDROOT
BRANCH   5   7
ATOM      7  C   UNL     1       1.498   7.571  20.552  0.00  0.00    +0.000 A 
ATOM      8  C   UNL     1       0.971   7.873  21.831  0.00  0.00    +0.000 A 
ATOM      9  C   UNL     1       0.538   9.146  22.174  0.00  0.00    +0.000 A 
ATOM     10  C   UNL     1       0.585  10.171  21.238  0.00  0.00    +0.000 A 
ATOM     11  C   UNL     1       1.089   9.897  19.953  0.00  0.00    +0.000 A 
ATOM     12  S   UNL     1       1.193  11.036  18.661  0.00  0.00    +0.000 S 
ATOM     13  C   UNL     1       1.907   9.901  17.620  0.00  0.00    +0.000 A 
ATOM     14  C   UNL     1       2.087   8.686  18.239  0.00  0.00    +0.000 A 
ATOM     15  C   UNL     1       1.568   8.631  19.588  0.00  0.00    +0.000 A 
ENDBRANCH   5   7
BRANCH   1  16
ATOM     16  O   UNL     1       0.763   2.747  20.165  0.00  0.00    +0.000 OA
ATOM     17  H   UNL     1      -0.143   3.090  20.119  0.00  0.00    +0.000 HD
ENDBRANCH   1  16
BRANCH   3  18
ATOM     18  N   UNL     1       5.131   4.498  19.083  0.00  0.00    +0.000 N 
ATOM     19  H   UNL     1       5.692   3.941  19.720  0.00  0.00    +0.000 HD
BRANCH  18  20
ATOM     20  C   UNL     1       5.687   4.550  17.791  0.00  0.00    +0.000 A 
ATOM     21  C   UNL     1       4.910   4.616  16.636  0.00  0.00    +0.000 A 
ATOM     22  C   UNL     1       5.515   4.664  15.382  0.00  0.00    +0.000 A 
ATOM     23  C   UNL     1       6.902   4.649  15.321  0.00  0.00    +0.000 A 
ATOM     24  N   UNL     1       7.696   4.595  16.409  0.00  0.00    +0.000 NA
ATOM     25  C   UNL     1       7.072   4.552  17.611  0.00  0.00    +0.000 A 
ENDBRANCH  18  20
ENDBRANCH   3  18
TORSDOF 4
ENDMDL
MODEL 7
REMARK VINA RESULT:      -7.9      3.457      5.116
REMARK  Name = 
REMARK  4 active torsions:
REMARK  status: ('A' for Active; 'I' for Inactive)
REMARK    1  A    between atoms: O_1  and  C_2
REMARK    2  A    between atoms: C_4  and  N_5
REMARK    3  A    between atoms: N_5  and  C_6
REMARK    4  A    between atoms: C_13  and  C_14
REMARK                            x       y       z     vdW  Elec       q    Type
REMARK                         _______ _______ _______ _____ _____    ______ ____
ROOT
ATOM      1  C   UNL     1       7.407   5.454  18.973  0.00  0.00    +0.000 A 
ATOM      2  C   UNL     1       7.599   5.675  17.614  0.00  0.00    +0.000 A 
ATOM      3  C   UNL     1       6.497   5.721  16.760  0.00  0.00    +0.000 A 
ATOM      4  C   UNL     1       5.216   5.508  17.305  0.00  0.00    +0.000 A 
ATOM      5  C   UNL     1       4.996   5.271  18.678  0.00  0.00    +0.000 A 
ATOM      6  C   UNL     1       6.128   5.289  19.504  0.00  0.00    +0.000 A 
ENDROOT
BRANCH   5   7
ATOM      7  C   UNL     1       3.620   5.046  19.201  0.00  0.00    +0.000 A 
ATOM      8  C   UNL     1       3.009   6.010  20.041  0.00  0.00    +0.000 A 
ATOM      9  C   UNL     1       1.720   5.858  20.529  0.00  0.00    +0.000 A 
ATOM     10  C   UNL     1       0.991   4.716  20.225  0.00  0.00    +0.000 A 
ATOM     11  C   UNL     1       1.577   3.733  19.406  0.00  0.00    +0.000 A 
ATOM     12  S   UNL     1       0.834   2.244  18.950  0.00  0.00    +0.000 S 
ATOM     13  C   UNL     1       2.167   1.783  18.005  0.00  0.00    +0.000 A 
ATOM     14  C   UNL     1       3.151   2.743  18.010  0.00  0.00    +0.000 A 
ATOM     15  C   UNL     1       2.864   3.874  18.866  0.00  0.00    +0.000 A 
ENDBRANCH   5   7
BRANCH   1  16
ATOM     16  O   UNL     1       8.461   5.384  19.838  0.00  0.00    +0.000 OA
ATOM     17  H   UNL     1       9.238   5.051  19.361  0.00  0.00    +0.000 HD
ENDBRANCH   1  16
BRANCH   3  18
ATOM     18  N   UNL     1       6.683   5.986  15.389  0.00  0.00    +0.000 N 
ATOM     19  H   UNL     1       7.268   6.791  15.190  0.00  0.00    +0.000 HD
BRANCH  18  20
ATOM     20  C   UNL     1       6.583   5.116  14.287  0.00  0.00    +0.000 A 
ATOM     21  C   UNL     1       7.510   5.104  13.247  0.00  0.00    +0.000 A 
ATOM     22  C   UNL     1       7.359   4.221  12.179  0.00  0.00    +0.000 A 
ATOM     23  C   UNL     1       6.271   3.360  12.188  0.00  0.00    +0.000 A 
ATOM     24  N   UNL     1       5.354   3.327  13.175  0.00  0.00    +0.000 NA
ATOM     25  C   UNL     1       5.534   4.198  14.198  0.00  0.00    +0.000 A 
ENDBRANCH  18  20
ENDBRANCH   3  18
TORSDOF 4
ENDMDL
MODEL 8
REMARK VINA RESULT:      -7.9      4.370      7.525
REMARK  Name = 
REMARK  4 active torsions:
REMARK  status: ('A' for Active; 'I' for Inactive)
REMARK    1  A    between atoms: O_1  and  C_2
REMARK    2  A    between atoms: C_4  and  N_5
REMARK    3  A    between atoms: N_5  and  C_6
REMARK    4  A    between atoms: C_13  and  C_14
REMARK                            x       y       z     vdW  Elec       q    Type
REMARK                         _______ _______ _______ _____ _____    ______ ____
ROOT
ATOM      1  C   UNL     1       1.001   9.400  21.414  0.00  0.00    +0.000 A 
ATOM      2  C   UNL     1       0.368  10.291  20.556  0.00  0.00    +0.000 A 
ATOM      3  C   UNL     1       0.415  10.073  19.178  0.00  0.00    +0.000 A 
ATOM      4  C   UNL     1       1.137   8.964  18.698  0.00  0.00    +0.000 A 
ATOM      5  C   UNL     1       1.797   8.052  19.549  0.00  0.00    +0.000 A 
ATOM      6  C   UNL     1       1.674   8.281  20.926  0.00  0.00    +0.000 A 
ENDROOT
BRANCH   5   7
ATOM      7  C   UNL     1       2.553   6.897  18.988  0.00  0.00    +0.000 A 
ATOM      8  C   UNL     1       3.454   7.090  17.912  0.00  0.00    +0.000 A 
ATOM      9  C   UNL     1       4.201   6.051  17.375  0.00  0.00    +0.000 A 
ATOM     10  C   UNL     1       4.056   4.762  17.870  0.00  0.00    +0.000 A 
ATOM     11  C   UNL     1       3.156   4.537  18.928  0.00  0.00    +0.000 A 
ATOM     12  S   UNL     1       2.827   3.003  19.646  0.00  0.00    +0.000 S 
ATOM     13  C   UNL     1       1.745   3.677  20.767  0.00  0.00    +0.000 A 
ATOM     14  C   UNL     1       1.645   5.040  20.622  0.00  0.00    +0.000 A 
ATOM     15  C   UNL     1       2.415   5.572  19.517  0.00  0.00    +0.000 A 
ENDBRANCH   5   7
BRANCH   1  16
ATOM     16  O   UNL     1       0.993   9.589  22.766  0.00  0.00    +0.000 OA
ATOM     17  H   UNL     1       0.089   9.468  23.096  0.00  0.00    +0.000 HD
ENDBRANCH   1  16
BRANCH   3  18
ATOM     18  N   UNL     1      -0.259  10.950  18.306  0.00  0.00    +0.000 N 
ATOM     19  H   UNL     1       0.344  11.457  17.666  0.00  0.00    +0.000 HD
BRANCH  18  20
ATOM     20  C   UNL     1      -1.597  10.926  17.870  0.00  0.00    +0.000 A 
ATOM     21  C   UNL     1      -2.035  10.117  16.822  0.00  0.00    +0.000 A 
ATOM     22  C   UNL     1      -3.372  10.135  16.431  0.00  0.00    +0.000 A 
ATOM     23  C   UNL     1      -4.245  10.971  17.114  0.00  0.00    +0.000 A 
ATOM     24  N   UNL     1      -3.872  11.763  18.138  0.00  0.00    +0.000 NA
ATOM     25  C   UNL     1      -2.564  11.717  18.492  0.00  0.00    +0.000 A 
ENDBRANCH  18  20
ENDBRANCH   3  18
TORSDOF 4
ENDMDL
MODEL 9
REMARK VINA RESULT:      -7.7      3.350      5.090
REMARK  Name = 
REMARK  4 active torsions:
REMARK  status: ('A' for Active; 'I' for Inactive)
REMARK    1  A    between atoms: O_1  and  C_2
REMARK    2  A    between atoms: C_4  and  N_5
REMARK    3  A    between atoms: N_5  and  C_6
REMARK    4  A    between atoms: C_13  and  C_14
REMARK                            x       y       z     vdW  Elec       q    Type
REMARK                         _______ _______ _______ _____ _____    ______ ____
ROOT
ATOM      1  C   UNL     1       7.287   5.566  19.098  0.00  0.00    +0.000 A 
ATOM      2  C   UNL     1       7.722   5.814  17.801  0.00  0.00    +0.000 A 
ATOM      3  C   UNL     1       6.953   5.381  16.720  0.00  0.00    +0.000 A 
ATOM      4  C   UNL     1       5.765   4.673  16.984  0.00  0.00    +0.000 A 
ATOM      5  C   UNL     1       5.308   4.399  18.291  0.00  0.00    +0.000 A 
ATOM      6  C   UNL     1       6.086   4.902  19.342  0.00  0.00    +0.000 A 
ENDROOT
BRANCH   5   7
ATOM      7  C   UNL     1       4.046   3.639  18.513  0.00  0.00    +0.000 A 
ATOM      8  C   UNL     1       3.867   2.365  17.921  0.00  0.00    +0.000 A 
ATOM      9  C   UNL     1       2.722   1.608  18.122  0.00  0.00    +0.000 A 
ATOM     10  C   UNL     1       1.686   2.107  18.902  0.00  0.00    +0.000 A 
ATOM     11  C   UNL     1       1.829   3.377  19.490  0.00  0.00    +0.000 A 
ATOM     12  S   UNL     1       0.639   4.163  20.461  0.00  0.00    +0.000 S 
ATOM     13  C   UNL     1       1.641   5.507  20.731  0.00  0.00    +0.000 A 
ATOM     14  C   UNL     1       2.864   5.361  20.120  0.00  0.00    +0.000 A 
ATOM     15  C   UNL     1       2.989   4.150  19.337  0.00  0.00    +0.000 A 
ENDBRANCH   5   7
BRANCH   1  16
ATOM     16  O   UNL     1       8.021   5.957  20.181  0.00  0.00    +0.000 OA
ATOM     17  H   UNL     1       7.942   6.918  20.285  0.00  0.00    +0.000 HD
ENDBRANCH   1  16
BRANCH   3  18
ATOM     18  N   UNL     1       7.368   5.665  15.405  0.00  0.00    +0.000 N 
ATOM     19  H   UNL     1       8.219   6.216  15.341  0.00  0.00    +0.000 HD
BRANCH  18  20
ATOM     20  C   UNL     1       7.087   4.979  14.209  0.00  0.00    +0.000 A 
ATOM     21  C   UNL     1       6.087   4.014  14.109  0.00  0.00    +0.000 A 
ATOM     22  C   UNL     1       5.853   3.365  12.899  0.00  0.00    +0.000 A 
ATOM     23  C   UNL     1       6.636   3.711  11.806  0.00  0.00    +0.000 A 
ATOM     24  N   UNL     1       7.607   4.645  11.850  0.00  0.00    +0.000 NA
ATOM     25  C   UNL     1       7.804   5.256  13.044  0.00  0.00    +0.000 A 
ENDBRANCH  18  20
ENDBRANCH   3  18
TORSDOF 4
ENDMDL
