MODEL 1
REMARK VINA RESULT:      -7.3      0.000      0.000
REMARK  Name = 
REMARK  4 active torsions:
REMARK  status: ('A' for Active; 'I' for Inactive)
REMARK    1  A    between atoms: C_1  and  C_2
REMARK    2  A    between atoms: C_2  and  C_3
REMARK    3  A    between atoms: N_7  and  C_8
REMARK    4  A    between atoms: C_8  and  C_9
REMARK                            x       y       z     vdW  Elec       q    Type
REMARK                         _______ _______ _______ _____ _____    ______ ____
ROOT
ATOM      1  C   UNL     1       2.266   7.802  18.861  0.00  0.00    +0.000 A 
ATOM      2  N   UNL     1       2.116   8.923  18.130  0.00  0.00    +0.000 NA
ATOM      3  C   UNL     1       1.467   9.937  18.707  0.00  0.00    +0.000 A 
ATOM      4  N   UNL     1       1.425  11.108  17.941  0.00  0.00    +0.000 N 
ATOM      5  C   UNL     1       0.931   9.875  20.000  0.00  0.00    +0.000 A 
ATOM      6  C   UNL     1       0.228  10.923  20.639  0.00  0.00    +0.000 A 
ATOM      7  C   UNL     1      -0.265  10.762  21.931  0.00  0.00    +0.000 A 
ATOM      8  C   UNL     1      -0.040   9.565  22.600  0.00  0.00    +0.000 A 
ATOM      9  C   UNL     1       0.663   8.536  21.968  0.00  0.00    +0.000 A 
ATOM     10  C   UNL     1       1.147   8.663  20.669  0.00  0.00    +0.000 A 
ATOM     11  N   UNL     1       1.803   7.638  20.115  0.00  0.00    +0.000 NA
ATOM     12  H   UNL     1       1.834  10.884  17.035  0.00  0.00    +0.000 HD
ATOM     13  H   UNL     1       0.486  11.477  17.855  0.00  0.00    +0.000 HD
ENDROOT
BRANCH   1  14
ATOM     14  C   UNL     1       3.101   6.684  18.254  0.00  0.00    +0.000 C 
BRANCH  14  19
ATOM     15  C   UNL     1       1.653   3.262  19.106  0.00  0.00    +0.000 C 
ATOM     16  C   UNL     1       2.950   2.439  19.068  0.00  0.00    +0.000 C 
ATOM     17  C   UNL     1       4.152   3.255  19.539  0.00  0.00    +0.000 C 
ATOM     18  C   UNL     1       4.250   4.598  18.809  0.00  0.00    +0.000 C 
ATOM     19  N   UNL     1       2.987   5.342  18.879  0.00  0.00    +0.000 NA
ATOM     20  C   UNL     1       1.875   4.564  18.310  0.00  0.00    +0.000 C 
BRANCH  15  22
ATOM     21  C   UNL     1       1.508   2.572  21.591  0.00  0.00    +0.000 C 
ATOM     22  C   UNL     1       1.146   3.595  20.526  0.00  0.00    +0.000 C 
ENDBRANCH  15  22
ENDBRANCH  14  19
ENDBRANCH   1  14
TORSDOF 3
ENDMDL
MODEL 2
REMARK VINA RESULT:      -7.2      3.712      6.554
REMARK  Name = 
REMARK  4 active torsions:
REMARK  status: ('A' for Active; 'I' for Inactive)
REMARK    1  A    between atoms: C_1  and  C_2
REMARK    2  A    between atoms: C_2  and  C_3
REMARK    3  A    between atoms: N_7  and  C_8
REMARK    4  A    between atoms: C_8  and  C_9
REMARK                            x       y       z     vdW  Elec       q    Type
REMARK                         _______ _______ _______ _____ _____    ______ ____
ROOT
ATOM      1  C   UNL     1       5.060   5.571  18.189  0.00  0.00    +0.000 A 
ATOM      2  N   UNL     1       6.132   6.382  18.105  0.00  0.00    +0.000 NA
ATOM      3  C   UNL     1       6.839   6.331  16.973  0.00  0.00    +0.000 A 
ATOM      4  N   UNL     1       7.882   7.261  16.900  0.00  0.00    +0.000 N 
ATOM      5  C   UNL     1       6.532   5.473  15.908  0.00  0.00    +0.000 A 
ATOM      6  C   UNL     1       7.264   5.383  14.702  0.00  0.00    +0.000 A 
ATOM      7  C   UNL     1       6.874   4.497  13.700  0.00  0.00    +0.000 A 
ATOM      8  C   UNL     1       5.741   3.715  13.888  0.00  0.00    +0.000 A 
ATOM      9  C   UNL     1       5.016   3.816  15.078  0.00  0.00    +0.000 A 
ATOM     10  C   UNL     1       5.397   4.676  16.103  0.00  0.00    +0.000 A 
ATOM     11  N   UNL     1       4.667   4.718  17.224  0.00  0.00    +0.000 NA
ATOM     12  H   UNL     1       7.929   7.725  17.806  0.00  0.00    +0.000 HD
ATOM     13  H   UNL     1       8.763   6.832  16.644  0.00  0.00    +0.000 HD
ENDROOT
BRANCH   1  14
ATOM     14  C   UNL     1       4.185   5.704  19.427  0.00  0.00    +0.000 C 
BRANCH  14  19
ATOM     15  C   UNL     1       2.517   2.378  20.257  0.00  0.00    +0.000 C 
ATOM     16  C   UNL     1       1.271   2.911  20.981  0.00  0.00    +0.000 C 
ATOM     17  C   UNL     1       0.803   4.243  20.397  0.00  0.00    +0.000 C 
ATOM     18  C   UNL     1       1.947   5.258  20.305  0.00  0.00    +0.000 C 
ATOM     19  N   UNL     1       3.108   4.698  19.602  0.00  0.00    +0.000 NA
ATOM     20  C   UNL     1       3.597   3.479  20.264  0.00  0.00    +0.000 C 
BRANCH  15  22
ATOM     21  C   UNL     1       3.515   1.527  18.032  0.00  0.00    +0.000 C 
ATOM     22  C   UNL     1       2.263   1.903  18.809  0.00  0.00    +0.000 C 
ENDBRANCH  15  22
ENDBRANCH  14  19
ENDBRANCH   1  14
TORSDOF 3
ENDMDL
MODEL 3
REMARK VINA RESULT:      -7.1      4.024      7.429
REMARK  Name = 
REMARK  4 active torsions:
REMARK  status: ('A' for Active; 'I' for Inactive)
REMARK    1  A    between atoms: C_1  and  C_2
REMARK    2  A    between atoms: C_2  and  C_3
REMARK    3  A    between atoms: N_7  and  C_8
REMARK    4  A    between atoms: C_8  and  C_9
REMARK                            x       y       z     vdW  Elec       q    Type
REMARK                         _______ _______ _______ _____ _____    ______ ____
ROOT
ATOM      1  C   UNL     1       5.305   3.863  16.647  0.00  0.00    +0.000 A 
ATOM      2  N   UNL     1       6.107   4.866  17.053  0.00  0.00    +0.000 NA
ATOM      3  C   UNL     1       6.888   5.427  16.126  0.00  0.00    +0.000 A 
ATOM      4  N   UNL     1       7.627   6.526  16.579  0.00  0.00    +0.000 N 
ATOM      5  C   UNL     1       6.921   5.010  14.788  0.00  0.00    +0.000 A 
ATOM      6  C   UNL     1       7.742   5.571  13.783  0.00  0.00    +0.000 A 
ATOM      7  C   UNL     1       7.699   5.084  12.479  0.00  0.00    +0.000 A 
ATOM      8  C   UNL     1       6.822   4.053  12.167  0.00  0.00    +0.000 A 
ATOM      9  C   UNL     1       6.006   3.509  13.163  0.00  0.00    +0.000 A 
ATOM     10  C   UNL     1       6.046   3.961  14.477  0.00  0.00    +0.000 A 
ATOM     11  N   UNL     1       5.247   3.391  15.387  0.00  0.00    +0.000 NA
ATOM     12  H   UNL     1       7.469   6.594  17.584  0.00  0.00    +0.000 HD
ATOM     13  H   UNL     1       8.611   6.447  16.352  0.00  0.00    +0.000 HD
ENDROOT
BRANCH   1  14
ATOM     14  C   UNL     1       4.333   3.295  17.670  0.00  0.00    +0.000 C 
BRANCH  14  19
ATOM     15  C   UNL     1       2.504   5.232  20.398  0.00  0.00    +0.000 C 
ATOM     16  C   UNL     1       2.455   6.610  19.718  0.00  0.00    +0.000 C 
ATOM     17  C   UNL     1       2.325   6.490  18.202  0.00  0.00    +0.000 C 
ATOM     18  C   UNL     1       3.379   5.546  17.613  0.00  0.00    +0.000 C 
ATOM     19  N   UNL     1       3.379   4.247  18.295  0.00  0.00    +0.000 NA
ATOM     20  C   UNL     1       3.622   4.400  19.738  0.00  0.00    +0.000 C 
BRANCH  15  22
ATOM     21  C   UNL     1       1.231   3.059  20.969  0.00  0.00    +0.000 C 
ATOM     22  C   UNL     1       1.173   4.449  20.356  0.00  0.00    +0.000 C 
ENDBRANCH  15  22
ENDBRANCH  14  19
ENDBRANCH   1  14
TORSDOF 3
ENDMDL
MODEL 4
REMARK VINA RESULT:      -7.1      1.923      3.355
REMARK  Name = 
REMARK  4 active torsions:
REMARK  status: ('A' for Active; 'I' for Inactive)
REMARK    1  A    between atoms: C_1  and  C_2
REMARK    2  A    between atoms: C_2  and  C_3
REMARK    3  A    between atoms: N_7  and  C_8
REMARK    4  A    between atoms: C_8  and  C_9
REMARK                            x       y       z     vdW  Elec       q    Type
REMARK                         _______ _______ _______ _____ _____    ______ ____
ROOT
ATOM      1  C   UNL     1       2.279   7.060  19.598  0.00  0.00    +0.000 A 
ATOM      2  N   UNL     1       2.315   7.878  18.528  0.00  0.00    +0.000 NA
ATOM      3  C   UNL     1       1.690   9.052  18.645  0.00  0.00    +0.000 A 
ATOM      4  N   UNL     1       1.842   9.900  17.542  0.00  0.00    +0.000 N 
ATOM      5  C   UNL     1       0.996   9.446  19.796  0.00  0.00    +0.000 A 
ATOM      6  C   UNL     1       0.312  10.674  19.951  0.00  0.00    +0.000 A 
ATOM      7  C   UNL     1      -0.347  10.973  21.141  0.00  0.00    +0.000 A 
ATOM      8  C   UNL     1      -0.309  10.061  22.187  0.00  0.00    +0.000 A 
ATOM      9  C   UNL     1       0.376   8.853  22.032  0.00  0.00    +0.000 A 
ATOM     10  C   UNL     1       1.024   8.520  20.847  0.00  0.00    +0.000 A 
ATOM     11  N   UNL     1       1.653   7.343  20.757  0.00  0.00    +0.000 NA
ATOM     12  H   UNL     1       2.338   9.371  16.827  0.00  0.00    +0.000 HD
ATOM     13  H   UNL     1       0.955  10.257  17.206  0.00  0.00    +0.000 HD
ENDROOT
BRANCH   1  14
ATOM     14  C   UNL     1       3.083   5.771  19.513  0.00  0.00    +0.000 C 
BRANCH  14  19
ATOM     15  C   UNL     1       6.519   5.588  17.871  0.00  0.00    +0.000 C 
ATOM     16  C   UNL     1       6.213   4.531  16.798  0.00  0.00    +0.000 C 
ATOM     17  C   UNL     1       4.775   4.636  16.294  0.00  0.00    +0.000 C 
ATOM     18  C   UNL     1       3.767   4.656  17.448  0.00  0.00    +0.000 C 
ATOM     19  N   UNL     1       4.105   5.683  18.440  0.00  0.00    +0.000 NA
ATOM     20  C   UNL     1       5.456   5.478  18.984  0.00  0.00    +0.000 C 
BRANCH  15  22
ATOM     21  C   UNL     1       7.824   7.813  17.745  0.00  0.00    +0.000 C 
ATOM     22  C   UNL     1       6.578   7.039  17.345  0.00  0.00    +0.000 C 
ENDBRANCH  15  22
ENDBRANCH  14  19
ENDBRANCH   1  14
TORSDOF 3
ENDMDL
MODEL 5
REMARK VINA RESULT:      -7.0      4.275      5.574
REMARK  Name = 
REMARK  4 active torsions:
REMARK  status: ('A' for Active; 'I' for Inactive)
REMARK    1  A    between atoms: C_1  and  C_2
REMARK    2  A    between atoms: C_2  and  C_3
REMARK    3  A    between atoms: N_7  and  C_8
REMARK    4  A    between atoms: C_8  and  C_9
REMARK                            x       y       z     vdW  Elec       q    Type
REMARK                         _______ _______ _______ _____ _____    ______ ____
ROOT
ATOM      1  C   UNL     1       5.020   4.301  17.628  0.00  0.00    +0.000 A 
ATOM      2  N   UNL     1       4.702   5.091  16.584  0.00  0.00    +0.000 NA
ATOM      3  C   UNL     1       5.426   6.203  16.426  0.00  0.00    +0.000 A 
ATOM      4  N   UNL     1       5.119   6.934  15.273  0.00  0.00    +0.000 N 
ATOM      5  C   UNL     1       6.459   6.582  17.294  0.00  0.00    +0.000 A 
ATOM      6  C   UNL     1       7.236   7.756  17.166  0.00  0.00    +0.000 A 
ATOM      7  C   UNL     1       8.244   8.042  18.084  0.00  0.00    +0.000 A 
ATOM      8  C   UNL     1       8.496   7.149  19.117  0.00  0.00    +0.000 A 
ATOM      9  C   UNL     1       7.731   5.985  19.233  0.00  0.00    +0.000 A 
ATOM     10  C   UNL     1       6.703   5.687  18.344  0.00  0.00    +0.000 A 
ATOM     11  N   UNL     1       6.000   4.562  18.515  0.00  0.00    +0.000 NA
ATOM     12  H   UNL     1       4.311   6.485  14.844  0.00  0.00    +0.000 HD
ATOM     13  H   UNL     1       4.949   7.913  15.473  0.00  0.00    +0.000 HD
ENDROOT
BRANCH   1  14
ATOM     14  C   UNL     1       4.278   2.979  17.749  0.00  0.00    +0.000 C 
BRANCH  14  19
ATOM     15  C   UNL     1       1.659   4.207  20.232  0.00  0.00    +0.000 C 
ATOM     16  C   UNL     1       0.429   3.486  19.657  0.00  0.00    +0.000 C 
ATOM     17  C   UNL     1       0.798   2.133  19.051  0.00  0.00    +0.000 C 
ATOM     18  C   UNL     1       1.965   2.251  18.064  0.00  0.00    +0.000 C 
ATOM     19  N   UNL     1       3.111   2.943  18.666  0.00  0.00    +0.000 NA
ATOM     20  C   UNL     1       2.739   4.287  19.134  0.00  0.00    +0.000 C 
BRANCH  15  22
ATOM     21  C   UNL     1       1.449   2.383  22.049  0.00  0.00    +0.000 C 
ATOM     22  C   UNL     1       2.250   3.553  21.502  0.00  0.00    +0.000 C 
ENDBRANCH  15  22
ENDBRANCH  14  19
ENDBRANCH   1  14
TORSDOF 3
ENDMDL
MODEL 6
REMARK VINA RESULT:      -6.9      4.061      7.585
REMARK  Name = 
REMARK  4 active torsions:
REMARK  status: ('A' for Active; 'I' for Inactive)
REMARK    1  A    between atoms: C_1  and  C_2
REMARK    2  A    between atoms: C_2  and  C_3
REMARK    3  A    between atoms: N_7  and  C_8
REMARK    4  A    between atoms: C_8  and  C_9
REMARK                            x       y       z     vdW  Elec       q    Type
REMARK                         _______ _______ _______ _____ _____    ______ ____
ROOT
ATOM      1  C   UNL     1       5.160   3.790  16.452  0.00  0.00    +0.000 A 
ATOM      2  N   UNL     1       5.914   4.794  16.937  0.00  0.00    +0.000 NA
ATOM      3  C   UNL     1       6.750   5.388  16.081  0.00  0.00    +0.000 A 
ATOM      4  N   UNL     1       7.437   6.486  16.610  0.00  0.00    +0.000 N 
ATOM      5  C   UNL     1       6.886   5.002  14.741  0.00  0.00    +0.000 A 
ATOM      6  C   UNL     1       7.768   5.597  13.810  0.00  0.00    +0.000 A 
ATOM      7  C   UNL     1       7.827   5.140  12.496  0.00  0.00    +0.000 A 
ATOM      8  C   UNL     1       6.992   4.104  12.099  0.00  0.00    +0.000 A 
ATOM      9  C   UNL     1       6.115   3.525  13.020  0.00  0.00    +0.000 A 
ATOM     10  C   UNL     1       6.053   3.948  14.344  0.00  0.00    +0.000 A 
ATOM     11  N   UNL     1       5.200   3.346  15.181  0.00  0.00    +0.000 NA
ATOM     12  H   UNL     1       7.207   6.529  17.602  0.00  0.00    +0.000 HD
ATOM     13  H   UNL     1       8.436   6.427  16.454  0.00  0.00    +0.000 HD
ENDROOT
BRANCH   1  14
ATOM     14  C   UNL     1       4.125   3.184  17.390  0.00  0.00    +0.000 C 
BRANCH  14  19
ATOM     15  C   UNL     1       1.873   5.831  18.957  0.00  0.00    +0.000 C 
ATOM     16  C   UNL     1       1.593   5.139  20.301  0.00  0.00    +0.000 C 
ATOM     17  C   UNL     1       2.789   4.315  20.774  0.00  0.00    +0.000 C 
ATOM     18  C   UNL     1       3.294   3.366  19.682  0.00  0.00    +0.000 C 
ATOM     19  N   UNL     1       3.548   4.079  18.424  0.00  0.00    +0.000 NA
ATOM     20  C   UNL     1       2.339   4.765  17.944  0.00  0.00    +0.000 C 
BRANCH  15  22
ATOM     21  C   UNL     1       2.958   7.869  17.800  0.00  0.00    +0.000 C 
ATOM     22  C   UNL     1       2.910   6.974  19.028  0.00  0.00    +0.000 C 
ENDBRANCH  15  22
ENDBRANCH  14  19
ENDBRANCH   1  14
TORSDOF 3
ENDMDL
MODEL 7
REMARK VINA RESULT:      -6.8      1.454      2.775
REMARK  Name = 
REMARK  4 active torsions:
REMARK  status: ('A' for Active; 'I' for Inactive)
REMARK    1  A    between atoms: C_1  and  C_2
REMARK    2  A    between atoms: C_2  and  C_3
REMARK    3  A    between atoms: N_7  and  C_8
REMARK    4  A    between atoms: C_8  and  C_9
REMARK                            x       y       z     vdW  Elec       q    Type
REMARK                         _______ _______ _______ _____ _____    ______ ____
ROOT
ATOM      1  C   UNL     1       1.734   7.543  20.254  0.00  0.00    +0.000 A 
ATOM      2  N   UNL     1       1.881   8.204  19.090  0.00  0.00    +0.000 NA
ATOM      3  C   UNL     1       1.378   9.440  19.030  0.00  0.00    +0.000 A 
ATOM      4  N   UNL     1       1.644  10.115  17.834  0.00  0.00    +0.000 N 
ATOM      5  C   UNL     1       0.702  10.051  20.094  0.00  0.00    +0.000 A 
ATOM      6  C   UNL     1       0.146  11.351  20.063  0.00  0.00    +0.000 A 
ATOM      7  C   UNL     1      -0.507  11.869  21.179  0.00  0.00    +0.000 A 
ATOM      8  C   UNL     1      -0.589  11.104  22.335  0.00  0.00    +0.000 A 
ATOM      9  C   UNL     1      -0.029   9.824  22.363  0.00  0.00    +0.000 A 
ATOM     10  C   UNL     1       0.608   9.274  21.256  0.00  0.00    +0.000 A 
ATOM     11  N   UNL     1       1.114   8.038  21.343  0.00  0.00    +0.000 NA
ATOM     12  H   UNL     1       2.099   9.448  17.212  0.00  0.00    +0.000 HD
ATOM     13  H   UNL     1       0.808  10.511  17.421  0.00  0.00    +0.000 HD
ENDROOT
BRANCH   1  14
ATOM     14  C   UNL     1       2.401   6.180  20.368  0.00  0.00    +0.000 C 
BRANCH  14  19
ATOM     15  C   UNL     1       4.707   4.692  17.722  0.00  0.00    +0.000 C 
ATOM     16  C   UNL     1       3.867   3.464  17.338  0.00  0.00    +0.000 C 
ATOM     17  C   UNL     1       2.370   3.749  17.434  0.00  0.00    +0.000 C 
ATOM     18  C   UNL     1       1.992   4.359  18.788  0.00  0.00    +0.000 C 
ATOM     19  N   UNL     1       2.822   5.529  19.102  0.00  0.00    +0.000 NA
ATOM     20  C   UNL     1       4.252   5.183  19.111  0.00  0.00    +0.000 C 
BRANCH  15  22
ATOM     21  C   UNL     1       5.499   5.668  15.466  0.00  0.00    +0.000 C 
ATOM     22  C   UNL     1       4.643   5.856  16.708  0.00  0.00    +0.000 C 
ENDBRANCH  15  22
ENDBRANCH  14  19
ENDBRANCH   1  14
TORSDOF 3
ENDMDL
MODEL 8
REMARK VINA RESULT:      -6.8      2.938      5.792
REMARK  Name = 
REMARK  4 active torsions:
REMARK  status: ('A' for Active; 'I' for Inactive)
REMARK    1  A    between atoms: C_1  and  C_2
REMARK    2  A    between atoms: C_2  and  C_3
REMARK    3  A    between atoms: N_7  and  C_8
REMARK    4  A    between atoms: C_8  and  C_9
REMARK                            x       y       z     vdW  Elec       q    Type
REMARK                         _______ _______ _______ _____ _____    ______ ____
ROOT
ATOM      1  C   UNL     1       3.000   6.297  17.972  0.00  0.00    +0.000 A 
ATOM      2  N   UNL     1       2.625   6.939  19.095  0.00  0.00    +0.000 NA
ATOM      3  C   UNL     1       2.053   6.200  20.050  0.00  0.00    +0.000 A 
ATOM      4  N   UNL     1       1.774   6.897  21.230  0.00  0.00    +0.000 N 
ATOM      5  C   UNL     1       1.814   4.825  19.923  0.00  0.00    +0.000 A 
ATOM      6  C   UNL     1       1.200   4.015  20.906  0.00  0.00    +0.000 A 
ATOM      7  C   UNL     1       1.008   2.653  20.683  0.00  0.00    +0.000 A 
ATOM      8  C   UNL     1       1.447   2.091  19.491  0.00  0.00    +0.000 A 
ATOM      9  C   UNL     1       2.061   2.895  18.527  0.00  0.00    +0.000 A 
ATOM     10  C   UNL     1       2.244   4.261  18.715  0.00  0.00    +0.000 A 
ATOM     11  N   UNL     1       2.829   4.979  17.749  0.00  0.00    +0.000 NA
ATOM     12  H   UNL     1       1.991   7.877  21.055  0.00  0.00    +0.000 HD
ATOM     13  H   UNL     1       0.816   6.768  21.536  0.00  0.00    +0.000 HD
ENDROOT
BRANCH   1  14
ATOM     14  C   UNL     1       3.753   7.108  16.927  0.00  0.00    +0.000 C 
BRANCH  14  19
ATOM     15  C   UNL     1       7.411   6.371  17.705  0.00  0.00    +0.000 C 
ATOM     16  C   UNL     1       7.617   5.172  16.765  0.00  0.00    +0.000 C 
ATOM     17  C   UNL     1       6.785   5.302  15.491  0.00  0.00    +0.000 C 
ATOM     18  C   UNL     1       5.314   5.601  15.800  0.00  0.00    +0.000 C 
ATOM     19  N   UNL     1       5.176   6.754  16.697  0.00  0.00    +0.000 NA
ATOM     20  C   UNL     1       5.900   6.540  17.960  0.00  0.00    +0.000 C 
BRANCH  15  22
ATOM     21  C   UNL     1       8.276   8.739  18.267  0.00  0.00    +0.000 C 
ATOM     22  C   UNL     1       8.008   7.700  17.190  0.00  0.00    +0.000 C 
ENDBRANCH  15  22
ENDBRANCH  14  19
ENDBRANCH   1  14
TORSDOF 3
ENDMDL
MODEL 9
REMARK VINA RESULT:      -6.7      1.500      6.227
REMARK  Name = 
REMARK  4 active torsions:
REMARK  status: ('A' for Active; 'I' for Inactive)
REMARK    1  A    between atoms: C_1  and  C_2
REMARK    2  A    between atoms: C_2  and  C_3
REMARK    3  A    between atoms: N_7  and  C_8
REMARK    4  A    between atoms: C_8  and  C_9
REMARK                            x       y       z     vdW  Elec       q    Type
REMARK                         _______ _______ _______ _____ _____    ______ ____
ROOT
ATOM      1  C   UNL     1       2.574   7.676  18.402  0.00  0.00    +0.000 A 
ATOM      2  N   UNL     1       3.514   7.173  17.580  0.00  0.00    +0.000 NA
ATOM      3  C   UNL     1       3.910   5.919  17.811  0.00  0.00    +0.000 A 
ATOM      4  N   UNL     1       4.814   5.415  16.869  0.00  0.00    +0.000 N 
ATOM      5  C   UNL     1       3.414   5.133  18.860  0.00  0.00    +0.000 A 
ATOM      6  C   UNL     1       3.818   3.808  19.143  0.00  0.00    +0.000 A 
ATOM      7  C   UNL     1       3.262   3.110  20.212  0.00  0.00    +0.000 A 
ATOM      8  C   UNL     1       2.286   3.722  20.989  0.00  0.00    +0.000 A 
ATOM      9  C   UNL     1       1.885   5.029  20.700  0.00  0.00    +0.000 A 
ATOM     10  C   UNL     1       2.440   5.756  19.652  0.00  0.00    +0.000 A 
ATOM     11  N   UNL     1       2.021   7.007  19.433  0.00  0.00    +0.000 NA
ATOM     12  H   UNL     1       5.053   6.185  16.246  0.00  0.00    +0.000 HD
ATOM     13  H   UNL     1       5.635   5.008  17.304  0.00  0.00    +0.000 HD
ENDROOT
BRANCH   1  14
ATOM     14  C   UNL     1       2.037   9.062  18.078  0.00  0.00    +0.000 C 
BRANCH  14  19
ATOM     15  C   UNL     1       0.003  10.885  20.737  0.00  0.00    +0.000 C 
ATOM     16  C   UNL     1      -1.171  11.351  19.861  0.00  0.00    +0.000 C 
ATOM     17  C   UNL     1      -1.486  10.345  18.755  0.00  0.00    +0.000 C 
ATOM     18  C   UNL     1      -0.234   9.962  17.960  0.00  0.00    +0.000 C 
ATOM     19  N   UNL     1       0.852   9.523  18.844  0.00  0.00    +0.000 NA
ATOM     20  C   UNL     1       1.202  10.566  19.821  0.00  0.00    +0.000 C 
BRANCH  15  22
ATOM     21  C   UNL     1      -0.597  10.003  23.089  0.00  0.00    +0.000 C 
ATOM     22  C   UNL     1      -0.310   9.667  21.634  0.00  0.00    +0.000 C 
ENDBRANCH  15  22
ENDBRANCH  14  19
ENDBRANCH   1  14
TORSDOF 3
ENDMDL
