MODEL 1
REMARK VINA RESULT:      -7.8      0.000      0.000
REMARK  Name = 
REMARK  7 active torsions:
REMARK  status: ('A' for Active; 'I' for Inactive)
REMARK    1  A    between atoms: C_1  and  C_2
REMARK    2  A    between atoms: C_2  and  C_3
REMARK    3  A    between atoms: N_9  and  C_10
REMARK    4  A    between atoms: N_24  and  C_25
REMARK    5  A    between atoms: C_25  and  C_26
REMARK    6  A    between atoms: C_26  and  O_27
REMARK    7  A    between atoms: C_26  and  C_28
REMARK                            x       y       z     vdW  Elec       q    Type
REMARK                         _______ _______ _______ _____ _____    ______ ____
ROOT
ATOM      1  C   UNL     1       0.240   4.541  20.001  0.00  0.00    +0.000 C 
ATOM      2  C   UNL     1       1.680   4.945  20.348  0.00  0.00    +0.000 C 
ATOM      3  C   UNL     1       2.220   4.041  21.482  0.00  0.00    +0.000 C 
ATOM      4  C   UNL     1       1.694   6.391  20.925  0.00  0.00    +0.000 C 
ATOM      5  C   UNL     1       1.901   7.421  19.871  0.00  0.00    +0.000 A 
ATOM      6  C   UNL     1       2.607   7.253  18.701  0.00  0.00    +0.000 A 
ATOM      7  C   UNL     1       2.475   8.463  18.018  0.00  0.00    +0.000 A 
ATOM      8  N   UNL     1       1.675   9.322  18.673  0.00  0.00    +0.000 NA
ATOM      9  N   UNL     1       1.390   8.705  19.853  0.00  0.00    +0.000 N 
ATOM     10  C   UNL     1       3.159   5.911  18.436  0.00  0.00    +0.000 A 
ATOM     11  C   UNL     1       2.567   4.844  19.116  0.00  0.00    +0.000 A 
ATOM     12  C   UNL     1       2.820   3.719  18.288  0.00  0.00    +0.000 A 
ATOM     13  C   UNL     1       2.432   2.384  18.400  0.00  0.00    +0.000 A 
ATOM     14  C   UNL     1       3.340   1.554  19.048  0.00  0.00    +0.000 A 
ATOM     15  C   UNL     1       4.686   1.897  19.022  0.00  0.00    +0.000 A 
ATOM     16  C   UNL     1       5.143   3.054  18.330  0.00  0.00    +0.000 A 
ATOM     17  C   UNL     1       4.156   3.998  17.998  0.00  0.00    +0.000 A 
ATOM     18  N   UNL     1       4.103   5.340  17.629  0.00  0.00    +0.000 N 
ENDROOT
BRANCH   9  19
ATOM     19  C   UNL     1       0.595   9.316  20.865  0.00  0.00    +0.000 A 
ATOM     20  C   UNL     1       0.691   8.876  22.188  0.00  0.00    +0.000 A 
ATOM     21  C   UNL     1       0.026   9.582  23.198  0.00  0.00    +0.000 A 
ATOM     22  C   UNL     1      -0.752  10.698  22.891  0.00  0.00    +0.000 A 
ATOM     23  C   UNL     1      -0.892  11.105  21.568  0.00  0.00    +0.000 A 
ATOM     24  C   UNL     1      -0.232  10.407  20.558  0.00  0.00    +0.000 A 
ENDBRANCH   9  19
BRANCH  18  25
ATOM     25  C   UNL     1       4.791   5.931  16.480  0.00  0.00    +0.000 C 
BRANCH  25  26
ATOM     26  C   UNL     1       6.314   5.814  16.385  0.00  0.00    +0.000 C 
BRANCH  26  27
ATOM     27  O   UNL     1       6.760   5.821  15.024  0.00  0.00    +0.000 OA
ATOM     28  H   UNL     1       7.132   4.945  14.813  0.00  0.00    +0.000 HD
ENDBRANCH  26  27
BRANCH  26  29
ATOM     29  C   UNL     1       7.121   6.823  17.195  0.00  0.00    +0.000 C 
ATOM     30 CL   UNL     1       7.767   6.127  18.697  0.00  0.00    +0.000 Cl
ENDBRANCH  26  29
ENDBRANCH  25  26
ENDBRANCH  18  25
TORSDOF 5
ENDMDL
MODEL 2
REMARK VINA RESULT:      -7.7      1.075      1.128
REMARK  Name = 
REMARK  7 active torsions:
REMARK  status: ('A' for Active; 'I' for Inactive)
REMARK    1  A    between atoms: C_1  and  C_2
REMARK    2  A    between atoms: C_2  and  C_3
REMARK    3  A    between atoms: N_9  and  C_10
REMARK    4  A    between atoms: N_24  and  C_25
REMARK    5  A    between atoms: C_25  and  C_26
REMARK    6  A    between atoms: C_26  and  O_27
REMARK    7  A    between atoms: C_26  and  C_28
REMARK                            x       y       z     vdW  Elec       q    Type
REMARK                         _______ _______ _______ _____ _____    ______ ____
ROOT
ATOM      1  C   UNL     1       0.277   4.650  20.053  0.00  0.00    +0.000 C 
ATOM      2  C   UNL     1       1.712   5.096  20.365  0.00  0.00    +0.000 C 
ATOM      3  C   UNL     1       2.301   4.218  21.495  0.00  0.00    +0.000 C 
ATOM      4  C   UNL     1       1.698   6.547  20.929  0.00  0.00    +0.000 C 
ATOM      5  C   UNL     1       1.854   7.573  19.861  0.00  0.00    +0.000 A 
ATOM      6  C   UNL     1       2.539   7.413  18.678  0.00  0.00    +0.000 A 
ATOM      7  C   UNL     1       2.359   8.612  17.987  0.00  0.00    +0.000 A 
ATOM      8  N   UNL     1       1.550   9.455  18.650  0.00  0.00    +0.000 NA
ATOM      9  N   UNL     1       1.307   8.842  19.842  0.00  0.00    +0.000 N 
ATOM     10  C   UNL     1       3.123   6.084  18.413  0.00  0.00    +0.000 A 
ATOM     11  C   UNL     1       2.574   5.008  19.115  0.00  0.00    +0.000 A 
ATOM     12  C   UNL     1       2.841   3.882  18.292  0.00  0.00    +0.000 A 
ATOM     13  C   UNL     1       2.493   2.538  18.424  0.00  0.00    +0.000 A 
ATOM     14  C   UNL     1       3.437   1.740  19.060  0.00  0.00    +0.000 A 
ATOM     15  C   UNL     1       4.772   2.120  19.001  0.00  0.00    +0.000 A 
ATOM     16  C   UNL     1       5.182   3.282  18.290  0.00  0.00    +0.000 A 
ATOM     17  C   UNL     1       4.162   4.196  17.971  0.00  0.00    +0.000 A 
ATOM     18  N   UNL     1       4.065   5.532  17.590  0.00  0.00    +0.000 N 
ENDROOT
BRANCH   9  19
ATOM     19  C   UNL     1       0.517   9.440  20.866  0.00  0.00    +0.000 A 
ATOM     20  C   UNL     1       0.617   8.982  22.182  0.00  0.00    +0.000 A 
ATOM     21  C   UNL     1      -0.042   9.675  23.204  0.00  0.00    +0.000 A 
ATOM     22  C   UNL     1      -0.819  10.797  22.915  0.00  0.00    +0.000 A 
ATOM     23  C   UNL     1      -0.964  11.223  21.599  0.00  0.00    +0.000 A 
ATOM     24  C   UNL     1      -0.309  10.537  20.577  0.00  0.00    +0.000 A 
ENDBRANCH   9  19
BRANCH  18  25
ATOM     25  C   UNL     1       4.711   6.130  16.421  0.00  0.00    +0.000 C 
BRANCH  25  26
ATOM     26  C   UNL     1       6.237   6.240  16.391  0.00  0.00    +0.000 C 
BRANCH  26  27
ATOM     27  O   UNL     1       6.771   6.530  17.688  0.00  0.00    +0.000 OA
ATOM     28  H   UNL     1       7.133   7.435  17.682  0.00  0.00    +0.000 HD
ENDBRANCH  26  27
BRANCH  26  29
ATOM     29  C   UNL     1       6.988   5.064  15.777  0.00  0.00    +0.000 C 
ATOM     30 CL   UNL     1       5.951   4.061  14.741  0.00  0.00    +0.000 Cl
ENDBRANCH  26  29
ENDBRANCH  25  26
ENDBRANCH  18  25
TORSDOF 5
ENDMDL
MODEL 3
REMARK VINA RESULT:      -7.5      8.753     10.818
REMARK  Name = 
REMARK  7 active torsions:
REMARK  status: ('A' for Active; 'I' for Inactive)
REMARK    1  A    between atoms: C_1  and  C_2
REMARK    2  A    between atoms: C_2  and  C_3
REMARK    3  A    between atoms: N_9  and  C_10
REMARK    4  A    between atoms: N_24  and  C_25
REMARK    5  A    between atoms: C_25  and  C_26
REMARK    6  A    between atoms: C_26  and  O_27
REMARK    7  A    between atoms: C_26  and  C_28
REMARK                            x       y       z     vdW  Elec       q    Type
REMARK                         _______ _______ _______ _____ _____    ______ ____
ROOT
ATOM      1  C   UNL     1       9.333  10.893  20.015  0.00  0.00    +0.000 C 
ATOM      2  C   UNL     1       9.939  12.247  20.410  0.00  0.00    +0.000 C 
ATOM      3  C   UNL     1      11.472  12.111  20.567  0.00  0.00    +0.000 C 
ATOM      4  C   UNL     1       9.412  12.667  21.814  0.00  0.00    +0.000 C 
ATOM      5  C   UNL     1       8.180  13.500  21.732  0.00  0.00    +0.000 A 
ATOM      6  C   UNL     1       7.844  14.350  20.704  0.00  0.00    +0.000 A 
ATOM      7  C   UNL     1       6.589  14.858  21.045  0.00  0.00    +0.000 A 
ATOM      8  N   UNL     1       6.120  14.310  22.179  0.00  0.00    +0.000 NA
ATOM      9  N   UNL     1       7.139  13.534  22.641  0.00  0.00    +0.000 N 
ATOM     10  C   UNL     1       8.756  14.400  19.546  0.00  0.00    +0.000 A 
ATOM     11  C   UNL     1       9.600  13.301  19.366  0.00  0.00    +0.000 A 
ATOM     12  C   UNL     1       9.883  13.302  17.975  0.00  0.00    +0.000 A 
ATOM     13  C   UNL     1      10.619  12.423  17.181  0.00  0.00    +0.000 A 
ATOM     14  C   UNL     1      11.956  12.761  17.002  0.00  0.00    +0.000 A 
ATOM     15  C   UNL     1      12.318  14.099  17.094  0.00  0.00    +0.000 A 
ATOM     16  C   UNL     1      11.350  15.114  17.339  0.00  0.00    +0.000 A 
ATOM     17  C   UNL     1      10.111  14.671  17.833  0.00  0.00    +0.000 A 
ATOM     18  N   UNL     1       9.011  15.223  18.484  0.00  0.00    +0.000 N 
ENDROOT
BRANCH   9  19
ATOM     19  C   UNL     1       7.058  12.809  23.865  0.00  0.00    +0.000 A 
ATOM     20  C   UNL     1       7.818  13.212  24.966  0.00  0.00    +0.000 A 
ATOM     21  C   UNL     1       7.616  12.592  26.205  0.00  0.00    +0.000 A 
ATOM     22  C   UNL     1       6.687  11.560  26.341  0.00  0.00    +0.000 A 
ATOM     23  C   UNL     1       5.968  11.122  25.234  0.00  0.00    +0.000 A 
ATOM     24  C   UNL     1       6.164  11.735  23.998  0.00  0.00    +0.000 A 
ENDBRANCH   9  19
BRANCH  18  25
ATOM     25  C   UNL     1       8.205  16.340  17.990  0.00  0.00    +0.000 C 
BRANCH  25  26
ATOM     26  C   UNL     1       8.345  17.710  18.658  0.00  0.00    +0.000 C 
BRANCH  26  27
ATOM     27  O   UNL     1       7.176  18.052  19.411  0.00  0.00    +0.000 OA
ATOM     28  H   UNL     1       6.406  17.608  19.011  0.00  0.00    +0.000 HD
ENDBRANCH  26  27
BRANCH  26  29
ATOM     29  C   UNL     1       9.588  17.920  19.516  0.00  0.00    +0.000 C 
ATOM     30 CL   UNL     1      10.972  18.515  18.575  0.00  0.00    +0.000 Cl
ENDBRANCH  26  29
ENDBRANCH  25  26
ENDBRANCH  18  25
TORSDOF 5
ENDMDL
MODEL 4
REMARK VINA RESULT:      -7.3      3.031      7.228
REMARK  Name = 
REMARK  7 active torsions:
REMARK  status: ('A' for Active; 'I' for Inactive)
REMARK    1  A    between atoms: C_1  and  C_2
REMARK    2  A    between atoms: C_2  and  C_3
REMARK    3  A    between atoms: N_9  and  C_10
REMARK    4  A    between atoms: N_24  and  C_25
REMARK    5  A    between atoms: C_25  and  C_26
REMARK    6  A    between atoms: C_26  and  O_27
REMARK    7  A    between atoms: C_26  and  C_28
REMARK                            x       y       z     vdW  Elec       q    Type
REMARK                         _______ _______ _______ _____ _____    ______ ____
ROOT
ATOM      1  C   UNL     1       5.157   2.478  18.465  0.00  0.00    +0.000 C 
ATOM      2  C   UNL     1       3.872   3.084  17.884  0.00  0.00    +0.000 C 
ATOM      3  C   UNL     1       2.779   1.993  17.775  0.00  0.00    +0.000 C 
ATOM      4  C   UNL     1       4.131   3.562  16.425  0.00  0.00    +0.000 C 
ATOM      5  C   UNL     1       4.561   4.986  16.361  0.00  0.00    +0.000 A 
ATOM      6  C   UNL     1       4.208   5.979  17.246  0.00  0.00    +0.000 A 
ATOM      7  C   UNL     1       4.892   7.115  16.812  0.00  0.00    +0.000 A 
ATOM      8  N   UNL     1       5.690   6.848  15.764  0.00  0.00    +0.000 NA
ATOM      9  N   UNL     1       5.421   5.553  15.440  0.00  0.00    +0.000 N 
ATOM     10  C   UNL     1       3.375   5.587  18.400  0.00  0.00    +0.000 A 
ATOM     11  C   UNL     1       3.393   4.236  18.755  0.00  0.00    +0.000 A 
ATOM     12  C   UNL     1       3.061   4.234  20.135  0.00  0.00    +0.000 A 
ATOM     13  C   UNL     1       2.975   3.195  21.063  0.00  0.00    +0.000 A 
ATOM     14  C   UNL     1       1.712   2.635  21.212  0.00  0.00    +0.000 A 
ATOM     15  C   UNL     1       0.602   3.421  20.929  0.00  0.00    +0.000 A 
ATOM     16  C   UNL     1       0.738   4.777  20.520  0.00  0.00    +0.000 A 
ATOM     17  C   UNL     1       2.017   5.157  20.077  0.00  0.00    +0.000 A 
ATOM     18  N   UNL     1       2.578   6.191  19.332  0.00  0.00    +0.000 N 
ENDROOT
BRANCH   9  19
ATOM     19  C   UNL     1       6.035   4.895  14.336  0.00  0.00    +0.000 A 
ATOM     20  C   UNL     1       5.327   3.928  13.618  0.00  0.00    +0.000 A 
ATOM     21  C   UNL     1       5.879   3.401  12.444  0.00  0.00    +0.000 A 
ATOM     22  C   UNL     1       7.137   3.811  12.004  0.00  0.00    +0.000 A 
ATOM     23  C   UNL     1       7.867   4.734  12.746  0.00  0.00    +0.000 A 
ATOM     24  C   UNL     1       7.322   5.263  13.915  0.00  0.00    +0.000 A 
ENDBRANCH   9  19
BRANCH  18  25
ATOM     25  C   UNL     1       2.465   7.617  19.641  0.00  0.00    +0.000 C 
BRANCH  25  26
ATOM     26  C   UNL     1       1.351   8.088  20.577  0.00  0.00    +0.000 C 
BRANCH  26  27
ATOM     27  O   UNL     1       1.811   8.208  21.928  0.00  0.00    +0.000 OA
ATOM     28  H   UNL     1       2.696   8.617  21.921  0.00  0.00    +0.000 HD
ENDBRANCH  26  27
BRANCH  26  29
ATOM     29  C   UNL     1       0.618   9.362  20.169  0.00  0.00    +0.000 C 
ATOM     30 CL   UNL     1       0.837   9.752  18.450  0.00  0.00    +0.000 Cl
ENDBRANCH  26  29
ENDBRANCH  25  26
ENDBRANCH  18  25
TORSDOF 5
ENDMDL
MODEL 5
REMARK VINA RESULT:      -7.1      2.849      7.074
REMARK  Name = 
REMARK  7 active torsions:
REMARK  status: ('A' for Active; 'I' for Inactive)
REMARK    1  A    between atoms: C_1  and  C_2
REMARK    2  A    between atoms: C_2  and  C_3
REMARK    3  A    between atoms: N_9  and  C_10
REMARK    4  A    between atoms: N_24  and  C_25
REMARK    5  A    between atoms: C_25  and  C_26
REMARK    6  A    between atoms: C_26  and  O_27
REMARK    7  A    between atoms: C_26  and  C_28
REMARK                            x       y       z     vdW  Elec       q    Type
REMARK                         _______ _______ _______ _____ _____    ______ ____
ROOT
ATOM      1  C   UNL     1       5.121   2.410  18.440  0.00  0.00    +0.000 C 
ATOM      2  C   UNL     1       3.854   3.054  17.858  0.00  0.00    +0.000 C 
ATOM      3  C   UNL     1       2.751   1.982  17.689  0.00  0.00    +0.000 C 
ATOM      4  C   UNL     1       4.147   3.582  16.423  0.00  0.00    +0.000 C 
ATOM      5  C   UNL     1       4.595   5.001  16.420  0.00  0.00    +0.000 A 
ATOM      6  C   UNL     1       4.237   5.965  17.335  0.00  0.00    +0.000 A 
ATOM      7  C   UNL     1       4.943   7.108  16.956  0.00  0.00    +0.000 A 
ATOM      8  N   UNL     1       5.757   6.870  15.914  0.00  0.00    +0.000 NA
ATOM      9  N   UNL     1       5.479   5.591  15.536  0.00  0.00    +0.000 N 
ATOM     10  C   UNL     1       3.378   5.542  18.457  0.00  0.00    +0.000 A 
ATOM     11  C   UNL     1       3.373   4.179  18.762  0.00  0.00    +0.000 A 
ATOM     12  C   UNL     1       3.014   4.130  20.135  0.00  0.00    +0.000 A 
ATOM     13  C   UNL     1       2.899   3.059  21.022  0.00  0.00    +0.000 A 
ATOM     14  C   UNL     1       1.627   2.510  21.127  0.00  0.00    +0.000 A 
ATOM     15  C   UNL     1       0.532   3.320  20.853  0.00  0.00    +0.000 A 
ATOM     16  C   UNL     1       0.691   4.689  20.497  0.00  0.00    +0.000 A 
ATOM     17  C   UNL     1       1.983   5.068  20.092  0.00  0.00    +0.000 A 
ATOM     18  N   UNL     1       2.571   6.122  19.396  0.00  0.00    +0.000 N 
ENDROOT
BRANCH   9  19
ATOM     19  C   UNL     1       6.105   4.967  14.420  0.00  0.00    +0.000 A 
ATOM     20  C   UNL     1       5.435   3.966  13.713  0.00  0.00    +0.000 A 
ATOM     21  C   UNL     1       5.991   3.469  12.528  0.00  0.00    +0.000 A 
ATOM     22  C   UNL     1       7.220   3.942  12.067  0.00  0.00    +0.000 A 
ATOM     23  C   UNL     1       7.914   4.901  12.797  0.00  0.00    +0.000 A 
ATOM     24  C   UNL     1       7.365   5.400  13.977  0.00  0.00    +0.000 A 
ENDBRANCH   9  19
BRANCH  18  25
ATOM     25  C   UNL     1       2.470   7.537  19.756  0.00  0.00    +0.000 C 
BRANCH  25  26
ATOM     26  C   UNL     1       1.968   8.535  18.711  0.00  0.00    +0.000 C 
BRANCH  26  27
ATOM     27  O   UNL     1       1.365   7.871  17.594  0.00  0.00    +0.000 OA
ATOM     28  H   UNL     1       2.006   7.237  17.224  0.00  0.00    +0.000 HD
ENDBRANCH  26  27
BRANCH  26  29
ATOM     29  C   UNL     1       1.040   9.635  19.217  0.00  0.00    +0.000 C 
ATOM     30 CL   UNL     1       0.301   9.235  20.782  0.00  0.00    +0.000 Cl
ENDBRANCH  26  29
ENDBRANCH  25  26
ENDBRANCH  18  25
TORSDOF 5
ENDMDL
MODEL 6
REMARK VINA RESULT:      -7.0      8.583     10.301
REMARK  Name = 
REMARK  7 active torsions:
REMARK  status: ('A' for Active; 'I' for Inactive)
REMARK    1  A    between atoms: C_1  and  C_2
REMARK    2  A    between atoms: C_2  and  C_3
REMARK    3  A    between atoms: N_9  and  C_10
REMARK    4  A    between atoms: N_24  and  C_25
REMARK    5  A    between atoms: C_25  and  C_26
REMARK    6  A    between atoms: C_26  and  O_27
REMARK    7  A    between atoms: C_26  and  C_28
REMARK                            x       y       z     vdW  Elec       q    Type
REMARK                         _______ _______ _______ _____ _____    ______ ____
ROOT
ATOM      1  C   UNL     1       9.149  10.826  20.522  0.00  0.00    +0.000 C 
ATOM      2  C   UNL     1       9.692  12.238  20.781  0.00  0.00    +0.000 C 
ATOM      3  C   UNL     1      11.239  12.207  20.818  0.00  0.00    +0.000 C 
ATOM      4  C   UNL     1       9.251  12.718  22.195  0.00  0.00    +0.000 C 
ATOM      5  C   UNL     1       7.963  13.465  22.165  0.00  0.00    +0.000 A 
ATOM      6  C   UNL     1       7.491  14.223  21.118  0.00  0.00    +0.000 A 
ATOM      7  C   UNL     1       6.236  14.673  21.530  0.00  0.00    +0.000 A 
ATOM      8  N   UNL     1       5.896  14.175  22.730  0.00  0.00    +0.000 NA
ATOM      9  N   UNL     1       6.998  13.496  23.153  0.00  0.00    +0.000 N 
ATOM     10  C   UNL     1       8.304  14.251  19.887  0.00  0.00    +0.000 A 
ATOM     11  C   UNL     1       9.202  13.196  19.706  0.00  0.00    +0.000 A 
ATOM     12  C   UNL     1       9.374  13.122  18.298  0.00  0.00    +0.000 A 
ATOM     13  C   UNL     1      10.102  12.238  17.502  0.00  0.00    +0.000 A 
ATOM     14  C   UNL     1      11.395  12.645  17.192  0.00  0.00    +0.000 A 
ATOM     15  C   UNL     1      11.673  14.006  17.171  0.00  0.00    +0.000 A 
ATOM     16  C   UNL     1      10.662  14.974  17.432  0.00  0.00    +0.000 A 
ATOM     17  C   UNL     1       9.498  14.489  18.053  0.00  0.00    +0.000 A 
ATOM     18  N   UNL     1       8.418  15.015  18.759  0.00  0.00    +0.000 N 
ENDROOT
BRANCH   9  19
ATOM     19  C   UNL     1       7.062  12.851  24.422  0.00  0.00    +0.000 A 
ATOM     20  C   UNL     1       7.772  13.442  25.470  0.00  0.00    +0.000 A 
ATOM     21  C   UNL     1       7.700  12.883  26.752  0.00  0.00    +0.000 A 
ATOM     22  C   UNL     1       6.953  11.728  26.982  0.00  0.00    +0.000 A 
ATOM     23  C   UNL     1       6.290  11.107  25.929  0.00  0.00    +0.000 A 
ATOM     24  C   UNL     1       6.356  11.660  24.651  0.00  0.00    +0.000 A 
ENDBRANCH   9  19
BRANCH  18  25
ATOM     25  C   UNL     1       7.503  16.045  18.266  0.00  0.00    +0.000 C 
BRANCH  25  26
ATOM     26  C   UNL     1       6.128  15.628  17.741  0.00  0.00    +0.000 C 
BRANCH  26  27
ATOM     27  O   UNL     1       6.003  14.203  17.661  0.00  0.00    +0.000 OA
ATOM     28  H   UNL     1       5.297  13.987  17.025  0.00  0.00    +0.000 HD
ENDBRANCH  26  27
BRANCH  26  29
ATOM     29  C   UNL     1       4.921  16.209  18.471  0.00  0.00    +0.000 C 
ATOM     30 CL   UNL     1       3.384  15.533  17.889  0.00  0.00    +0.000 Cl
ENDBRANCH  26  29
ENDBRANCH  25  26
ENDBRANCH  18  25
TORSDOF 5
ENDMDL
MODEL 7
REMARK VINA RESULT:      -6.9      3.433      7.985
REMARK  Name = 
REMARK  7 active torsions:
REMARK  status: ('A' for Active; 'I' for Inactive)
REMARK    1  A    between atoms: C_1  and  C_2
REMARK    2  A    between atoms: C_2  and  C_3
REMARK    3  A    between atoms: N_9  and  C_10
REMARK    4  A    between atoms: N_24  and  C_25
REMARK    5  A    between atoms: C_25  and  C_26
REMARK    6  A    between atoms: C_26  and  O_27
REMARK    7  A    between atoms: C_26  and  C_28
REMARK                            x       y       z     vdW  Elec       q    Type
REMARK                         _______ _______ _______ _____ _____    ______ ____
ROOT
ATOM      1  C   UNL     1       1.532   9.625  22.799  0.00  0.00    +0.000 C 
ATOM      2  C   UNL     1       0.335   9.336  21.883  0.00  0.00    +0.000 C 
ATOM      3  C   UNL     1      -0.872   8.862  22.729  0.00  0.00    +0.000 C 
ATOM      4  C   UNL     1       0.673   8.146  20.938  0.00  0.00    +0.000 C 
ATOM      5  C   UNL     1       1.262   8.596  19.646  0.00  0.00    +0.000 A 
ATOM      6  C   UNL     1       1.006   9.790  19.012  0.00  0.00    +0.000 A 
ATOM      7  C   UNL     1       1.822   9.785  17.880  0.00  0.00    +0.000 A 
ATOM      8  N   UNL     1       2.604   8.694  17.833  0.00  0.00    +0.000 NA
ATOM      9  N   UNL     1       2.197   7.925  18.881  0.00  0.00    +0.000 N 
ATOM     10  C   UNL     1       0.113  10.741  19.703  0.00  0.00    +0.000 A 
ATOM     11  C   UNL     1      -0.028  10.578  21.083  0.00  0.00    +0.000 A 
ATOM     12  C   UNL     1      -0.385  11.870  21.552  0.00  0.00    +0.000 A 
ATOM     13  C   UNL     1      -0.604  12.356  22.841  0.00  0.00    +0.000 A 
ATOM     14  C   UNL     1      -1.925  12.320  23.272  0.00  0.00    +0.000 A 
ATOM     15  C   UNL     1      -2.934  12.370  22.319  0.00  0.00    +0.000 A 
ATOM     16  C   UNL     1      -2.639  12.481  20.931  0.00  0.00    +0.000 A 
ATOM     17  C   UNL     1      -1.317  12.177  20.561  0.00  0.00    +0.000 A 
ATOM     18  N   UNL     1      -0.629  11.848  19.396  0.00  0.00    +0.000 N 
ENDROOT
BRANCH   9  19
ATOM     19  C   UNL     1       2.754   6.643  19.155  0.00  0.00    +0.000 A 
ATOM     20  C   UNL     1       2.171   5.821  20.123  0.00  0.00    +0.000 A 
ATOM     21  C   UNL     1       2.628   4.506  20.274  0.00  0.00    +0.000 A 
ATOM     22  C   UNL     1       3.676   4.023  19.491  0.00  0.00    +0.000 A 
ATOM     23  C   UNL     1       4.293   4.856  18.564  0.00  0.00    +0.000 A 
ATOM     24  C   UNL     1       3.842   6.166  18.408  0.00  0.00    +0.000 A 
ENDBRANCH   9  19
BRANCH  18  25
ATOM     25  C   UNL     1      -0.586  12.658  18.178  0.00  0.00    +0.000 C 
BRANCH  25  26
ATOM     26  C   UNL     1       0.025  14.060  18.240  0.00  0.00    +0.000 C 
BRANCH  26  27
ATOM     27  O   UNL     1      -0.887  15.009  18.805  0.00  0.00    +0.000 OA
ATOM     28  H   UNL     1      -0.431  15.865  18.895  0.00  0.00    +0.000 HD
ENDBRANCH  26  27
BRANCH  26  29
ATOM     29  C   UNL     1       1.380  14.177  18.929  0.00  0.00    +0.000 C 
ATOM     30 CL   UNL     1       2.635  13.205  18.132  0.00  0.00    +0.000 Cl
ENDBRANCH  26  29
ENDBRANCH  25  26
ENDBRANCH  18  25
TORSDOF 5
ENDMDL
MODEL 8
REMARK VINA RESULT:      -6.9      5.892     10.526
REMARK  Name = 
REMARK  7 active torsions:
REMARK  status: ('A' for Active; 'I' for Inactive)
REMARK    1  A    between atoms: C_1  and  C_2
REMARK    2  A    between atoms: C_2  and  C_3
REMARK    3  A    between atoms: N_9  and  C_10
REMARK    4  A    between atoms: N_24  and  C_25
REMARK    5  A    between atoms: C_25  and  C_26
REMARK    6  A    between atoms: C_26  and  O_27
REMARK    7  A    between atoms: C_26  and  C_28
REMARK                            x       y       z     vdW  Elec       q    Type
REMARK                         _______ _______ _______ _____ _____    ______ ____
ROOT
ATOM      1  C   UNL     1      -4.012   9.548  18.145  0.00  0.00    +0.000 C 
ATOM      2  C   UNL     1      -3.517  10.993  17.992  0.00  0.00    +0.000 C 
ATOM      3  C   UNL     1      -3.785  11.490  16.551  0.00  0.00    +0.000 C 
ATOM      4  C   UNL     1      -1.970  11.038  18.167  0.00  0.00    +0.000 C 
ATOM      5  C   UNL     1      -1.565  11.290  19.577  0.00  0.00    +0.000 A 
ATOM      6  C   UNL     1      -2.279  12.009  20.509  0.00  0.00    +0.000 A 
ATOM      7  C   UNL     1      -1.535  11.921  21.686  0.00  0.00    +0.000 A 
ATOM      8  N   UNL     1      -0.455  11.136  21.538  0.00  0.00    +0.000 NA
ATOM      9  N   UNL     1      -0.434  10.814  20.214  0.00  0.00    +0.000 N 
ATOM     10  C   UNL     1      -3.596  12.528  20.093  0.00  0.00    +0.000 A 
ATOM     11  C   UNL     1      -4.203  11.896  19.006  0.00  0.00    +0.000 A 
ATOM     12  C   UNL     1      -5.591  12.131  19.196  0.00  0.00    +0.000 A 
ATOM     13  C   UNL     1      -6.707  11.705  18.476  0.00  0.00    +0.000 A 
ATOM     14  C   UNL     1      -7.147  12.578  17.489  0.00  0.00    +0.000 A 
ATOM     15  C   UNL     1      -6.879  13.934  17.638  0.00  0.00    +0.000 A 
ATOM     16  C   UNL     1      -6.196  14.434  18.782  0.00  0.00    +0.000 A 
ATOM     17  C   UNL     1      -5.505  13.478  19.547  0.00  0.00    +0.000 A 
ATOM     18  N   UNL     1      -4.497  13.469  20.509  0.00  0.00    +0.000 N 
ENDROOT
BRANCH   9  19
ATOM     19  C   UNL     1       0.596  10.021  19.633  0.00  0.00    +0.000 A 
ATOM     20  C   UNL     1       1.025   8.856  20.274  0.00  0.00    +0.000 A 
ATOM     21  C   UNL     1       1.923   8.003  19.622  0.00  0.00    +0.000 A 
ATOM     22  C   UNL     1       2.415   8.322  18.356  0.00  0.00    +0.000 A 
ATOM     23  C   UNL     1       2.031   9.508  17.739  0.00  0.00    +0.000 A 
ATOM     24  C   UNL     1       1.135  10.361  18.383  0.00  0.00    +0.000 A 
ENDBRANCH   9  19
BRANCH  18  25
ATOM     25  C   UNL     1      -4.532  14.190  21.781  0.00  0.00    +0.000 C 
BRANCH  25  26
ATOM     26  C   UNL     1      -5.064  13.476  23.026  0.00  0.00    +0.000 C 
BRANCH  26  27
ATOM     27  O   UNL     1      -5.871  12.344  22.681  0.00  0.00    +0.000 OA
ATOM     28  H   UNL     1      -6.708  12.663  22.296  0.00  0.00    +0.000 HD
ENDBRANCH  26  27
BRANCH  26  29
ATOM     29  C   UNL     1      -4.026  13.069  24.067  0.00  0.00    +0.000 C 
ATOM     30 CL   UNL     1      -2.771  14.305  24.295  0.00  0.00    +0.000 Cl
ENDBRANCH  26  29
ENDBRANCH  25  26
ENDBRANCH  18  25
TORSDOF 5
ENDMDL
MODEL 9
REMARK VINA RESULT:      -6.9      6.280     10.832
REMARK  Name = 
REMARK  7 active torsions:
REMARK  status: ('A' for Active; 'I' for Inactive)
REMARK    1  A    between atoms: C_1  and  C_2
REMARK    2  A    between atoms: C_2  and  C_3
REMARK    3  A    between atoms: N_9  and  C_10
REMARK    4  A    between atoms: N_24  and  C_25
REMARK    5  A    between atoms: C_25  and  C_26
REMARK    6  A    between atoms: C_26  and  O_27
REMARK    7  A    between atoms: C_26  and  C_28
REMARK                            x       y       z     vdW  Elec       q    Type
REMARK                         _______ _______ _______ _____ _____    ______ ____
ROOT
ATOM      1  C   UNL     1      -4.052   9.575  18.181  0.00  0.00    +0.000 C 
ATOM      2  C   UNL     1      -3.562  11.020  18.019  0.00  0.00    +0.000 C 
ATOM      3  C   UNL     1      -3.834  11.509  16.576  0.00  0.00    +0.000 C 
ATOM      4  C   UNL     1      -2.015  11.071  18.191  0.00  0.00    +0.000 C 
ATOM      5  C   UNL     1      -1.609  11.332  19.600  0.00  0.00    +0.000 A 
ATOM      6  C   UNL     1      -2.323  12.054  20.528  0.00  0.00    +0.000 A 
ATOM      7  C   UNL     1      -1.576  11.975  21.705  0.00  0.00    +0.000 A 
ATOM      8  N   UNL     1      -0.495  11.192  21.559  0.00  0.00    +0.000 NA
ATOM      9  N   UNL     1      -0.475  10.863  20.237  0.00  0.00    +0.000 N 
ATOM     10  C   UNL     1      -3.642  12.567  20.112  0.00  0.00    +0.000 A 
ATOM     11  C   UNL     1      -4.250  11.927  19.029  0.00  0.00    +0.000 A 
ATOM     12  C   UNL     1      -5.637  12.159  19.220  0.00  0.00    +0.000 A 
ATOM     13  C   UNL     1      -6.754  11.725  18.505  0.00  0.00    +0.000 A 
ATOM     14  C   UNL     1      -7.197  12.592  17.513  0.00  0.00    +0.000 A 
ATOM     15  C   UNL     1      -6.934  13.949  17.654  0.00  0.00    +0.000 A 
ATOM     16  C   UNL     1      -6.250  14.457  18.794  0.00  0.00    +0.000 A 
ATOM     17  C   UNL     1      -5.555  13.508  19.564  0.00  0.00    +0.000 A 
ATOM     18  N   UNL     1      -4.545  13.507  20.523  0.00  0.00    +0.000 N 
ENDROOT
BRANCH   9  19
ATOM     19  C   UNL     1       0.556  10.070  19.659  0.00  0.00    +0.000 A 
ATOM     20  C   UNL     1       0.983   8.904  20.300  0.00  0.00    +0.000 A 
ATOM     21  C   UNL     1       1.883   8.051  19.650  0.00  0.00    +0.000 A 
ATOM     22  C   UNL     1       2.378   8.370  18.386  0.00  0.00    +0.000 A 
ATOM     23  C   UNL     1       1.997   9.557  17.769  0.00  0.00    +0.000 A 
ATOM     24  C   UNL     1       1.100  10.410  18.410  0.00  0.00    +0.000 A 
ENDBRANCH   9  19
BRANCH  18  25
ATOM     25  C   UNL     1      -4.581  14.236  21.792  0.00  0.00    +0.000 C 
BRANCH  25  26
ATOM     26  C   UNL     1      -5.295  13.607  22.990  0.00  0.00    +0.000 C 
BRANCH  26  27
ATOM     27  O   UNL     1      -4.820  14.145  24.230  0.00  0.00    +0.000 OA
ATOM     28  H   UNL     1      -4.260  14.920  24.040  0.00  0.00    +0.000 HD
ENDBRANCH  26  27
BRANCH  26  29
ATOM     29  C   UNL     1      -6.820  13.644  22.964  0.00  0.00    +0.000 C 
ATOM     30 CL   UNL     1      -7.526  12.141  22.333  0.00  0.00    +0.000 Cl
ENDBRANCH  26  29
ENDBRANCH  25  26
ENDBRANCH  18  25
TORSDOF 5
ENDMDL
