MODEL 1
REMARK VINA RESULT:      -8.6      0.000      0.000
REMARK  Name = 
REMARK  8 active torsions:
REMARK  status: ('A' for Active; 'I' for Inactive)
REMARK    1  A    between atoms: C_2  and  O_3
REMARK    2  A    between atoms: C_2  and  C_4
REMARK    3  A    between atoms: C_4  and  C_5
REMARK    4  A    between atoms: C_8  and  C_9
REMARK    5  A    between atoms: C_12  and  C_13
REMARK    6  A    between atoms: C_19  and  C_20
REMARK    7  A    between atoms: C_20  and  C_21
REMARK    8  A    between atoms: C_21  and  C_22
REMARK                            x       y       z     vdW  Elec       q    Type
REMARK                         _______ _______ _______ _____ _____    ______ ____
ROOT
ATOM      1  C   UNL     1      -0.665  11.295  22.552  0.00  0.00    +0.000 A 
ATOM      2  C   UNL     1      -0.435  10.034  23.117  0.00  0.00    +0.000 A 
ATOM      3  C   UNL     1       0.268   9.060  22.407  0.00  0.00    +0.000 A 
ATOM      4  C   UNL     1       0.749   9.321  21.120  0.00  0.00    +0.000 A 
ATOM      5  C   UNL     1       0.524  10.566  20.540  0.00  0.00    +0.000 A 
ATOM      6  C   UNL     1      -0.178  11.546  21.256  0.00  0.00    +0.000 A 
ENDROOT
BRANCH   4   7
ATOM      7  C   UNL     1       1.413   8.196  20.405  0.00  0.00    +0.000 C 
ATOM      8  O   UNL     1       1.768   8.425  19.258  0.00  0.00    +0.000 OA
ATOM      9  N   UNL     1       1.496   6.993  21.075  0.00  0.00    +0.000 N 
ATOM     10  C   UNL     1       2.037   5.839  20.539  0.00  0.00    +0.000 A 
ATOM     11  N   UNL     1       1.796   4.639  21.009  0.00  0.00    +0.000 NA
ATOM     12  N   UNL     1       2.441   3.656  20.278  0.00  0.00    +0.000 NA
ATOM     13  C   UNL     1       3.204   4.159  19.329  0.00  0.00    +0.000 A 
ATOM     14  S   UNL     1       3.144   5.869  19.236  0.00  0.00    +0.000 S 
ATOM     15  H   UNL     1       0.952   6.838  21.912  0.00  0.00    +0.000 HD
BRANCH  13  16
ATOM     16  C   UNL     1       4.055   3.368  18.388  0.00  0.00    +0.000 C 
BRANCH  16  17
ATOM     17  C   UNL     1       4.076   3.944  16.963  0.00  0.00    +0.000 C 
BRANCH  17  18
ATOM     18  C   UNL     1       5.492   4.135  16.371  0.00  0.00    +0.000 C 
ATOM     19  C   UNL     1       5.534   5.266  15.331  0.00  0.00    +0.000 C 
ATOM     20  C   UNL     1       5.329   6.637  15.970  0.00  0.00    +0.000 C 
ATOM     21  C   UNL     1       6.370   6.897  17.054  0.00  0.00    +0.000 C 
ATOM     22  C   UNL     1       6.410   5.786  18.101  0.00  0.00    +0.000 C 
ATOM     23  C   UNL     1       6.541   4.402  17.467  0.00  0.00    +0.000 C 
ENDBRANCH  17  18
ENDBRANCH  16  17
ENDBRANCH  13  16
ENDBRANCH   4   7
BRANCH   1  27
ATOM     24  C   UNL     1      -3.388  14.576  23.597  0.00  0.00    +0.000 C 
ATOM     25  C   UNL     1      -1.874  14.833  23.648  0.00  0.00    +0.000 C 
ATOM     26  C   UNL     1      -1.103  13.767  22.872  0.00  0.00    +0.000 C 
ATOM     27  C   UNL     1      -1.417  12.345  23.365  0.00  0.00    +0.000 C 
ATOM     28  C   UNL     1      -2.936  12.090  23.401  0.00  0.00    +0.000 C 
ATOM     29  C   UNL     1      -3.688  13.182  24.171  0.00  0.00    +0.000 C 
BRANCH  24  30
ATOM     30  C   UNL     1      -4.176  15.660  24.349  0.00  0.00    +0.000 C 
BRANCH  30  32
ATOM     31  O   UNL     1      -5.943  16.689  23.035  0.00  0.00    +0.000 OA
ATOM     32  C   UNL     1      -5.586  15.827  23.822  0.00  0.00    +0.000 C 
BRANCH  32  33
ATOM     33  O   UNL     1      -6.432  14.886  24.294  0.00  0.00    +0.000 OA
ATOM     34  H   UNL     1      -7.248  15.251  24.685  0.00  0.00    +0.000 HD
ENDBRANCH  32  33
ENDBRANCH  30  32
ENDBRANCH  24  30
ENDBRANCH   1  27
TORSDOF 8
ENDMDL
MODEL 2
REMARK VINA RESULT:      -8.3      3.152      4.463
REMARK  Name = 
REMARK  8 active torsions:
REMARK  status: ('A' for Active; 'I' for Inactive)
REMARK    1  A    between atoms: C_2  and  O_3
REMARK    2  A    between atoms: C_2  and  C_4
REMARK    3  A    between atoms: C_4  and  C_5
REMARK    4  A    between atoms: C_8  and  C_9
REMARK    5  A    between atoms: C_12  and  C_13
REMARK    6  A    between atoms: C_19  and  C_20
REMARK    7  A    between atoms: C_20  and  C_21
REMARK    8  A    between atoms: C_21  and  C_22
REMARK                            x       y       z     vdW  Elec       q    Type
REMARK                         _______ _______ _______ _____ _____    ______ ____
ROOT
ATOM      1  C   UNL     1       0.732  10.055  20.283  0.00  0.00    +0.000 A 
ATOM      2  C   UNL     1       1.168  10.269  18.969  0.00  0.00    +0.000 A 
ATOM      3  C   UNL     1       1.883   9.281  18.292  0.00  0.00    +0.000 A 
ATOM      4  C   UNL     1       2.183   8.064  18.913  0.00  0.00    +0.000 A 
ATOM      5  C   UNL     1       1.764   7.836  20.220  0.00  0.00    +0.000 A 
ATOM      6  C   UNL     1       1.041   8.828  20.898  0.00  0.00    +0.000 A 
ENDROOT
BRANCH   4   7
ATOM      7  C   UNL     1       3.023   7.102  18.146  0.00  0.00    +0.000 C 
ATOM      8  O   UNL     1       2.582   5.966  18.048  0.00  0.00    +0.000 OA
ATOM      9  N   UNL     1       4.239   7.564  17.687  0.00  0.00    +0.000 N 
ATOM     10  C   UNL     1       5.156   6.789  17.001  0.00  0.00    +0.000 A 
ATOM     11  N   UNL     1       6.425   7.099  16.889  0.00  0.00    +0.000 NA
ATOM     12  N   UNL     1       7.131   6.146  16.174  0.00  0.00    +0.000 NA
ATOM     13  C   UNL     1       6.351   5.190  15.711  0.00  0.00    +0.000 A 
ATOM     14  S   UNL     1       4.708   5.368  16.163  0.00  0.00    +0.000 S 
ATOM     15  H   UNL     1       4.618   8.433  18.034  0.00  0.00    +0.000 HD
BRANCH  13  16
ATOM     16  C   UNL     1       6.797   4.033  14.877  0.00  0.00    +0.000 C 
BRANCH  16  17
ATOM     17  C   UNL     1       5.673   3.447  14.007  0.00  0.00    +0.000 C 
BRANCH  17  18
ATOM     18  C   UNL     1       5.659   3.961  12.548  0.00  0.00    +0.000 C 
ATOM     19  C   UNL     1       7.071   4.021  11.945  0.00  0.00    +0.000 C 
ATOM     20  C   UNL     1       7.660   2.629  11.728  0.00  0.00    +0.000 C 
ATOM     21  C   UNL     1       6.756   1.786  10.836  0.00  0.00    +0.000 C 
ATOM     22  C   UNL     1       5.322   1.717  11.356  0.00  0.00    +0.000 C 
ATOM     23  C   UNL     1       4.749   3.104  11.646  0.00  0.00    +0.000 C 
ENDBRANCH  17  18
ENDBRANCH  16  17
ENDBRANCH  13  16
ENDBRANCH   4   7
BRANCH   1  27
ATOM     24  C   UNL     1      -2.586  12.199  22.198  0.00  0.00    +0.000 C 
ATOM     25  C   UNL     1      -2.090  12.685  20.827  0.00  0.00    +0.000 C 
ATOM     26  C   UNL     1      -1.254  11.615  20.127  0.00  0.00    +0.000 C 
ATOM     27  C   UNL     1      -0.067  11.149  20.986  0.00  0.00    +0.000 C 
ATOM     28  C   UNL     1      -0.528  10.733  22.396  0.00  0.00    +0.000 C 
ATOM     29  C   UNL     1      -1.378  11.816  23.069  0.00  0.00    +0.000 C 
BRANCH  24  30
ATOM     30  C   UNL     1      -3.454  13.256  22.898  0.00  0.00    +0.000 C 
BRANCH  30  32
ATOM     31  O   UNL     1      -5.615  12.200  23.251  0.00  0.00    +0.000 OA
ATOM     32  C   UNL     1      -4.575  12.644  23.712  0.00  0.00    +0.000 C 
BRANCH  32  33
ATOM     33  O   UNL     1      -4.296  12.605  25.033  0.00  0.00    +0.000 OA
ATOM     34  H   UNL     1      -5.085  12.667  25.603  0.00  0.00    +0.000 HD
ENDBRANCH  32  33
ENDBRANCH  30  32
ENDBRANCH  24  30
ENDBRANCH   1  27
TORSDOF 8
ENDMDL
MODEL 3
REMARK VINA RESULT:      -8.3      1.174      1.583
REMARK  Name = 
REMARK  8 active torsions:
REMARK  status: ('A' for Active; 'I' for Inactive)
REMARK    1  A    between atoms: C_2  and  O_3
REMARK    2  A    between atoms: C_2  and  C_4
REMARK    3  A    between atoms: C_4  and  C_5
REMARK    4  A    between atoms: C_8  and  C_9
REMARK    5  A    between atoms: C_12  and  C_13
REMARK    6  A    between atoms: C_19  and  C_20
REMARK    7  A    between atoms: C_20  and  C_21
REMARK    8  A    between atoms: C_21  and  C_22
REMARK                            x       y       z     vdW  Elec       q    Type
REMARK                         _______ _______ _______ _____ _____    ______ ____
ROOT
ATOM      1  C   UNL     1      -0.992  11.235  21.924  0.00  0.00    +0.000 A 
ATOM      2  C   UNL     1      -0.767  11.143  20.544  0.00  0.00    +0.000 A 
ATOM      3  C   UNL     1       0.008  10.107  20.023  0.00  0.00    +0.000 A 
ATOM      4  C   UNL     1       0.579   9.147  20.866  0.00  0.00    +0.000 A 
ATOM      5  C   UNL     1       0.371   9.226  22.240  0.00  0.00    +0.000 A 
ATOM      6  C   UNL     1      -0.412  10.265  22.762  0.00  0.00    +0.000 A 
ENDROOT
BRANCH   4   7
ATOM      7  C   UNL     1       1.460   8.128  20.231  0.00  0.00    +0.000 C 
ATOM      8  O   UNL     1       1.909   8.418  19.132  0.00  0.00    +0.000 OA
ATOM      9  N   UNL     1       1.622   6.936  20.906  0.00  0.00    +0.000 N 
ATOM     10  C   UNL     1       2.366   5.870  20.435  0.00  0.00    +0.000 A 
ATOM     11  N   UNL     1       2.231   4.642  20.874  0.00  0.00    +0.000 NA
ATOM     12  N   UNL     1       3.077   3.761  20.222  0.00  0.00    +0.000 NA
ATOM     13  C   UNL     1       3.871   4.373  19.365  0.00  0.00    +0.000 A 
ATOM     14  S   UNL     1       3.600   6.062  19.267  0.00  0.00    +0.000 S 
ATOM     15  H   UNL     1       1.012   6.699  21.675  0.00  0.00    +0.000 HD
BRANCH  13  16
ATOM     16  C   UNL     1       4.918   3.712  18.528  0.00  0.00    +0.000 C 
BRANCH  16  17
ATOM     17  C   UNL     1       5.206   4.463  17.218  0.00  0.00    +0.000 C 
BRANCH  17  18
ATOM     18  C   UNL     1       6.707   4.578  16.863  0.00  0.00    +0.000 C 
ATOM     19  C   UNL     1       7.015   5.857  16.068  0.00  0.00    +0.000 C 
ATOM     20  C   UNL     1       6.849   7.113  16.920  0.00  0.00    +0.000 C 
ATOM     21  C   UNL     1       7.734   7.053  18.160  0.00  0.00    +0.000 C 
ATOM     22  C   UNL     1       7.509   5.783  18.977  0.00  0.00    +0.000 C 
ATOM     23  C   UNL     1       7.599   4.523  18.117  0.00  0.00    +0.000 C 
ENDBRANCH  17  18
ENDBRANCH  16  17
ENDBRANCH  13  16
ENDBRANCH   4   7
BRANCH   1  27
ATOM     24  C   UNL     1      -4.522  13.642  22.932  0.00  0.00    +0.000 C 
ATOM     25  C   UNL     1      -3.565  14.160  21.847  0.00  0.00    +0.000 C 
ATOM     26  C   UNL     1      -2.657  13.045  21.330  0.00  0.00    +0.000 C 
ATOM     27  C   UNL     1      -1.864  12.368  22.459  0.00  0.00    +0.000 C 
ATOM     28  C   UNL     1      -2.794  11.913  23.599  0.00  0.00    +0.000 C 
ATOM     29  C   UNL     1      -3.705  13.044  24.089  0.00  0.00    +0.000 C 
BRANCH  24  30
ATOM     30  C   UNL     1      -5.461  14.749  23.438  0.00  0.00    +0.000 C 
BRANCH  30  32
ATOM     31  O   UNL     1      -7.847  14.918  23.875  0.00  0.00    +0.000 OA
ATOM     32  C   UNL     1      -6.924  14.391  23.274  0.00  0.00    +0.000 C 
BRANCH  32  33
ATOM     33  O   UNL     1      -7.122  13.426  22.350  0.00  0.00    +0.000 OA
ATOM     34  H   UNL     1      -7.295  12.545  22.732  0.00  0.00    +0.000 HD
ENDBRANCH  32  33
ENDBRANCH  30  32
ENDBRANCH  24  30
ENDBRANCH   1  27
TORSDOF 8
ENDMDL
MODEL 4
REMARK VINA RESULT:      -8.3      4.254     12.254
REMARK  Name = 
REMARK  8 active torsions:
REMARK  status: ('A' for Active; 'I' for Inactive)
REMARK    1  A    between atoms: C_2  and  O_3
REMARK    2  A    between atoms: C_2  and  C_4
REMARK    3  A    between atoms: C_4  and  C_5
REMARK    4  A    between atoms: C_8  and  C_9
REMARK    5  A    between atoms: C_12  and  C_13
REMARK    6  A    between atoms: C_19  and  C_20
REMARK    7  A    between atoms: C_20  and  C_21
REMARK    8  A    between atoms: C_21  and  C_22
REMARK                            x       y       z     vdW  Elec       q    Type
REMARK                         _______ _______ _______ _____ _____    ______ ____
ROOT
ATOM      1  C   UNL     1       2.428   7.780  18.791  0.00  0.00    +0.000 A 
ATOM      2  C   UNL     1       1.951   8.722  17.870  0.00  0.00    +0.000 A 
ATOM      3  C   UNL     1       1.007   9.673  18.258  0.00  0.00    +0.000 A 
ATOM      4  C   UNL     1       0.516   9.700  19.568  0.00  0.00    +0.000 A 
ATOM      5  C   UNL     1       0.973   8.767  20.494  0.00  0.00    +0.000 A 
ATOM      6  C   UNL     1       1.926   7.815  20.105  0.00  0.00    +0.000 A 
ENDROOT
BRANCH   4   7
ATOM      7  C   UNL     1      -0.552  10.694  19.870  0.00  0.00    +0.000 C 
ATOM      8  O   UNL     1      -1.408  10.839  19.009  0.00  0.00    +0.000 OA
ATOM      9  N   UNL     1      -0.430  11.401  21.048  0.00  0.00    +0.000 N 
ATOM     10  C   UNL     1      -1.305  12.391  21.455  0.00  0.00    +0.000 A 
ATOM     11  N   UNL     1      -1.008  13.295  22.357  0.00  0.00    +0.000 NA
ATOM     12  N   UNL     1      -2.049  14.184  22.565  0.00  0.00    +0.000 NA
ATOM     13  C   UNL     1      -3.120  13.870  21.863  0.00  0.00    +0.000 A 
ATOM     14  S   UNL     1      -2.906  12.495  20.864  0.00  0.00    +0.000 S 
ATOM     15  H   UNL     1       0.439  11.389  21.562  0.00  0.00    +0.000 HD
BRANCH  13  16
ATOM     16  C   UNL     1      -4.420  14.608  21.887  0.00  0.00    +0.000 C 
BRANCH  16  17
ATOM     17  C   UNL     1      -5.285  14.346  20.644  0.00  0.00    +0.000 C 
BRANCH  17  18
ATOM     18  C   UNL     1      -6.723  13.869  20.954  0.00  0.00    +0.000 C 
ATOM     19  C   UNL     1      -7.671  14.080  19.763  0.00  0.00    +0.000 C 
ATOM     20  C   UNL     1      -7.334  13.158  18.594  0.00  0.00    +0.000 C 
ATOM     21  C   UNL     1      -7.368  11.695  19.025  0.00  0.00    +0.000 C 
ATOM     22  C   UNL     1      -6.477  11.422  20.234  0.00  0.00    +0.000 C 
ATOM     23  C   UNL     1      -6.757  12.390  21.384  0.00  0.00    +0.000 C 
ENDBRANCH  17  18
ENDBRANCH  16  17
ENDBRANCH  13  16
ENDBRANCH   4   7
BRANCH   1  27
ATOM     24  C   UNL     1       4.669   4.952  16.291  0.00  0.00    +0.000 C 
ATOM     25  C   UNL     1       3.864   4.404  17.479  0.00  0.00    +0.000 C 
ATOM     26  C   UNL     1       2.835   5.422  17.970  0.00  0.00    +0.000 C 
ATOM     27  C   UNL     1       3.478   6.768  18.339  0.00  0.00    +0.000 C 
ATOM     28  C   UNL     1       4.358   7.299  17.193  0.00  0.00    +0.000 C 
ATOM     29  C   UNL     1       5.370   6.254  16.708  0.00  0.00    +0.000 C 
BRANCH  24  30
ATOM     30  C   UNL     1       5.686   3.924  15.770  0.00  0.00    +0.000 C 
BRANCH  30  32
ATOM     31  O   UNL     1       7.573   5.169  14.875  0.00  0.00    +0.000 OA
ATOM     32  C   UNL     1       7.102   4.463  15.752  0.00  0.00    +0.000 C 
BRANCH  32  33
ATOM     33  O   UNL     1       7.808   4.102  16.846  0.00  0.00    +0.000 OA
ATOM     34  H   UNL     1       7.253   3.799  17.589  0.00  0.00    +0.000 HD
ENDBRANCH  32  33
ENDBRANCH  30  32
ENDBRANCH  24  30
ENDBRANCH   1  27
TORSDOF 8
ENDMDL
MODEL 5
REMARK VINA RESULT:      -8.2      3.802     12.376
REMARK  Name = 
REMARK  8 active torsions:
REMARK  status: ('A' for Active; 'I' for Inactive)
REMARK    1  A    between atoms: C_2  and  O_3
REMARK    2  A    between atoms: C_2  and  C_4
REMARK    3  A    between atoms: C_4  and  C_5
REMARK    4  A    between atoms: C_8  and  C_9
REMARK    5  A    between atoms: C_12  and  C_13
REMARK    6  A    between atoms: C_19  and  C_20
REMARK    7  A    between atoms: C_20  and  C_21
REMARK    8  A    between atoms: C_21  and  C_22
REMARK                            x       y       z     vdW  Elec       q    Type
REMARK                         _______ _______ _______ _____ _____    ______ ____
ROOT
ATOM      1  C   UNL     1       2.262   7.824  18.605  0.00  0.00    +0.000 A 
ATOM      2  C   UNL     1       1.877   7.892  19.950  0.00  0.00    +0.000 A 
ATOM      3  C   UNL     1       0.967   8.859  20.376  0.00  0.00    +0.000 A 
ATOM      4  C   UNL     1       0.428   9.781  19.473  0.00  0.00    +0.000 A 
ATOM      5  C   UNL     1       0.804   9.734  18.133  0.00  0.00    +0.000 A 
ATOM      6  C   UNL     1       1.715   8.757  17.705  0.00  0.00    +0.000 A 
ENDROOT
BRANCH   4   7
ATOM      7  C   UNL     1      -0.469  10.831  20.031  0.00  0.00    +0.000 C 
ATOM      8  O   UNL     1      -1.154  11.437  19.221  0.00  0.00    +0.000 OA
ATOM      9  N   UNL     1      -0.387  11.064  21.388  0.00  0.00    +0.000 N 
ATOM     10  C   UNL     1      -1.113  12.032  22.057  0.00  0.00    +0.000 A 
ATOM     11  N   UNL     1      -0.785  12.498  23.237  0.00  0.00    +0.000 NA
ATOM     12  N   UNL     1      -1.664  13.476  23.673  0.00  0.00    +0.000 NA
ATOM     13  C   UNL     1      -2.664  13.657  22.834  0.00  0.00    +0.000 A 
ATOM     14  S   UNL     1      -2.569  12.677  21.432  0.00  0.00    +0.000 S 
ATOM     15  H   UNL     1       0.383  10.690  21.924  0.00  0.00    +0.000 HD
BRANCH  13  16
ATOM     16  C   UNL     1      -3.796  14.614  23.027  0.00  0.00    +0.000 C 
BRANCH  16  17
ATOM     17  C   UNL     1      -4.941  14.033  23.871  0.00  0.00    +0.000 C 
BRANCH  17  18
ATOM     18  C   UNL     1      -6.354  14.475  23.424  0.00  0.00    +0.000 C 
ATOM     19  C   UNL     1      -6.530  14.389  21.900  0.00  0.00    +0.000 C 
ATOM     20  C   UNL     1      -6.537  12.945  21.406  0.00  0.00    +0.000 C 
ATOM     21  C   UNL     1      -7.632  12.137  22.096  0.00  0.00    +0.000 C 
ATOM     22  C   UNL     1      -7.542  12.213  23.618  0.00  0.00    +0.000 C 
ATOM     23  C   UNL     1      -7.459  13.654  24.118  0.00  0.00    +0.000 C 
ENDBRANCH  17  18
ENDBRANCH  16  17
ENDBRANCH  13  16
ENDBRANCH   4   7
BRANCH   1  27
ATOM     24  C   UNL     1       6.002   5.621  17.950  0.00  0.00    +0.000 C 
ATOM     25  C   UNL     1       5.280   6.220  16.734  0.00  0.00    +0.000 C 
ATOM     26  C   UNL     1       4.265   7.281  17.157  0.00  0.00    +0.000 C 
ATOM     27  C   UNL     1       3.242   6.738  18.168  0.00  0.00    +0.000 C 
ATOM     28  C   UNL     1       3.943   6.059  19.360  0.00  0.00    +0.000 C 
ATOM     29  C   UNL     1       4.966   5.011  18.908  0.00  0.00    +0.000 C 
BRANCH  24  30
ATOM     30  C   UNL     1       7.048   4.575  17.533  0.00  0.00    +0.000 C 
BRANCH  30  32
ATOM     31  O   UNL     1       7.630   4.812  15.185  0.00  0.00    +0.000 OA
ATOM     32  C   UNL     1       6.987   4.248  16.055  0.00  0.00    +0.000 C 
BRANCH  32  33
ATOM     33  O   UNL     1       6.152   3.221  15.785  0.00  0.00    +0.000 OA
ATOM     34  H   UNL     1       5.207   3.457  15.840  0.00  0.00    +0.000 HD
ENDBRANCH  32  33
ENDBRANCH  30  32
ENDBRANCH  24  30
ENDBRANCH   1  27
TORSDOF 8
ENDMDL
MODEL 6
REMARK VINA RESULT:      -8.2      3.691     12.626
REMARK  Name = 
REMARK  8 active torsions:
REMARK  status: ('A' for Active; 'I' for Inactive)
REMARK    1  A    between atoms: C_2  and  O_3
REMARK    2  A    between atoms: C_2  and  C_4
REMARK    3  A    between atoms: C_4  and  C_5
REMARK    4  A    between atoms: C_8  and  C_9
REMARK    5  A    between atoms: C_12  and  C_13
REMARK    6  A    between atoms: C_19  and  C_20
REMARK    7  A    between atoms: C_20  and  C_21
REMARK    8  A    between atoms: C_21  and  C_22
REMARK                            x       y       z     vdW  Elec       q    Type
REMARK                         _______ _______ _______ _____ _____    ______ ____
ROOT
ATOM      1  C   UNL     1       2.609   7.283  19.035  0.00  0.00    +0.000 A 
ATOM      2  C   UNL     1       2.232   8.344  18.201  0.00  0.00    +0.000 A 
ATOM      3  C   UNL     1       1.377   9.341  18.670  0.00  0.00    +0.000 A 
ATOM      4  C   UNL     1       0.876   9.298  19.975  0.00  0.00    +0.000 A 
ATOM      5  C   UNL     1       1.234   8.248  20.816  0.00  0.00    +0.000 A 
ATOM      6  C   UNL     1       2.097   7.249  20.345  0.00  0.00    +0.000 A 
ENDROOT
BRANCH   4   7
ATOM      7  C   UNL     1      -0.097  10.358  20.362  0.00  0.00    +0.000 C 
ATOM      8  O   UNL     1      -0.931  10.654  19.519  0.00  0.00    +0.000 OA
ATOM      9  N   UNL     1       0.083  10.949  21.595  0.00  0.00    +0.000 N 
ATOM     10  C   UNL     1      -0.700  11.978  22.086  0.00  0.00    +0.000 A 
ATOM     11  N   UNL     1      -0.326  12.771  23.061  0.00  0.00    +0.000 NA
ATOM     12  N   UNL     1      -1.282  13.731  23.345  0.00  0.00    +0.000 NA
ATOM     13  C   UNL     1      -2.373  13.579  22.621  0.00  0.00    +0.000 A 
ATOM     14  S   UNL     1      -2.281  12.278  21.510  0.00  0.00    +0.000 S 
ATOM     15  H   UNL     1       0.943  10.813  22.105  0.00  0.00    +0.000 HD
BRANCH  13  16
ATOM     16  C   UNL     1      -3.599  14.429  22.710  0.00  0.00    +0.000 C 
BRANCH  16  17
ATOM     17  C   UNL     1      -4.591  13.948  23.781  0.00  0.00    +0.000 C 
BRANCH  17  18
ATOM     18  C   UNL     1      -5.750  13.080  23.236  0.00  0.00    +0.000 C 
ATOM     19  C   UNL     1      -7.044  13.273  24.043  0.00  0.00    +0.000 C 
ATOM     20  C   UNL     1      -7.639  14.664  23.843  0.00  0.00    +0.000 C 
ATOM     21  C   UNL     1      -7.910  14.936  22.366  0.00  0.00    +0.000 C 
ATOM     22  C   UNL     1      -6.672  14.722  21.498  0.00  0.00    +0.000 C 
ATOM     23  C   UNL     1      -6.025  13.360  21.746  0.00  0.00    +0.000 C 
ENDBRANCH  17  18
ENDBRANCH  16  17
ENDBRANCH  13  16
ENDBRANCH   4   7
BRANCH   1  27
ATOM     24  C   UNL     1       4.891   4.775  16.247  0.00  0.00    +0.000 C 
ATOM     25  C   UNL     1       3.763   4.126  17.065  0.00  0.00    +0.000 C 
ATOM     26  C   UNL     1       2.821   5.180  17.644  0.00  0.00    +0.000 C 
ATOM     27  C   UNL     1       3.564   6.221  18.497  0.00  0.00    +0.000 C 
ATOM     28  C   UNL     1       4.752   6.828  17.727  0.00  0.00    +0.000 C 
ATOM     29  C   UNL     1       5.673   5.751  17.142  0.00  0.00    +0.000 C 
BRANCH  24  30
ATOM     30  C   UNL     1       5.828   3.722  15.634  0.00  0.00    +0.000 C 
BRANCH  30  32
ATOM     31  O   UNL     1       7.390   5.181  14.476  0.00  0.00    +0.000 OA
ATOM     32  C   UNL     1       6.599   4.252  14.442  0.00  0.00    +0.000 C 
BRANCH  32  33
ATOM     33  O   UNL     1       6.344   3.561  13.311  0.00  0.00    +0.000 OA
ATOM     34  H   UNL     1       7.069   2.967  13.040  0.00  0.00    +0.000 HD
ENDBRANCH  32  33
ENDBRANCH  30  32
ENDBRANCH  24  30
ENDBRANCH   1  27
TORSDOF 8
ENDMDL
MODEL 7
REMARK VINA RESULT:      -8.1      3.790     12.787
REMARK  Name = 
REMARK  8 active torsions:
REMARK  status: ('A' for Active; 'I' for Inactive)
REMARK    1  A    between atoms: C_2  and  O_3
REMARK    2  A    between atoms: C_2  and  C_4
REMARK    3  A    between atoms: C_4  and  C_5
REMARK    4  A    between atoms: C_8  and  C_9
REMARK    5  A    between atoms: C_12  and  C_13
REMARK    6  A    between atoms: C_19  and  C_20
REMARK    7  A    between atoms: C_20  and  C_21
REMARK    8  A    between atoms: C_21  and  C_22
REMARK                            x       y       z     vdW  Elec       q    Type
REMARK                         _______ _______ _______ _____ _____    ______ ____
ROOT
ATOM      1  C   UNL     1       3.325   6.788  18.387  0.00  0.00    +0.000 A 
ATOM      2  C   UNL     1       2.904   8.007  17.840  0.00  0.00    +0.000 A 
ATOM      3  C   UNL     1       2.003   8.818  18.532  0.00  0.00    +0.000 A 
ATOM      4  C   UNL     1       1.500   8.427  19.778  0.00  0.00    +0.000 A 
ATOM      5  C   UNL     1       1.903   7.216  20.333  0.00  0.00    +0.000 A 
ATOM      6  C   UNL     1       2.812   6.405  19.640  0.00  0.00    +0.000 A 
ENDROOT
BRANCH   4   7
ATOM      7  C   UNL     1       0.480   9.313  20.404  0.00  0.00    +0.000 C 
ATOM      8  O   UNL     1       0.030   8.938  21.476  0.00  0.00    +0.000 OA
ATOM      9  N   UNL     1       0.093  10.424  19.684  0.00  0.00    +0.000 N 
ATOM     10  C   UNL     1      -0.875  11.321  20.098  0.00  0.00    +0.000 A 
ATOM     11  N   UNL     1      -1.495  12.143  19.287  0.00  0.00    +0.000 NA
ATOM     12  N   UNL     1      -2.432  12.918  19.949  0.00  0.00    +0.000 NA
ATOM     13  C   UNL     1      -2.430  12.700  21.249  0.00  0.00    +0.000 A 
ATOM     14  S   UNL     1      -1.314  11.497  21.741  0.00  0.00    +0.000 S 
ATOM     15  H   UNL     1       0.335  10.508  18.707  0.00  0.00    +0.000 HD
BRANCH  13  16
ATOM     16  C   UNL     1      -3.298  13.397  22.247  0.00  0.00    +0.000 C 
BRANCH  16  17
ATOM     17  C   UNL     1      -4.572  12.609  22.593  0.00  0.00    +0.000 C 
BRANCH  17  18
ATOM     18  C   UNL     1      -5.858  13.143  21.918  0.00  0.00    +0.000 C 
ATOM     19  C   UNL     1      -7.121  12.450  22.454  0.00  0.00    +0.000 C 
ATOM     20  C   UNL     1      -7.407  12.830  23.905  0.00  0.00    +0.000 C 
ATOM     21  C   UNL     1      -7.546  14.341  24.058  0.00  0.00    +0.000 C 
ATOM     22  C   UNL     1      -6.340  15.096  23.506  0.00  0.00    +0.000 C 
ATOM     23  C   UNL     1      -5.999  14.669  22.079  0.00  0.00    +0.000 C 
ENDBRANCH  17  18
ENDBRANCH  16  17
ENDBRANCH  13  16
ENDBRANCH   4   7
BRANCH   1  27
ATOM     24  C   UNL     1       5.245   4.559  15.129  0.00  0.00    +0.000 C 
ATOM     25  C   UNL     1       4.669   3.774  16.317  0.00  0.00    +0.000 C 
ATOM     26  C   UNL     1       3.692   4.626  17.125  0.00  0.00    +0.000 C 
ATOM     27  C   UNL     1       4.329   5.937  17.614  0.00  0.00    +0.000 C 
ATOM     28  C   UNL     1       4.986   6.705  16.452  0.00  0.00    +0.000 C 
ATOM     29  C   UNL     1       5.948   5.824  15.648  0.00  0.00    +0.000 C 
BRANCH  24  30
ATOM     30  C   UNL     1       6.206   3.701  14.291  0.00  0.00    +0.000 C 
BRANCH  30  32
ATOM     31  O   UNL     1       4.648   3.583  12.428  0.00  0.00    +0.000 OA
ATOM     32  C   UNL     1       5.798   3.626  12.833  0.00  0.00    +0.000 C 
BRANCH  32  33
ATOM     33  O   UNL     1       6.859   3.641  11.997  0.00  0.00    +0.000 OA
ATOM     34  H   UNL     1       7.661   3.229  12.372  0.00  0.00    +0.000 HD
ENDBRANCH  32  33
ENDBRANCH  30  32
ENDBRANCH  24  30
ENDBRANCH   1  27
TORSDOF 8
ENDMDL
MODEL 8
REMARK VINA RESULT:      -8.1      3.650     12.782
REMARK  Name = 
REMARK  8 active torsions:
REMARK  status: ('A' for Active; 'I' for Inactive)
REMARK    1  A    between atoms: C_2  and  O_3
REMARK    2  A    between atoms: C_2  and  C_4
REMARK    3  A    between atoms: C_4  and  C_5
REMARK    4  A    between atoms: C_8  and  C_9
REMARK    5  A    between atoms: C_12  and  C_13
REMARK    6  A    between atoms: C_19  and  C_20
REMARK    7  A    between atoms: C_20  and  C_21
REMARK    8  A    between atoms: C_21  and  C_22
REMARK                            x       y       z     vdW  Elec       q    Type
REMARK                         _______ _______ _______ _____ _____    ______ ____
ROOT
ATOM      1  C   UNL     1       3.559   6.791  18.016  0.00  0.00    +0.000 A 
ATOM      2  C   UNL     1       3.135   6.327  19.269  0.00  0.00    +0.000 A 
ATOM      3  C   UNL     1       2.213   7.058  20.017  0.00  0.00    +0.000 A 
ATOM      4  C   UNL     1       1.701   8.268  19.537  0.00  0.00    +0.000 A 
ATOM      5  C   UNL     1       2.116   8.748  18.298  0.00  0.00    +0.000 A 
ATOM      6  C   UNL     1       3.039   8.009  17.544  0.00  0.00    +0.000 A 
ENDROOT
BRANCH   4   7
ATOM      7  C   UNL     1       0.788   9.023  20.440  0.00  0.00    +0.000 C 
ATOM      8  O   UNL     1       0.613   8.540  21.549  0.00  0.00    +0.000 OA
ATOM      9  N   UNL     1       0.177  10.143  19.915  0.00  0.00    +0.000 N 
ATOM     10  C   UNL     1      -0.733  10.926  20.601  0.00  0.00    +0.000 A 
ATOM     11  N   UNL     1      -1.570  11.746  20.015  0.00  0.00    +0.000 NA
ATOM     12  N   UNL     1      -2.388  12.394  20.926  0.00  0.00    +0.000 NA
ATOM     13  C   UNL     1      -2.083  12.091  22.172  0.00  0.00    +0.000 A 
ATOM     14  S   UNL     1      -0.808  10.956  22.309  0.00  0.00    +0.000 S 
ATOM     15  H   UNL     1       0.191  10.312  18.920  0.00  0.00    +0.000 HD
BRANCH  13  16
ATOM     16  C   UNL     1      -2.753  12.645  23.388  0.00  0.00    +0.000 C 
BRANCH  16  17
ATOM     17  C   UNL     1      -3.514  13.952  23.115  0.00  0.00    +0.000 C 
BRANCH  17  18
ATOM     18  C   UNL     1      -4.785  14.145  23.977  0.00  0.00    +0.000 C 
ATOM     19  C   UNL     1      -5.542  15.431  23.609  0.00  0.00    +0.000 C 
ATOM     20  C   UNL     1      -6.174  15.344  22.222  0.00  0.00    +0.000 C 
ATOM     21  C   UNL     1      -7.116  14.148  22.124  0.00  0.00    +0.000 C 
ATOM     22  C   UNL     1      -6.437  12.838  22.518  0.00  0.00    +0.000 C 
ATOM     23  C   UNL     1      -5.737  12.938  23.873  0.00  0.00    +0.000 C 
ENDBRANCH  17  18
ENDBRANCH  16  17
ENDBRANCH  13  16
ENDBRANCH   4   7
BRANCH   1  27
ATOM     24  C   UNL     1       5.349   4.464  14.752  0.00  0.00    +0.000 C 
ATOM     25  C   UNL     1       4.935   3.730  16.037  0.00  0.00    +0.000 C 
ATOM     26  C   UNL     1       3.972   4.572  16.872  0.00  0.00    +0.000 C 
ATOM     27  C   UNL     1       4.552   5.954  17.213  0.00  0.00    +0.000 C 
ATOM     28  C   UNL     1       5.049   6.678  15.948  0.00  0.00    +0.000 C 
ATOM     29  C   UNL     1       6.001   5.806  15.120  0.00  0.00    +0.000 C 
BRANCH  24  30
ATOM     30  C   UNL     1       6.294   3.613  13.889  0.00  0.00    +0.000 C 
BRANCH  30  32
ATOM     31  O   UNL     1       4.652   3.696  12.098  0.00  0.00    +0.000 OA
ATOM     32  C   UNL     1       5.678   3.224  12.561  0.00  0.00    +0.000 C 
BRANCH  32  33
ATOM     33  O   UNL     1       6.408   2.298  11.902  0.00  0.00    +0.000 OA
ATOM     34  H   UNL     1       6.009   2.009  11.060  0.00  0.00    +0.000 HD
ENDBRANCH  32  33
ENDBRANCH  30  32
ENDBRANCH  24  30
ENDBRANCH   1  27
TORSDOF 8
ENDMDL
MODEL 9
REMARK VINA RESULT:      -8.0      3.785     12.616
REMARK  Name = 
REMARK  8 active torsions:
REMARK  status: ('A' for Active; 'I' for Inactive)
REMARK    1  A    between atoms: C_2  and  O_3
REMARK    2  A    between atoms: C_2  and  C_4
REMARK    3  A    between atoms: C_4  and  C_5
REMARK    4  A    between atoms: C_8  and  C_9
REMARK    5  A    between atoms: C_12  and  C_13
REMARK    6  A    between atoms: C_19  and  C_20
REMARK    7  A    between atoms: C_20  and  C_21
REMARK    8  A    between atoms: C_21  and  C_22
REMARK                            x       y       z     vdW  Elec       q    Type
REMARK                         _______ _______ _______ _____ _____    ______ ____
ROOT
ATOM      1  C   UNL     1       2.438   7.519  18.736  0.00  0.00    +0.000 A 
ATOM      2  C   UNL     1       2.116   7.369  20.091  0.00  0.00    +0.000 A 
ATOM      3  C   UNL     1       1.293   8.299  20.728  0.00  0.00    +0.000 A 
ATOM      4  C   UNL     1       0.782   9.398  20.029  0.00  0.00    +0.000 A 
ATOM      5  C   UNL     1       1.097   9.566  18.684  0.00  0.00    +0.000 A 
ATOM      6  C   UNL     1       1.920   8.628  18.044  0.00  0.00    +0.000 A 
ENDROOT
BRANCH   4   7
ATOM      7  C   UNL     1      -0.017  10.383  20.810  0.00  0.00    +0.000 C 
ATOM      8  O   UNL     1       0.132  10.353  22.023  0.00  0.00    +0.000 OA
ATOM      9  N   UNL     1      -0.894  11.177  20.100  0.00  0.00    +0.000 N 
ATOM     10  C   UNL     1      -1.742  12.106  20.675  0.00  0.00    +0.000 A 
ATOM     11  N   UNL     1      -2.805  12.585  20.076  0.00  0.00    +0.000 NA
ATOM     12  N   UNL     1      -3.493  13.481  20.876  0.00  0.00    +0.000 NA
ATOM     13  C   UNL     1      -2.880  13.699  22.023  0.00  0.00    +0.000 A 
ATOM     14  S   UNL     1      -1.445  12.783  22.217  0.00  0.00    +0.000 S 
ATOM     15  H   UNL     1      -1.125  10.952  19.143  0.00  0.00    +0.000 HD
BRANCH  13  16
ATOM     16  C   UNL     1      -3.344  14.635  23.092  0.00  0.00    +0.000 C 
BRANCH  16  17
ATOM     17  C   UNL     1      -4.674  15.327  22.752  0.00  0.00    +0.000 C 
BRANCH  17  18
ATOM     18  C   UNL     1      -5.844  14.964  23.696  0.00  0.00    +0.000 C 
ATOM     19  C   UNL     1      -7.154  15.653  23.282  0.00  0.00    +0.000 C 
ATOM     20  C   UNL     1      -7.697  15.104  21.966  0.00  0.00    +0.000 C 
ATOM     21  C   UNL     1      -7.915  13.597  22.050  0.00  0.00    +0.000 C 
ATOM     22  C   UNL     1      -6.660  12.851  22.497  0.00  0.00    +0.000 C 
ATOM     23  C   UNL     1      -6.066  13.441  23.776  0.00  0.00    +0.000 C 
ENDBRANCH  17  18
ENDBRANCH  16  17
ENDBRANCH  13  16
ENDBRANCH   4   7
BRANCH   1  27
ATOM     24  C   UNL     1       5.996   5.401  17.278  0.00  0.00    +0.000 C 
ATOM     25  C   UNL     1       5.061   6.059  16.252  0.00  0.00    +0.000 C 
ATOM     26  C   UNL     1       4.140   7.082  16.915  0.00  0.00    +0.000 C 
ATOM     27  C   UNL     1       3.323   6.471  18.064  0.00  0.00    +0.000 C 
ATOM     28  C   UNL     1       4.232   5.734  19.066  0.00  0.00    +0.000 C 
ATOM     29  C   UNL     1       5.156   4.726  18.374  0.00  0.00    +0.000 C 
BRANCH  24  30
ATOM     30  C   UNL     1       6.948   4.392  16.616  0.00  0.00    +0.000 C 
BRANCH  30  32
ATOM     31  O   UNL     1       7.638   5.478  14.553  0.00  0.00    +0.000 OA
ATOM     32  C   UNL     1       7.039   4.575  15.115  0.00  0.00    +0.000 C 
BRANCH  32  33
ATOM     33  O   UNL     1       6.401   3.598  14.434  0.00  0.00    +0.000 OA
ATOM     34  H   UNL     1       6.561   2.703  14.788  0.00  0.00    +0.000 HD
ENDBRANCH  32  33
ENDBRANCH  30  32
ENDBRANCH  24  30
ENDBRANCH   1  27
TORSDOF 8
ENDMDL
