MODEL 1
REMARK VINA RESULT:      -8.7      0.000      0.000
REMARK  Name = 
REMARK  5 active torsions:
REMARK  status: ('A' for Active; 'I' for Inactive)
REMARK    1  A    between atoms: C_2  and  C_17
REMARK    2  A    between atoms: N_3  and  C_4
REMARK    3  A    between atoms: C_7  and  O_8
REMARK    4  A    between atoms: O_8  and  C_9
REMARK    5  A    between atoms: C_25  and  O_26
REMARK                            x       y       z     vdW  Elec       q    Type
REMARK                         _______ _______ _______ _____ _____    ______ ____
ROOT
ATOM      1  O   UNL     1       2.291   8.975  17.289  0.00  0.00    +0.000 OA
ATOM      2  C   UNL     1       2.028   8.428  18.357  0.00  0.00    +0.000 C 
ATOM      3  N   UNL     1       2.405   7.154  18.732  0.00  0.00    +0.000 N 
ATOM      4  H   UNL     1       1.976   6.794  19.582  0.00  0.00    +0.000 HD
ENDROOT
BRANCH   2   5
ATOM      5  C   UNL     1       1.240   9.201  19.356  0.00  0.00    +0.000 A 
ATOM      6  C   UNL     1       0.415  10.224  18.844  0.00  0.00    +0.000 A 
ATOM      7  C   UNL     1      -0.382  11.023  19.668  0.00  0.00    +0.000 A 
ATOM      8  C   UNL     1      -0.330  10.739  21.028  0.00  0.00    +0.000 A 
ATOM      9  N   UNL     1      -0.950  11.270  22.126  0.00  0.00    +0.000 N 
ATOM     10  N   UNL     1      -0.575  10.654  23.260  0.00  0.00    +0.000 NA
ATOM     11  N   UNL     1       0.297   9.708  22.932  0.00  0.00    +0.000 NA
ATOM     12  C   UNL     1       0.464   9.741  21.571  0.00  0.00    +0.000 A 
ATOM     13  C   UNL     1       1.272   8.952  20.738  0.00  0.00    +0.000 A 
ATOM     14  H   UNL     1      -1.619  12.031  22.179  0.00  0.00    +0.000 HD
BRANCH  13  15
ATOM     15  O   UNL     1       2.060   7.960  21.273  0.00  0.00    +0.000 OA
ATOM     16  H   UNL     1       2.987   8.230  21.104  0.00  0.00    +0.000 HD
ENDBRANCH  13  15
ENDBRANCH   2   5
BRANCH   3  17
ATOM     17  C   UNL     1       3.230   6.276  18.011  0.00  0.00    +0.000 A 
ATOM     18  C   UNL     1       4.461   6.653  17.473  0.00  0.00    +0.000 A 
ATOM     19  C   UNL     1       5.250   5.728  16.789  0.00  0.00    +0.000 A 
ATOM     20  C   UNL     1       4.815   4.415  16.638  0.00  0.00    +0.000 A 
ATOM     21  C   UNL     1       3.556   4.045  17.120  0.00  0.00    +0.000 A 
ATOM     22  C   UNL     1       2.786   4.962  17.840  0.00  0.00    +0.000 A 
BRANCH  20  23
ATOM     23  O   UNL     1       5.664   3.579  15.957  0.00  0.00    +0.000 OA
BRANCH  23  24
ATOM     24  C   UNL     1       6.165   3.954  14.732  0.00  0.00    +0.000 A 
ATOM     25  C   UNL     1       5.508   3.412  13.626  0.00  0.00    +0.000 A 
ATOM     26  C   UNL     1       5.953   3.704  12.337  0.00  0.00    +0.000 A 
ATOM     27  C   UNL     1       7.056   4.537  12.152  0.00  0.00    +0.000 A 
ATOM     28  C   UNL     1       7.685   5.114  13.254  0.00  0.00    +0.000 A 
ATOM     29  C   UNL     1       7.218   4.852  14.540  0.00  0.00    +0.000 A 
ENDBRANCH  23  24
ENDBRANCH  20  23
ENDBRANCH   3  17
TORSDOF 5
ENDMDL
MODEL 2
REMARK VINA RESULT:      -8.5      0.245      1.356
REMARK  Name = 
REMARK  5 active torsions:
REMARK  status: ('A' for Active; 'I' for Inactive)
REMARK    1  A    between atoms: C_2  and  C_17
REMARK    2  A    between atoms: N_3  and  C_4
REMARK    3  A    between atoms: C_7  and  O_8
REMARK    4  A    between atoms: O_8  and  C_9
REMARK    5  A    between atoms: C_25  and  O_26
REMARK                            x       y       z     vdW  Elec       q    Type
REMARK                         _______ _______ _______ _____ _____    ______ ____
ROOT
ATOM      1  O   UNL     1       2.170   8.769  17.180  0.00  0.00    +0.000 OA
ATOM      2  C   UNL     1       2.069   8.326  18.321  0.00  0.00    +0.000 C 
ATOM      3  N   UNL     1       2.562   7.118  18.772  0.00  0.00    +0.000 N 
ATOM      4  H   UNL     1       2.259   6.830  19.700  0.00  0.00    +0.000 HD
ENDROOT
BRANCH   2   5
ATOM      5  C   UNL     1       1.361   9.163  19.329  0.00  0.00    +0.000 A 
ATOM      6  C   UNL     1       0.713  10.316  18.839  0.00  0.00    +0.000 A 
ATOM      7  C   UNL     1       0.007  11.187  19.672  0.00  0.00    +0.000 A 
ATOM      8  C   UNL     1      -0.036  10.842  21.018  0.00  0.00    +0.000 A 
ATOM      9  N   UNL     1      -0.616  11.412  22.119  0.00  0.00    +0.000 N 
ATOM     10  N   UNL     1      -0.379  10.701  23.235  0.00  0.00    +0.000 NA
ATOM     11  N   UNL     1       0.360   9.653  22.892  0.00  0.00    +0.000 NA
ATOM     12  C   UNL     1       0.584   9.718  21.541  0.00  0.00    +0.000 A 
ATOM     13  C   UNL     1       1.302   8.855  20.699  0.00  0.00    +0.000 A 
ATOM     14  H   UNL     1      -1.171  12.258  22.186  0.00  0.00    +0.000 HD
BRANCH  13  15
ATOM     15  O   UNL     1       1.918   7.737  21.213  0.00  0.00    +0.000 OA
ATOM     16  H   UNL     1       2.370   7.306  20.457  0.00  0.00    +0.000 HD
ENDBRANCH  13  15
ENDBRANCH   2   5
BRANCH   3  17
ATOM     17  C   UNL     1       3.345   6.207  18.045  0.00  0.00    +0.000 A 
ATOM     18  C   UNL     1       2.952   4.891  17.794  0.00  0.00    +0.000 A 
ATOM     19  C   UNL     1       3.761   4.040  17.043  0.00  0.00    +0.000 A 
ATOM     20  C   UNL     1       4.972   4.496  16.531  0.00  0.00    +0.000 A 
ATOM     21  C   UNL     1       5.402   5.793  16.830  0.00  0.00    +0.000 A 
ATOM     22  C   UNL     1       4.572   6.656  17.548  0.00  0.00    +0.000 A 
BRANCH  20  23
ATOM     23  O   UNL     1       5.692   3.587  15.798  0.00  0.00    +0.000 OA
BRANCH  23  24
ATOM     24  C   UNL     1       6.192   3.936  14.566  0.00  0.00    +0.000 A 
ATOM     25  C   UNL     1       7.261   4.834  14.585  0.00  0.00    +0.000 A 
ATOM     26  C   UNL     1       7.823   5.277  13.389  0.00  0.00    +0.000 A 
ATOM     27  C   UNL     1       7.318   4.823  12.171  0.00  0.00    +0.000 A 
ATOM     28  C   UNL     1       6.281   3.893  12.150  0.00  0.00    +0.000 A 
ATOM     29  C   UNL     1       5.742   3.423  13.346  0.00  0.00    +0.000 A 
ENDBRANCH  23  24
ENDBRANCH  20  23
ENDBRANCH   3  17
TORSDOF 5
ENDMDL
MODEL 3
REMARK VINA RESULT:      -8.4      0.982      1.868
REMARK  Name = 
REMARK  5 active torsions:
REMARK  status: ('A' for Active; 'I' for Inactive)
REMARK    1  A    between atoms: C_2  and  C_17
REMARK    2  A    between atoms: N_3  and  C_4
REMARK    3  A    between atoms: C_7  and  O_8
REMARK    4  A    between atoms: O_8  and  C_9
REMARK    5  A    between atoms: C_25  and  O_26
REMARK                            x       y       z     vdW  Elec       q    Type
REMARK                         _______ _______ _______ _____ _____    ______ ____
ROOT
ATOM      1  O   UNL     1       2.378   8.687  17.336  0.00  0.00    +0.000 OA
ATOM      2  C   UNL     1       2.131   8.109  18.391  0.00  0.00    +0.000 C 
ATOM      3  N   UNL     1       2.539   6.836  18.736  0.00  0.00    +0.000 N 
ATOM      4  H   UNL     1       2.121   6.447  19.579  0.00  0.00    +0.000 HD
ENDROOT
BRANCH   2   5
ATOM      5  C   UNL     1       1.329   8.841  19.410  0.00  0.00    +0.000 A 
ATOM      6  C   UNL     1       1.463   8.402  20.743  0.00  0.00    +0.000 A 
ATOM      7  C   UNL     1       0.774   9.002  21.801  0.00  0.00    +0.000 A 
ATOM      8  C   UNL     1      -0.044  10.075  21.464  0.00  0.00    +0.000 A 
ATOM      9  N   UNL     1      -0.851  10.908  22.189  0.00  0.00    +0.000 N 
ATOM     10  N   UNL     1      -1.461  11.818  21.410  0.00  0.00    +0.000 NA
ATOM     11  N   UNL     1      -1.068  11.602  20.161  0.00  0.00    +0.000 NA
ATOM     12  C   UNL     1      -0.202  10.539  20.167  0.00  0.00    +0.000 A 
ATOM     13  C   UNL     1       0.484   9.923  19.110  0.00  0.00    +0.000 A 
ATOM     14  H   UNL     1      -1.032  10.917  23.187  0.00  0.00    +0.000 HD
BRANCH  13  15
ATOM     15  O   UNL     1       0.331  10.381  17.822  0.00  0.00    +0.000 OA
ATOM     16  H   UNL     1       0.990  11.099  17.710  0.00  0.00    +0.000 HD
ENDBRANCH  13  15
ENDBRANCH   2   5
BRANCH   3  17
ATOM     17  C   UNL     1       3.381   5.994  17.993  0.00  0.00    +0.000 A 
ATOM     18  C   UNL     1       3.072   4.662  17.710  0.00  0.00    +0.000 A 
ATOM     19  C   UNL     1       3.936   3.881  16.943  0.00  0.00    +0.000 A 
ATOM     20  C   UNL     1       5.117   4.425  16.448  0.00  0.00    +0.000 A 
ATOM     21  C   UNL     1       5.463   5.739  16.779  0.00  0.00    +0.000 A 
ATOM     22  C   UNL     1       4.578   6.531  17.512  0.00  0.00    +0.000 A 
BRANCH  20  23
ATOM     23  O   UNL     1       5.896   3.580  15.698  0.00  0.00    +0.000 OA
BRANCH  23  24
ATOM     24  C   UNL     1       6.393   3.995  14.485  0.00  0.00    +0.000 A 
ATOM     25  C   UNL     1       5.837   3.374  13.365  0.00  0.00    +0.000 A 
ATOM     26  C   UNL     1       6.290   3.700  12.088  0.00  0.00    +0.000 A 
ATOM     27  C   UNL     1       7.300   4.648  11.928  0.00  0.00    +0.000 A 
ATOM     28  C   UNL     1       7.826   5.301  13.041  0.00  0.00    +0.000 A 
ATOM     29  C   UNL     1       7.348   5.001  14.315  0.00  0.00    +0.000 A 
ENDBRANCH  23  24
ENDBRANCH  20  23
ENDBRANCH   3  17
TORSDOF 5
ENDMDL
MODEL 4
REMARK VINA RESULT:      -8.2      3.046      9.697
REMARK  Name = 
REMARK  5 active torsions:
REMARK  status: ('A' for Active; 'I' for Inactive)
REMARK    1  A    between atoms: C_2  and  C_17
REMARK    2  A    between atoms: N_3  and  C_4
REMARK    3  A    between atoms: C_7  and  O_8
REMARK    4  A    between atoms: O_8  and  C_9
REMARK    5  A    between atoms: C_25  and  O_26
REMARK                            x       y       z     vdW  Elec       q    Type
REMARK                         _______ _______ _______ _____ _____    ______ ____
ROOT
ATOM      1  O   UNL     1       2.249   6.075  19.271  0.00  0.00    +0.000 OA
ATOM      2  C   UNL     1       2.900   6.837  18.561  0.00  0.00    +0.000 C 
ATOM      3  N   UNL     1       2.600   8.159  18.297  0.00  0.00    +0.000 N 
ATOM      4  H   UNL     1       3.152   8.605  17.568  0.00  0.00    +0.000 HD
ENDROOT
BRANCH   2   5
ATOM      5  C   UNL     1       4.139   6.306  17.928  0.00  0.00    +0.000 A 
ATOM      6  C   UNL     1       4.311   6.589  16.558  0.00  0.00    +0.000 A 
ATOM      7  C   UNL     1       5.429   6.158  15.840  0.00  0.00    +0.000 A 
ATOM      8  C   UNL     1       6.378   5.443  16.563  0.00  0.00    +0.000 A 
ATOM      9  N   UNL     1       7.578   4.873  16.236  0.00  0.00    +0.000 N 
ATOM     10  N   UNL     1       8.152   4.272  17.293  0.00  0.00    +0.000 NA
ATOM     11  N   UNL     1       7.342   4.433  18.332  0.00  0.00    +0.000 NA
ATOM     12  C   UNL     1       6.249   5.145  17.911  0.00  0.00    +0.000 A 
ATOM     13  C   UNL     1       5.116   5.571  18.621  0.00  0.00    +0.000 A 
ATOM     14  H   UNL     1       8.057   4.854  15.342  0.00  0.00    +0.000 HD
BRANCH  13  15
ATOM     15  O   UNL     1       4.985   5.279  19.959  0.00  0.00    +0.000 OA
ATOM     16  H   UNL     1       4.323   5.911  20.310  0.00  0.00    +0.000 HD
ENDBRANCH  13  15
ENDBRANCH   2   5
BRANCH   3  17
ATOM     17  C   UNL     1       1.551   8.908  18.853  0.00  0.00    +0.000 A 
ATOM     18  C   UNL     1       1.268   8.932  20.220  0.00  0.00    +0.000 A 
ATOM     19  C   UNL     1       0.229   9.717  20.717  0.00  0.00    +0.000 A 
ATOM     20  C   UNL     1      -0.538  10.491  19.852  0.00  0.00    +0.000 A 
ATOM     21  C   UNL     1      -0.302  10.426  18.475  0.00  0.00    +0.000 A 
ATOM     22  C   UNL     1       0.765   9.670  17.984  0.00  0.00    +0.000 A 
BRANCH  20  23
ATOM     23  O   UNL     1      -1.531  11.235  20.437  0.00  0.00    +0.000 OA
BRANCH  23  24
ATOM     24  C   UNL     1      -1.209  12.285  21.265  0.00  0.00    +0.000 A 
ATOM     25  C   UNL     1      -1.838  12.280  22.511  0.00  0.00    +0.000 A 
ATOM     26  C   UNL     1      -1.604  13.315  23.416  0.00  0.00    +0.000 A 
ATOM     27  C   UNL     1      -0.741  14.356  23.076  0.00  0.00    +0.000 A 
ATOM     28  C   UNL     1      -0.078  14.340  21.850  0.00  0.00    +0.000 A 
ATOM     29  C   UNL     1      -0.284  13.287  20.961  0.00  0.00    +0.000 A 
ENDBRANCH  23  24
ENDBRANCH  20  23
ENDBRANCH   3  17
TORSDOF 5
ENDMDL
MODEL 5
REMARK VINA RESULT:      -8.2      3.058      4.917
REMARK  Name = 
REMARK  5 active torsions:
REMARK  status: ('A' for Active; 'I' for Inactive)
REMARK    1  A    between atoms: C_2  and  C_17
REMARK    2  A    between atoms: N_3  and  C_4
REMARK    3  A    between atoms: C_7  and  O_8
REMARK    4  A    between atoms: O_8  and  C_9
REMARK    5  A    between atoms: C_25  and  O_26
REMARK                            x       y       z     vdW  Elec       q    Type
REMARK                         _______ _______ _______ _____ _____    ______ ____
ROOT
ATOM      1  O   UNL     1       1.285  11.849  21.324  0.00  0.00    +0.000 OA
ATOM      2  C   UNL     1       0.153  11.421  21.111  0.00  0.00    +0.000 C 
ATOM      3  N   UNL     1      -0.170  10.323  20.339  0.00  0.00    +0.000 N 
ATOM      4  H   UNL     1      -1.159  10.195  20.137  0.00  0.00    +0.000 HD
ENDROOT
BRANCH   2   5
ATOM      5  C   UNL     1      -0.988  12.135  21.748  0.00  0.00    +0.000 A 
ATOM      6  C   UNL     1      -1.283  13.418  21.242  0.00  0.00    +0.000 A 
ATOM      7  C   UNL     1      -2.330  14.196  21.742  0.00  0.00    +0.000 A 
ATOM      8  C   UNL     1      -3.081  13.623  22.762  0.00  0.00    +0.000 A 
ATOM      9  N   UNL     1      -4.162  14.046  23.488  0.00  0.00    +0.000 N 
ATOM     10  N   UNL     1      -4.551  13.126  24.389  0.00  0.00    +0.000 NA
ATOM     11  N   UNL     1      -3.736  12.085  24.274  0.00  0.00    +0.000 NA
ATOM     12  C   UNL     1      -2.827  12.365  23.286  0.00  0.00    +0.000 A 
ATOM     13  C   UNL     1      -1.765  11.596  22.787  0.00  0.00    +0.000 A 
ATOM     14  H   UNL     1      -4.673  14.920  23.428  0.00  0.00    +0.000 HD
BRANCH  13  15
ATOM     15  O   UNL     1      -1.510  10.347  23.303  0.00  0.00    +0.000 OA
ATOM     16  H   UNL     1      -1.228   9.792  22.545  0.00  0.00    +0.000 HD
ENDBRANCH  13  15
ENDBRANCH   2   5
BRANCH   3  17
ATOM     17  C   UNL     1       0.728   9.436  19.724  0.00  0.00    +0.000 A 
ATOM     18  C   UNL     1       1.107   9.539  18.385  0.00  0.00    +0.000 A 
ATOM     19  C   UNL     1       2.024   8.643  17.836  0.00  0.00    +0.000 A 
ATOM     20  C   UNL     1       2.574   7.636  18.622  0.00  0.00    +0.000 A 
ATOM     21  C   UNL     1       2.153   7.488  19.948  0.00  0.00    +0.000 A 
ATOM     22  C   UNL     1       1.266   8.410  20.506  0.00  0.00    +0.000 A 
BRANCH  20  23
ATOM     23  O   UNL     1       3.472   6.810  17.994  0.00  0.00    +0.000 OA
BRANCH  23  24
ATOM     24  C   UNL     1       3.195   5.471  17.853  0.00  0.00    +0.000 A 
ATOM     25  C   UNL     1       4.303   4.649  17.641  0.00  0.00    +0.000 A 
ATOM     26  C   UNL     1       4.132   3.277  17.455  0.00  0.00    +0.000 A 
ATOM     27  C   UNL     1       2.851   2.726  17.482  0.00  0.00    +0.000 A 
ATOM     28  C   UNL     1       1.748   3.538  17.737  0.00  0.00    +0.000 A 
ATOM     29  C   UNL     1       1.923   4.902  17.958  0.00  0.00    +0.000 A 
ENDBRANCH  23  24
ENDBRANCH  20  23
ENDBRANCH   3  17
TORSDOF 5
ENDMDL
MODEL 6
REMARK VINA RESULT:      -8.1      3.097      4.417
REMARK  Name = 
REMARK  5 active torsions:
REMARK  status: ('A' for Active; 'I' for Inactive)
REMARK    1  A    between atoms: C_2  and  C_17
REMARK    2  A    between atoms: N_3  and  C_4
REMARK    3  A    between atoms: C_7  and  O_8
REMARK    4  A    between atoms: O_8  and  C_9
REMARK    5  A    between atoms: C_25  and  O_26
REMARK                            x       y       z     vdW  Elec       q    Type
REMARK                         _______ _______ _______ _____ _____    ______ ____
ROOT
ATOM      1  O   UNL     1       1.491  10.657  21.807  0.00  0.00    +0.000 OA
ATOM      2  C   UNL     1       0.483  10.629  21.107  0.00  0.00    +0.000 C 
ATOM      3  N   UNL     1       0.304   9.871  19.967  0.00  0.00    +0.000 N 
ATOM      4  H   UNL     1      -0.527  10.079  19.418  0.00  0.00    +0.000 HD
ENDROOT
BRANCH   2   5
ATOM      5  C   UNL     1      -0.670  11.479  21.518  0.00  0.00    +0.000 A 
ATOM      6  C   UNL     1      -0.961  12.580  20.688  0.00  0.00    +0.000 A 
ATOM      7  C   UNL     1      -2.017  13.456  20.952  0.00  0.00    +0.000 A 
ATOM      8  C   UNL     1      -2.781  13.167  22.078  0.00  0.00    +0.000 A 
ATOM      9  N   UNL     1      -3.873  13.759  22.652  0.00  0.00    +0.000 N 
ATOM     10  N   UNL     1      -4.272  13.107  23.759  0.00  0.00    +0.000 NA
ATOM     11  N   UNL     1      -3.452  12.078  23.933  0.00  0.00    +0.000 NA
ATOM     12  C   UNL     1      -2.530  12.094  22.918  0.00  0.00    +0.000 A 
ATOM     13  C   UNL     1      -1.459  11.227  22.653  0.00  0.00    +0.000 A 
ATOM     14  H   UNL     1      -4.385  14.583  22.358  0.00  0.00    +0.000 HD
BRANCH  13  15
ATOM     15  O   UNL     1      -1.208  10.160  23.484  0.00  0.00    +0.000 OA
ATOM     16  H   UNL     1      -0.356  10.357  23.928  0.00  0.00    +0.000 HD
ENDBRANCH  13  15
ENDBRANCH   2   5
BRANCH   3  17
ATOM     17  C   UNL     1       1.197   8.925  19.440  0.00  0.00    +0.000 A 
ATOM     18  C   UNL     1       1.616   7.794  20.142  0.00  0.00    +0.000 A 
ATOM     19  C   UNL     1       2.485   6.875  19.555  0.00  0.00    +0.000 A 
ATOM     20  C   UNL     1       2.943   7.076  18.258  0.00  0.00    +0.000 A 
ATOM     21  C   UNL     1       2.579   8.238  17.570  0.00  0.00    +0.000 A 
ATOM     22  C   UNL     1       1.677   9.136  18.144  0.00  0.00    +0.000 A 
BRANCH  20  23
ATOM     23  O   UNL     1       3.788   6.113  17.766  0.00  0.00    +0.000 OA
BRANCH  23  24
ATOM     24  C   UNL     1       5.126   6.141  18.083  0.00  0.00    +0.000 A 
ATOM     25  C   UNL     1       5.916   6.960  17.275  0.00  0.00    +0.000 A 
ATOM     26  C   UNL     1       7.291   7.039  17.492  0.00  0.00    +0.000 A 
ATOM     27  C   UNL     1       7.878   6.299  18.518  0.00  0.00    +0.000 A 
ATOM     28  C   UNL     1       7.084   5.515  19.354  0.00  0.00    +0.000 A 
ATOM     29  C   UNL     1       5.706   5.464  19.159  0.00  0.00    +0.000 A 
ENDBRANCH  23  24
ENDBRANCH  20  23
ENDBRANCH   3  17
TORSDOF 5
ENDMDL
MODEL 7
REMARK VINA RESULT:      -8.1      6.572      8.226
REMARK  Name = 
REMARK  5 active torsions:
REMARK  status: ('A' for Active; 'I' for Inactive)
REMARK    1  A    between atoms: C_2  and  C_17
REMARK    2  A    between atoms: N_3  and  C_4
REMARK    3  A    between atoms: C_7  and  O_8
REMARK    4  A    between atoms: O_8  and  C_9
REMARK    5  A    between atoms: C_25  and  O_26
REMARK                            x       y       z     vdW  Elec       q    Type
REMARK                         _______ _______ _______ _____ _____    ______ ____
ROOT
ATOM      1  O   UNL     1       9.266   9.692  19.743  0.00  0.00    +0.000 OA
ATOM      2  C   UNL     1       8.970  10.065  18.612  0.00  0.00    +0.000 C 
ATOM      3  N   UNL     1       8.269   9.336  17.672  0.00  0.00    +0.000 N 
ATOM      4  H   UNL     1       8.242   9.728  16.733  0.00  0.00    +0.000 HD
ENDROOT
BRANCH   2   5
ATOM      5  C   UNL     1       9.388  11.435  18.202  0.00  0.00    +0.000 A 
ATOM      6  C   UNL     1       8.375  12.268  17.684  0.00  0.00    +0.000 A 
ATOM      7  C   UNL     1       8.626  13.578  17.267  0.00  0.00    +0.000 A 
ATOM      8  C   UNL     1       9.936  14.022  17.410  0.00  0.00    +0.000 A 
ATOM      9  N   UNL     1      10.564  15.207  17.136  0.00  0.00    +0.000 N 
ATOM     10  N   UNL     1      11.871  15.165  17.448  0.00  0.00    +0.000 NA
ATOM     11  N   UNL     1      12.127  13.956  17.932  0.00  0.00    +0.000 NA
ATOM     12  C   UNL     1      10.960  13.237  17.917  0.00  0.00    +0.000 A 
ATOM     13  C   UNL     1      10.701  11.919  18.321  0.00  0.00    +0.000 A 
ATOM     14  H   UNL     1      10.180  16.062  16.748  0.00  0.00    +0.000 HD
BRANCH  13  15
ATOM     15  O   UNL     1      11.715  11.137  18.826  0.00  0.00    +0.000 OA
ATOM     16  H   UNL     1      12.466  11.233  18.205  0.00  0.00    +0.000 HD
ENDBRANCH  13  15
ENDBRANCH   2   5
BRANCH   3  17
ATOM     17  C   UNL     1       7.686   8.072  17.854  0.00  0.00    +0.000 A 
ATOM     18  C   UNL     1       6.535   7.657  17.182  0.00  0.00    +0.000 A 
ATOM     19  C   UNL     1       6.017   6.378  17.384  0.00  0.00    +0.000 A 
ATOM     20  C   UNL     1       6.646   5.499  18.260  0.00  0.00    +0.000 A 
ATOM     21  C   UNL     1       7.763   5.928  18.983  0.00  0.00    +0.000 A 
ATOM     22  C   UNL     1       8.304   7.194  18.749  0.00  0.00    +0.000 A 
BRANCH  20  23
ATOM     23  O   UNL     1       6.066   4.262  18.385  0.00  0.00    +0.000 OA
BRANCH  23  24
ATOM     24  C   UNL     1       4.696   4.144  18.422  0.00  0.00    +0.000 A 
ATOM     25  C   UNL     1       4.125   3.449  17.354  0.00  0.00    +0.000 A 
ATOM     26  C   UNL     1       2.741   3.297  17.278  0.00  0.00    +0.000 A 
ATOM     27  C   UNL     1       1.925   3.841  18.270  0.00  0.00    +0.000 A 
ATOM     28  C   UNL     1       2.496   4.497  19.359  0.00  0.00    +0.000 A 
ATOM     29  C   UNL     1       3.880   4.618  19.453  0.00  0.00    +0.000 A 
ENDBRANCH  23  24
ENDBRANCH  20  23
ENDBRANCH   3  17
TORSDOF 5
ENDMDL
MODEL 8
REMARK VINA RESULT:      -8.1      3.339      4.573
REMARK  Name = 
REMARK  5 active torsions:
REMARK  status: ('A' for Active; 'I' for Inactive)
REMARK    1  A    between atoms: C_2  and  C_17
REMARK    2  A    between atoms: N_3  and  C_4
REMARK    3  A    between atoms: C_7  and  O_8
REMARK    4  A    between atoms: O_8  and  C_9
REMARK    5  A    between atoms: C_25  and  O_26
REMARK                            x       y       z     vdW  Elec       q    Type
REMARK                         _______ _______ _______ _____ _____    ______ ____
ROOT
ATOM      1  O   UNL     1       1.363  11.146  21.402  0.00  0.00    +0.000 OA
ATOM      2  C   UNL     1       0.290  10.830  20.894  0.00  0.00    +0.000 C 
ATOM      3  N   UNL     1       0.094   9.828  19.965  0.00  0.00    +0.000 N 
ATOM      4  H   UNL     1      -0.825   9.798  19.529  0.00  0.00    +0.000 HD
ENDROOT
BRANCH   2   5
ATOM      5  C   UNL     1      -0.924  11.581  21.317  0.00  0.00    +0.000 A 
ATOM      6  C   UNL     1      -1.463  12.480  20.374  0.00  0.00    +0.000 A 
ATOM      7  C   UNL     1      -2.603  13.244  20.636  0.00  0.00    +0.000 A 
ATOM      8  C   UNL     1      -3.191  13.053  21.882  0.00  0.00    +0.000 A 
ATOM      9  N   UNL     1      -4.290  13.588  22.497  0.00  0.00    +0.000 N 
ATOM     10  N   UNL     1      -4.467  13.086  23.732  0.00  0.00    +0.000 NA
ATOM     11  N   UNL     1      -3.490  12.215  23.953  0.00  0.00    +0.000 NA
ATOM     12  C   UNL     1      -2.695  12.179  22.836  0.00  0.00    +0.000 A 
ATOM     13  C   UNL     1      -1.542  11.425  22.569  0.00  0.00    +0.000 A 
ATOM     14  H   UNL     1      -4.948  14.277  22.149  0.00  0.00    +0.000 HD
BRANCH  13  15
ATOM     15  O   UNL     1      -1.048  10.554  23.513  0.00  0.00    +0.000 OA
ATOM     16  H   UNL     1      -0.198  10.938  23.817  0.00  0.00    +0.000 HD
ENDBRANCH  13  15
ENDBRANCH   2   5
BRANCH   3  17
ATOM     17  C   UNL     1       1.057   8.924  19.489  0.00  0.00    +0.000 A 
ATOM     18  C   UNL     1       1.652   9.033  18.232  0.00  0.00    +0.000 A 
ATOM     19  C   UNL     1       2.623   8.118  17.824  0.00  0.00    +0.000 A 
ATOM     20  C   UNL     1       3.011   7.086  18.672  0.00  0.00    +0.000 A 
ATOM     21  C   UNL     1       2.375   6.933  19.908  0.00  0.00    +0.000 A 
ATOM     22  C   UNL     1       1.433   7.873  20.330  0.00  0.00    +0.000 A 
BRANCH  20  23
ATOM     23  O   UNL     1       3.978   6.243  18.185  0.00  0.00    +0.000 OA
BRANCH  23  24
ATOM     24  C   UNL     1       3.828   4.881  18.302  0.00  0.00    +0.000 A 
ATOM     25  C   UNL     1       2.895   4.304  17.440  0.00  0.00    +0.000 A 
ATOM     26  C   UNL     1       2.644   2.933  17.497  0.00  0.00    +0.000 A 
ATOM     27  C   UNL     1       3.326   2.138  18.416  0.00  0.00    +0.000 A 
ATOM     28  C   UNL     1       4.291   2.705  19.248  0.00  0.00    +0.000 A 
ATOM     29  C   UNL     1       4.567   4.068  19.166  0.00  0.00    +0.000 A 
ENDBRANCH  23  24
ENDBRANCH  20  23
ENDBRANCH   3  17
TORSDOF 5
ENDMDL
MODEL 9
REMARK VINA RESULT:      -8.1      2.251      3.563
REMARK  Name = 
REMARK  5 active torsions:
REMARK  status: ('A' for Active; 'I' for Inactive)
REMARK    1  A    between atoms: C_2  and  C_17
REMARK    2  A    between atoms: N_3  and  C_4
REMARK    3  A    between atoms: C_7  and  O_8
REMARK    4  A    between atoms: O_8  and  C_9
REMARK    5  A    between atoms: C_25  and  O_26
REMARK                            x       y       z     vdW  Elec       q    Type
REMARK                         _______ _______ _______ _____ _____    ______ ____
ROOT
ATOM      1  O   UNL     1       1.814   9.233  22.393  0.00  0.00    +0.000 OA
ATOM      2  C   UNL     1       1.092   9.547  21.450  0.00  0.00    +0.000 C 
ATOM      3  N   UNL     1       1.047   8.925  20.218  0.00  0.00    +0.000 N 
ATOM      4  H   UNL     1       0.511   9.402  19.497  0.00  0.00    +0.000 HD
ENDROOT
BRANCH   2   5
ATOM      5  C   UNL     1       0.164  10.696  21.640  0.00  0.00    +0.000 A 
ATOM      6  C   UNL     1       0.330  11.785  20.760  0.00  0.00    +0.000 A 
ATOM      7  C   UNL     1      -0.475  12.925  20.822  0.00  0.00    +0.000 A 
ATOM      8  C   UNL     1      -1.467  12.918  21.797  0.00  0.00    +0.000 A 
ATOM      9  N   UNL     1      -2.436  13.813  22.161  0.00  0.00    +0.000 N 
ATOM     10  N   UNL     1      -3.179  13.357  23.185  0.00  0.00    +0.000 NA
ATOM     11  N   UNL     1      -2.714  12.158  23.513  0.00  0.00    +0.000 NA
ATOM     12  C   UNL     1      -1.666  11.868  22.679  0.00  0.00    +0.000 A 
ATOM     13  C   UNL     1      -0.844  10.732  22.618  0.00  0.00    +0.000 A 
ATOM     14  H   UNL     1      -2.646  14.725  21.771  0.00  0.00    +0.000 HD
BRANCH  13  15
ATOM     15  O   UNL     1      -1.039   9.686  23.491  0.00  0.00    +0.000 OA
ATOM     16  H   UNL     1      -1.719   9.113  23.080  0.00  0.00    +0.000 HD
ENDBRANCH  13  15
ENDBRANCH   2   5
BRANCH   3  17
ATOM     17  C   UNL     1       1.746   7.769  19.835  0.00  0.00    +0.000 A 
ATOM     18  C   UNL     1       1.759   6.597  20.593  0.00  0.00    +0.000 A 
ATOM     19  C   UNL     1       2.450   5.471  20.148  0.00  0.00    +0.000 A 
ATOM     20  C   UNL     1       3.134   5.504  18.937  0.00  0.00    +0.000 A 
ATOM     21  C   UNL     1       3.177   6.692  18.201  0.00  0.00    +0.000 A 
ATOM     22  C   UNL     1       2.452   7.806  18.629  0.00  0.00    +0.000 A 
BRANCH  20  23
ATOM     23  O   UNL     1       3.775   4.344  18.581  0.00  0.00    +0.000 OA
BRANCH  23  24
ATOM     24  C   UNL     1       4.855   4.387  17.731  0.00  0.00    +0.000 A 
ATOM     25  C   UNL     1       6.085   4.647  18.337  0.00  0.00    +0.000 A 
ATOM     26  C   UNL     1       7.241   4.742  17.561  0.00  0.00    +0.000 A 
ATOM     27  C   UNL     1       7.167   4.576  16.179  0.00  0.00    +0.000 A 
ATOM     28  C   UNL     1       5.947   4.272  15.577  0.00  0.00    +0.000 A 
ATOM     29  C   UNL     1       4.799   4.143  16.356  0.00  0.00    +0.000 A 
ENDBRANCH  23  24
ENDBRANCH  20  23
ENDBRANCH   3  17
TORSDOF 5
ENDMDL
