MODEL 1
REMARK VINA RESULT:      -8.1      0.000      0.000
REMARK  Name = 
REMARK  9 active torsions:
REMARK  status: ('A' for Active; 'I' for Inactive)
REMARK    1  A    between atoms: C_4  and  C_5
REMARK    2  A    between atoms: C_18  and  O_19
REMARK    3  A    between atoms: O_19  and  C_20
REMARK    4  A    between atoms: C_20  and  C_21
REMARK    5  A    between atoms: C_21  and  N_22
REMARK    6  A    between atoms: N_22  and  C_23
REMARK    7  A    between atoms: C_23  and  C_24
REMARK    8  A    between atoms: C_24  and  O_25
REMARK    9  A    between atoms: C_27  and  O_28
REMARK                            x       y       z     vdW  Elec       q    Type
REMARK                         _______ _______ _______ _____ _____    ______ ____
ROOT
ATOM      1  O   UNL     1       2.097   4.020  21.631  0.00  0.00    +0.000 OA
ATOM      2  C   UNL     1       2.263   4.820  20.732  0.00  0.00    +0.000 A 
ATOM      3  C   UNL     1       1.763   6.190  20.909  0.00  0.00    +0.000 A 
ATOM      4  C   UNL     1       1.922   7.089  19.936  0.00  0.00    +0.000 A 
ATOM      5  O   UNL     1       2.553   6.832  18.728  0.00  0.00    +0.000 OA
ATOM      6  C   UNL     1       3.065   5.573  18.520  0.00  0.00    +0.000 A 
ATOM      7  C   UNL     1       3.733   5.353  17.307  0.00  0.00    +0.000 A 
ATOM      8  C   UNL     1       4.259   4.093  17.013  0.00  0.00    +0.000 A 
ATOM      9  C   UNL     1       4.135   3.060  17.944  0.00  0.00    +0.000 A 
ATOM     10  C   UNL     1       3.476   3.285  19.156  0.00  0.00    +0.000 A 
ATOM     11  C   UNL     1       2.944   4.538  19.452  0.00  0.00    +0.000 A 
ENDROOT
BRANCH   4  12
ATOM     12  C   UNL     1       1.399   8.458  20.105  0.00  0.00    +0.000 A 
ATOM     13  C   UNL     1       1.288   9.326  19.011  0.00  0.00    +0.000 A 
ATOM     14  C   UNL     1       0.753  10.606  19.173  0.00  0.00    +0.000 A 
ATOM     15  C   UNL     1       0.332  11.035  20.430  0.00  0.00    +0.000 A 
ATOM     16  C   UNL     1       0.425  10.173  21.526  0.00  0.00    +0.000 A 
ATOM     17  C   UNL     1       0.966   8.902  21.367  0.00  0.00    +0.000 A 
ATOM     18  O   UNL     1       0.010  10.510  22.789  0.00  0.00    +0.000 OA
ATOM     19  C   UNL     1      -0.824  11.670  22.777  0.00  0.00    +0.000 C 
ATOM     20  C   UNL     1      -0.247  12.749  21.876  0.00  0.00    +0.000 C 
ATOM     21  O   UNL     1      -0.179  12.302  20.516  0.00  0.00    +0.000 OA
ENDBRANCH   4  12
BRANCH  10  22
ATOM     22  O   UNL     1       3.361   2.246  20.036  0.00  0.00    +0.000 OA
ATOM     23  H   UNL     1       2.671   1.627  19.757  0.00  0.00    +0.000 HD
ENDBRANCH  10  22
BRANCH   8  24
ATOM     24  O   UNL     1       4.892   3.976  15.804  0.00  0.00    +0.000 OA
BRANCH  24  25
ATOM     25  C   UNL     1       5.642   5.122  15.384  0.00  0.00    +0.000 C 
BRANCH  25  26
ATOM     26  C   UNL     1       7.130   4.929  15.707  0.00  0.00    +0.000 C 
BRANCH  26  27
ATOM     27  N   UNL     1       7.531   5.789  16.829  0.00  0.00    +0.000 NA
ATOM     28  H   UNL     1       6.843   6.529  16.946  0.00  0.00    +0.000 HD
BRANCH  27  29
ATOM     29  C   UNL     1       7.666   5.016  18.067  0.00  0.00    +0.000 C 
BRANCH  29  30
ATOM     30  C   UNL     1       7.602   5.936  19.292  0.00  0.00    +0.000 C 
BRANCH  30  31
ATOM     31  O   UNL     1       8.073   5.260  20.456  0.00  0.00    +0.000 OA
ATOM     32  H   UNL     1       8.757   4.637  20.156  0.00  0.00    +0.000 HD
ENDBRANCH  30  31
ENDBRANCH  29  30
ENDBRANCH  27  29
ENDBRANCH  26  27
ENDBRANCH  25  26
ENDBRANCH  24  25
ENDBRANCH   8  24
TORSDOF 9
ENDMDL
MODEL 2
REMARK VINA RESULT:      -7.9      0.925      1.590
REMARK  Name = 
REMARK  9 active torsions:
REMARK  status: ('A' for Active; 'I' for Inactive)
REMARK    1  A    between atoms: C_4  and  C_5
REMARK    2  A    between atoms: C_18  and  O_19
REMARK    3  A    between atoms: O_19  and  C_20
REMARK    4  A    between atoms: C_20  and  C_21
REMARK    5  A    between atoms: C_21  and  N_22
REMARK    6  A    between atoms: N_22  and  C_23
REMARK    7  A    between atoms: C_23  and  C_24
REMARK    8  A    between atoms: C_24  and  O_25
REMARK    9  A    between atoms: C_27  and  O_28
REMARK                            x       y       z     vdW  Elec       q    Type
REMARK                         _______ _______ _______ _____ _____    ______ ____
ROOT
ATOM      1  O   UNL     1       1.375   3.415  20.921  0.00  0.00    +0.000 OA
ATOM      2  C   UNL     1       1.785   4.362  20.280  0.00  0.00    +0.000 A 
ATOM      3  C   UNL     1       1.402   5.716  20.703  0.00  0.00    +0.000 A 
ATOM      4  C   UNL     1       1.828   6.776  20.014  0.00  0.00    +0.000 A 
ATOM      5  O   UNL     1       2.641   6.706  18.894  0.00  0.00    +0.000 OA
ATOM      6  C   UNL     1       3.053   5.464  18.468  0.00  0.00    +0.000 A 
ATOM      7  C   UNL     1       3.907   5.426  17.357  0.00  0.00    +0.000 A 
ATOM      8  C   UNL     1       4.348   4.200  16.852  0.00  0.00    +0.000 A 
ATOM      9  C   UNL     1       3.950   3.015  17.474  0.00  0.00    +0.000 A 
ATOM     10  C   UNL     1       3.105   3.058  18.586  0.00  0.00    +0.000 A 
ATOM     11  C   UNL     1       2.658   4.277  19.091  0.00  0.00    +0.000 A 
ENDROOT
BRANCH   4  12
ATOM     12  C   UNL     1       1.425   8.134  20.427  0.00  0.00    +0.000 A 
ATOM     13  C   UNL     1       1.207   8.440  21.777  0.00  0.00    +0.000 A 
ATOM     14  C   UNL     1       0.868   9.739  22.163  0.00  0.00    +0.000 A 
ATOM     15  C   UNL     1       0.732  10.740  21.205  0.00  0.00    +0.000 A 
ATOM     16  C   UNL     1       0.960  10.451  19.858  0.00  0.00    +0.000 A 
ATOM     17  C   UNL     1       1.290   9.156  19.471  0.00  0.00    +0.000 A 
ATOM     18  O   UNL     1       0.871  11.385  18.857  0.00  0.00    +0.000 OA
ATOM     19  C   UNL     1       0.870  12.716  19.380  0.00  0.00    +0.000 C 
ATOM     20  C   UNL     1      -0.053  12.829  20.582  0.00  0.00    +0.000 C 
ATOM     21  O   UNL     1       0.393  11.989  21.654  0.00  0.00    +0.000 OA
ENDBRANCH   4  12
BRANCH  10  22
ATOM     22  O   UNL     1       2.726   1.877  19.160  0.00  0.00    +0.000 OA
ATOM     23  H   UNL     1       1.953   1.999  19.731  0.00  0.00    +0.000 HD
ENDBRANCH  10  22
BRANCH   8  24
ATOM     24  O   UNL     1       5.177   4.265  15.764  0.00  0.00    +0.000 OA
BRANCH  24  25
ATOM     25  C   UNL     1       5.895   5.494  15.605  0.00  0.00    +0.000 C 
BRANCH  25  26
ATOM     26  C   UNL     1       7.189   5.462  16.429  0.00  0.00    +0.000 C 
BRANCH  26  27
ATOM     27  N   UNL     1       7.570   6.819  16.848  0.00  0.00    +0.000 NA
ATOM     28  H   UNL     1       6.820   7.464  16.613  0.00  0.00    +0.000 HD
BRANCH  27  29
ATOM     29  C   UNL     1       7.856   6.869  18.284  0.00  0.00    +0.000 C 
BRANCH  29  30
ATOM     30  C   UNL     1       7.363   5.596  18.981  0.00  0.00    +0.000 C 
BRANCH  30  31
ATOM     31  O   UNL     1       7.847   5.533  20.321  0.00  0.00    +0.000 OA
ATOM     32  H   UNL     1       8.645   4.977  20.301  0.00  0.00    +0.000 HD
ENDBRANCH  30  31
ENDBRANCH  29  30
ENDBRANCH  27  29
ENDBRANCH  26  27
ENDBRANCH  25  26
ENDBRANCH  24  25
ENDBRANCH   8  24
TORSDOF 9
ENDMDL
MODEL 3
REMARK VINA RESULT:      -7.6      1.301      1.821
REMARK  Name = 
REMARK  9 active torsions:
REMARK  status: ('A' for Active; 'I' for Inactive)
REMARK    1  A    between atoms: C_4  and  C_5
REMARK    2  A    between atoms: C_18  and  O_19
REMARK    3  A    between atoms: O_19  and  C_20
REMARK    4  A    between atoms: C_20  and  C_21
REMARK    5  A    between atoms: C_21  and  N_22
REMARK    6  A    between atoms: N_22  and  C_23
REMARK    7  A    between atoms: C_23  and  C_24
REMARK    8  A    between atoms: C_24  and  O_25
REMARK    9  A    between atoms: C_27  and  O_28
REMARK                            x       y       z     vdW  Elec       q    Type
REMARK                         _______ _______ _______ _____ _____    ______ ____
ROOT
ATOM      1  O   UNL     1       1.654   3.529  20.851  0.00  0.00    +0.000 OA
ATOM      2  C   UNL     1       1.988   4.520  20.233  0.00  0.00    +0.000 A 
ATOM      3  C   UNL     1       1.528   5.832  20.706  0.00  0.00    +0.000 A 
ATOM      4  C   UNL     1       1.870   6.938  20.043  0.00  0.00    +0.000 A 
ATOM      5  O   UNL     1       2.663   6.955  18.906  0.00  0.00    +0.000 OA
ATOM      6  C   UNL     1       3.145   5.756  18.433  0.00  0.00    +0.000 A 
ATOM      7  C   UNL     1       3.976   5.808  17.306  0.00  0.00    +0.000 A 
ATOM      8  C   UNL     1       4.483   4.629  16.753  0.00  0.00    +0.000 A 
ATOM      9  C   UNL     1       4.176   3.402  17.345  0.00  0.00    +0.000 A 
ATOM     10  C   UNL     1       3.354   3.356  18.474  0.00  0.00    +0.000 A 
ATOM     11  C   UNL     1       2.840   4.528  19.026  0.00  0.00    +0.000 A 
ENDROOT
BRANCH   4  12
ATOM     12  C   UNL     1       1.390   8.254  20.507  0.00  0.00    +0.000 A 
ATOM     13  C   UNL     1       1.104   8.479  21.861  0.00  0.00    +0.000 A 
ATOM     14  C   UNL     1       0.691   9.740  22.297  0.00  0.00    +0.000 A 
ATOM     15  C   UNL     1       0.549  10.784  21.386  0.00  0.00    +0.000 A 
ATOM     16  C   UNL     1       0.844  10.575  20.037  0.00  0.00    +0.000 A 
ATOM     17  C   UNL     1       1.248   9.318  19.600  0.00  0.00    +0.000 A 
ATOM     18  O   UNL     1       0.753  11.556  19.082  0.00  0.00    +0.000 OA
ATOM     19  C   UNL     1       0.671  12.856  19.671  0.00  0.00    +0.000 C 
ATOM     20  C   UNL     1      -0.304  12.867  20.837  0.00  0.00    +0.000 C 
ATOM     21  O   UNL     1       0.136  11.991  21.882  0.00  0.00    +0.000 OA
ENDBRANCH   4  12
BRANCH  10  22
ATOM     22  O   UNL     1       3.063   2.136  19.017  0.00  0.00    +0.000 OA
ATOM     23  H   UNL     1       2.106   2.002  19.081  0.00  0.00    +0.000 HD
ENDBRANCH  10  22
BRANCH   8  24
ATOM     24  O   UNL     1       5.284   4.781  15.653  0.00  0.00    +0.000 OA
BRANCH  24  25
ATOM     25  C   UNL     1       6.585   4.189  15.747  0.00  0.00    +0.000 C 
BRANCH  25  26
ATOM     26  C   UNL     1       7.361   4.801  16.921  0.00  0.00    +0.000 C 
BRANCH  26  27
ATOM     27  N   UNL     1       7.533   6.249  16.729  0.00  0.00    +0.000 NA
ATOM     28  H   UNL     1       6.733   6.615  16.220  0.00  0.00    +0.000 HD
BRANCH  27  29
ATOM     29  C   UNL     1       7.681   6.939  18.013  0.00  0.00    +0.000 C 
BRANCH  29  30
ATOM     30  C   UNL     1       8.055   8.410  17.800  0.00  0.00    +0.000 C 
BRANCH  30  31
ATOM     31  O   UNL     1       8.785   8.913  18.918  0.00  0.00    +0.000 OA
ATOM     32  H   UNL     1       9.677   9.124  18.592  0.00  0.00    +0.000 HD
ENDBRANCH  30  31
ENDBRANCH  29  30
ENDBRANCH  27  29
ENDBRANCH  26  27
ENDBRANCH  25  26
ENDBRANCH  24  25
ENDBRANCH   8  24
TORSDOF 9
ENDMDL
MODEL 4
REMARK VINA RESULT:      -7.5      1.352      1.875
REMARK  Name = 
REMARK  9 active torsions:
REMARK  status: ('A' for Active; 'I' for Inactive)
REMARK    1  A    between atoms: C_4  and  C_5
REMARK    2  A    between atoms: C_18  and  O_19
REMARK    3  A    between atoms: O_19  and  C_20
REMARK    4  A    between atoms: C_20  and  C_21
REMARK    5  A    between atoms: C_21  and  N_22
REMARK    6  A    between atoms: N_22  and  C_23
REMARK    7  A    between atoms: C_23  and  C_24
REMARK    8  A    between atoms: C_24  and  O_25
REMARK    9  A    between atoms: C_27  and  O_28
REMARK                            x       y       z     vdW  Elec       q    Type
REMARK                         _______ _______ _______ _____ _____    ______ ____
ROOT
ATOM      1  O   UNL     1       1.117   3.298  21.015  0.00  0.00    +0.000 OA
ATOM      2  C   UNL     1       1.579   4.192  20.335  0.00  0.00    +0.000 A 
ATOM      3  C   UNL     1       1.290   5.583  20.710  0.00  0.00    +0.000 A 
ATOM      4  C   UNL     1       1.776   6.587  19.977  0.00  0.00    +0.000 A 
ATOM      5  O   UNL     1       2.569   6.422  18.852  0.00  0.00    +0.000 OA
ATOM      6  C   UNL     1       2.894   5.140  18.470  0.00  0.00    +0.000 A 
ATOM      7  C   UNL     1       3.730   5.005  17.353  0.00  0.00    +0.000 A 
ATOM      8  C   UNL     1       4.084   3.735  16.891  0.00  0.00    +0.000 A 
ATOM      9  C   UNL     1       3.617   2.603  17.561  0.00  0.00    +0.000 A 
ATOM     10  C   UNL     1       2.791   2.742  18.680  0.00  0.00    +0.000 A 
ATOM     11  C   UNL     1       2.431   4.006  19.142  0.00  0.00    +0.000 A 
ENDROOT
BRANCH   4  12
ATOM     12  C   UNL     1       1.467   7.982  20.342  0.00  0.00    +0.000 A 
ATOM     13  C   UNL     1       1.246   8.344  21.678  0.00  0.00    +0.000 A 
ATOM     14  C   UNL     1       0.997   9.676  22.018  0.00  0.00    +0.000 A 
ATOM     15  C   UNL     1       0.956  10.655  21.030  0.00  0.00    +0.000 A 
ATOM     16  C   UNL     1       1.188  10.309  19.696  0.00  0.00    +0.000 A 
ATOM     17  C   UNL     1       1.428   8.982  19.355  0.00  0.00    +0.000 A 
ATOM     18  O   UNL     1       1.190  11.217  18.668  0.00  0.00    +0.000 OA
ATOM     19  C   UNL     1       1.277  12.559  19.152  0.00  0.00    +0.000 C 
ATOM     20  C   UNL     1       0.342  12.777  20.330  0.00  0.00    +0.000 C 
ATOM     21  O   UNL     1       0.702  11.938  21.435  0.00  0.00    +0.000 OA
ENDBRANCH   4  12
BRANCH  10  22
ATOM     22  O   UNL     1       2.343   1.611  19.301  0.00  0.00    +0.000 OA
ATOM     23  H   UNL     1       1.611   1.810  19.904  0.00  0.00    +0.000 HD
ENDBRANCH  10  22
BRANCH   8  24
ATOM     24  O   UNL     1       4.903   3.705  15.793  0.00  0.00    +0.000 OA
BRANCH  24  25
ATOM     25  C   UNL     1       5.315   4.982  15.293  0.00  0.00    +0.000 C 
BRANCH  25  26
ATOM     26  C   UNL     1       6.794   4.937  14.885  0.00  0.00    +0.000 C 
BRANCH  26  27
ATOM     27  N   UNL     1       7.591   5.839  15.729  0.00  0.00    +0.000 NA
ATOM     28  H   UNL     1       7.360   6.803  15.500  0.00  0.00    +0.000 HD
BRANCH  27  29
ATOM     29  C   UNL     1       7.352   5.581  17.151  0.00  0.00    +0.000 C 
BRANCH  29  30
ATOM     30  C   UNL     1       7.389   6.886  17.954  0.00  0.00    +0.000 C 
BRANCH  30  31
ATOM     31  O   UNL     1       7.708   7.991  17.110  0.00  0.00    +0.000 OA
ATOM     32  H   UNL     1       8.424   8.478  17.552  0.00  0.00    +0.000 HD
ENDBRANCH  30  31
ENDBRANCH  29  30
ENDBRANCH  27  29
ENDBRANCH  26  27
ENDBRANCH  25  26
ENDBRANCH  24  25
ENDBRANCH   8  24
TORSDOF 9
ENDMDL
MODEL 5
REMARK VINA RESULT:      -7.4      1.957      3.344
REMARK  Name = 
REMARK  9 active torsions:
REMARK  status: ('A' for Active; 'I' for Inactive)
REMARK    1  A    between atoms: C_4  and  C_5
REMARK    2  A    between atoms: C_18  and  O_19
REMARK    3  A    between atoms: O_19  and  C_20
REMARK    4  A    between atoms: C_20  and  C_21
REMARK    5  A    between atoms: C_21  and  N_22
REMARK    6  A    between atoms: N_22  and  C_23
REMARK    7  A    between atoms: C_23  and  C_24
REMARK    8  A    between atoms: C_24  and  O_25
REMARK    9  A    between atoms: C_27  and  O_28
REMARK                            x       y       z     vdW  Elec       q    Type
REMARK                         _______ _______ _______ _____ _____    ______ ____
ROOT
ATOM      1  O   UNL     1       1.999   3.744  20.161  0.00  0.00    +0.000 OA
ATOM      2  C   UNL     1       2.307   4.837  19.728  0.00  0.00    +0.000 A 
ATOM      3  C   UNL     1       1.702   6.030  20.335  0.00  0.00    +0.000 A 
ATOM      4  C   UNL     1       2.012   7.243  19.876  0.00  0.00    +0.000 A 
ATOM      5  O   UNL     1       2.901   7.484  18.839  0.00  0.00    +0.000 OA
ATOM      6  C   UNL     1       3.519   6.404  18.251  0.00  0.00    +0.000 A 
ATOM      7  C   UNL     1       4.442   6.679  17.233  0.00  0.00    +0.000 A 
ATOM      8  C   UNL     1       5.091   5.633  16.572  0.00  0.00    +0.000 A 
ATOM      9  C   UNL     1       4.831   4.314  16.948  0.00  0.00    +0.000 A 
ATOM     10  C   UNL     1       3.916   4.044  17.969  0.00  0.00    +0.000 A 
ATOM     11  C   UNL     1       3.262   5.083  18.628  0.00  0.00    +0.000 A 
ENDROOT
BRANCH   4  12
ATOM     12  C   UNL     1       1.387   8.439  20.471  0.00  0.00    +0.000 A 
ATOM     13  C   UNL     1       1.141   8.512  21.850  0.00  0.00    +0.000 A 
ATOM     14  C   UNL     1       0.588   9.665  22.410  0.00  0.00    +0.000 A 
ATOM     15  C   UNL     1       0.266  10.752  21.601  0.00  0.00    +0.000 A 
ATOM     16  C   UNL     1       0.519  10.697  20.229  0.00  0.00    +0.000 A 
ATOM     17  C   UNL     1       1.062   9.546  19.667  0.00  0.00    +0.000 A 
ATOM     18  O   UNL     1       0.254  11.732  19.368  0.00  0.00    +0.000 OA
ATOM     19  C   UNL     1       0.031  12.956  20.072  0.00  0.00    +0.000 C 
ATOM     20  C   UNL     1      -0.878  12.739  21.270  0.00  0.00    +0.000 C 
ATOM     21  O   UNL     1      -0.277  11.847  22.218  0.00  0.00    +0.000 OA
ENDBRANCH   4  12
BRANCH  10  22
ATOM     22  O   UNL     1       3.677   2.740  18.299  0.00  0.00    +0.000 OA
ATOM     23  H   UNL     1       2.755   2.611  18.566  0.00  0.00    +0.000 HD
ENDBRANCH  10  22
BRANCH   8  24
ATOM     24  O   UNL     1       5.973   6.001  15.592  0.00  0.00    +0.000 OA
BRANCH  24  25
ATOM     25  C   UNL     1       6.972   5.029  15.260  0.00  0.00    +0.000 C 
BRANCH  25  26
ATOM     26  C   UNL     1       6.963   4.756  13.750  0.00  0.00    +0.000 C 
BRANCH  26  27
ATOM     27  N   UNL     1       6.270   3.493  13.456  0.00  0.00    +0.000 NA
ATOM     28  H   UNL     1       5.280   3.599  13.664  0.00  0.00    +0.000 HD
BRANCH  27  29
ATOM     29  C   UNL     1       6.459   3.099  12.057  0.00  0.00    +0.000 C 
BRANCH  29  30
ATOM     30  C   UNL     1       5.185   2.458  11.496  0.00  0.00    +0.000 C 
BRANCH  30  31
ATOM     31  O   UNL     1       4.133   3.417  11.407  0.00  0.00    +0.000 OA
ATOM     32  H   UNL     1       4.038   3.805  12.294  0.00  0.00    +0.000 HD
ENDBRANCH  30  31
ENDBRANCH  29  30
ENDBRANCH  27  29
ENDBRANCH  26  27
ENDBRANCH  25  26
ENDBRANCH  24  25
ENDBRANCH   8  24
TORSDOF 9
ENDMDL
MODEL 6
REMARK VINA RESULT:      -7.4      1.762      2.895
REMARK  Name = 
REMARK  9 active torsions:
REMARK  status: ('A' for Active; 'I' for Inactive)
REMARK    1  A    between atoms: C_4  and  C_5
REMARK    2  A    between atoms: C_18  and  O_19
REMARK    3  A    between atoms: O_19  and  C_20
REMARK    4  A    between atoms: C_20  and  C_21
REMARK    5  A    between atoms: C_21  and  N_22
REMARK    6  A    between atoms: N_22  and  C_23
REMARK    7  A    between atoms: C_23  and  C_24
REMARK    8  A    between atoms: C_24  and  O_25
REMARK    9  A    between atoms: C_27  and  O_28
REMARK                            x       y       z     vdW  Elec       q    Type
REMARK                         _______ _______ _______ _____ _____    ______ ____
ROOT
ATOM      1  O   UNL     1       2.168   4.486  21.198  0.00  0.00    +0.000 OA
ATOM      2  C   UNL     1       2.307   5.426  20.441  0.00  0.00    +0.000 A 
ATOM      3  C   UNL     1       1.638   6.693  20.765  0.00  0.00    +0.000 A 
ATOM      4  C   UNL     1       1.763   7.741  19.949  0.00  0.00    +0.000 A 
ATOM      5  O   UNL     1       2.508   7.738  18.780  0.00  0.00    +0.000 OA
ATOM      6  C   UNL     1       3.179   6.585  18.441  0.00  0.00    +0.000 A 
ATOM      7  C   UNL     1       3.956   6.623  17.275  0.00  0.00    +0.000 A 
ATOM      8  C   UNL     1       4.646   5.484  16.854  0.00  0.00    +0.000 A 
ATOM      9  C   UNL     1       4.574   4.314  17.613  0.00  0.00    +0.000 A 
ATOM     10  C   UNL     1       3.805   4.283  18.779  0.00  0.00    +0.000 A 
ATOM     11  C   UNL     1       3.110   5.415  19.201  0.00  0.00    +0.000 A 
ENDROOT
BRANCH   4  12
ATOM     12  C   UNL     1       1.073   9.007  20.263  0.00  0.00    +0.000 A 
ATOM     13  C   UNL     1       0.777   9.934  19.255  0.00  0.00    +0.000 A 
ATOM     14  C   UNL     1       0.085  11.110  19.556  0.00  0.00    +0.000 A 
ATOM     15  C   UNL     1      -0.307  11.376  20.865  0.00  0.00    +0.000 A 
ATOM     16  C   UNL     1      -0.030  10.453  21.876  0.00  0.00    +0.000 A 
ATOM     17  C   UNL     1       0.666   9.285  21.579  0.00  0.00    +0.000 A 
ATOM     18  O   UNL     1      -0.404  10.628  23.184  0.00  0.00    +0.000 OA
ATOM     19  C   UNL     1      -1.387  11.658  23.316  0.00  0.00    +0.000 C 
ATOM     20  C   UNL     1      -1.018  12.874  22.483  0.00  0.00    +0.000 C 
ATOM     21  O   UNL     1      -0.977  12.549  21.088  0.00  0.00    +0.000 OA
ENDBRANCH   4  12
BRANCH  10  22
ATOM     22  O   UNL     1       3.747   3.116  19.488  0.00  0.00    +0.000 OA
ATOM     23  H   UNL     1       4.413   3.102  20.191  0.00  0.00    +0.000 HD
ENDBRANCH  10  22
BRANCH   8  24
ATOM     24  O   UNL     1       5.377   5.618  15.704  0.00  0.00    +0.000 OA
BRANCH  24  25
ATOM     25  C   UNL     1       6.764   5.279  15.808  0.00  0.00    +0.000 C 
BRANCH  25  26
ATOM     26  C   UNL     1       7.180   4.384  14.632  0.00  0.00    +0.000 C 
BRANCH  26  27
ATOM     27  N   UNL     1       6.015   4.045  13.803  0.00  0.00    +0.000 NA
ATOM     28  H   UNL     1       5.379   4.838  13.780  0.00  0.00    +0.000 HD
BRANCH  27  29
ATOM     29  C   UNL     1       6.421   3.676  12.444  0.00  0.00    +0.000 C 
BRANCH  29  30
ATOM     30  C   UNL     1       5.387   2.747  11.800  0.00  0.00    +0.000 C 
BRANCH  30  31
ATOM     31  O   UNL     1       5.934   1.447  11.593  0.00  0.00    +0.000 OA
ATOM     32  H   UNL     1       5.319   0.819  12.009  0.00  0.00    +0.000 HD
ENDBRANCH  30  31
ENDBRANCH  29  30
ENDBRANCH  27  29
ENDBRANCH  26  27
ENDBRANCH  25  26
ENDBRANCH  24  25
ENDBRANCH   8  24
TORSDOF 9
ENDMDL
MODEL 7
REMARK VINA RESULT:      -7.4      1.827      3.142
REMARK  Name = 
REMARK  9 active torsions:
REMARK  status: ('A' for Active; 'I' for Inactive)
REMARK    1  A    between atoms: C_4  and  C_5
REMARK    2  A    between atoms: C_18  and  O_19
REMARK    3  A    between atoms: O_19  and  C_20
REMARK    4  A    between atoms: C_20  and  C_21
REMARK    5  A    between atoms: C_21  and  N_22
REMARK    6  A    between atoms: N_22  and  C_23
REMARK    7  A    between atoms: C_23  and  C_24
REMARK    8  A    between atoms: C_24  and  O_25
REMARK    9  A    between atoms: C_27  and  O_28
REMARK                            x       y       z     vdW  Elec       q    Type
REMARK                         _______ _______ _______ _____ _____    ______ ____
ROOT
ATOM      1  O   UNL     1       1.862   3.676  21.396  0.00  0.00    +0.000 OA
ATOM      2  C   UNL     1       2.090   4.601  20.642  0.00  0.00    +0.000 A 
ATOM      3  C   UNL     1       1.632   5.945  21.019  0.00  0.00    +0.000 A 
ATOM      4  C   UNL     1       1.858   6.980  20.208  0.00  0.00    +0.000 A 
ATOM      5  O   UNL     1       2.525   6.892  18.995  0.00  0.00    +0.000 OA
ATOM      6  C   UNL     1       3.000   5.661  18.604  0.00  0.00    +0.000 A 
ATOM      7  C   UNL     1       3.704   5.610  17.394  0.00  0.00    +0.000 A 
ATOM      8  C   UNL     1       4.195   4.391  16.919  0.00  0.00    +0.000 A 
ATOM      9  C   UNL     1       4.000   3.230  17.668  0.00  0.00    +0.000 A 
ATOM     10  C   UNL     1       3.305   3.287  18.879  0.00  0.00    +0.000 A 
ATOM     11  C   UNL     1       2.808   4.498  19.355  0.00  0.00    +0.000 A 
ENDROOT
BRANCH   4  12
ATOM     12  C   UNL     1       1.379   8.325  20.578  0.00  0.00    +0.000 A 
ATOM     13  C   UNL     1       1.103   8.649  21.913  0.00  0.00    +0.000 A 
ATOM     14  C   UNL     1       0.691   9.938  22.259  0.00  0.00    +0.000 A 
ATOM     15  C   UNL     1       0.540  10.912  21.275  0.00  0.00    +0.000 A 
ATOM     16  C   UNL     1       0.826  10.605  19.943  0.00  0.00    +0.000 A 
ATOM     17  C   UNL     1       1.228   9.320  19.596  0.00  0.00    +0.000 A 
ATOM     18  O   UNL     1       0.727  11.513  18.919  0.00  0.00    +0.000 OA
ATOM     19  C   UNL     1       0.646  12.853  19.412  0.00  0.00    +0.000 C 
ATOM     20  C   UNL     1      -0.320  12.948  20.581  0.00  0.00    +0.000 C 
ATOM     21  O   UNL     1       0.129  12.152  21.685  0.00  0.00    +0.000 OA
ENDBRANCH   4  12
BRANCH  10  22
ATOM     22  O   UNL     1       3.121   2.127  19.578  0.00  0.00    +0.000 OA
ATOM     23  H   UNL     1       3.768   2.045  20.294  0.00  0.00    +0.000 HD
ENDBRANCH  10  22
BRANCH   8  24
ATOM     24  O   UNL     1       4.868   4.441  15.727  0.00  0.00    +0.000 OA
BRANCH  24  25
ATOM     25  C   UNL     1       6.216   4.920  15.796  0.00  0.00    +0.000 C 
BRANCH  25  26
ATOM     26  C   UNL     1       6.959   4.602  14.491  0.00  0.00    +0.000 C 
BRANCH  26  27
ATOM     27  N   UNL     1       6.378   3.418  13.841  0.00  0.00    +0.000 NA
ATOM     28  H   UNL     1       5.479   3.210  14.268  0.00  0.00    +0.000 HD
BRANCH  27  29
ATOM     29  C   UNL     1       6.221   3.631  12.400  0.00  0.00    +0.000 C 
BRANCH  29  30
ATOM     30  C   UNL     1       5.892   2.313  11.689  0.00  0.00    +0.000 C 
BRANCH  30  31
ATOM     31  O   UNL     1       7.079   1.564  11.437  0.00  0.00    +0.000 OA
ATOM     32  H   UNL     1       7.060   1.324  10.495  0.00  0.00    +0.000 HD
ENDBRANCH  30  31
ENDBRANCH  29  30
ENDBRANCH  27  29
ENDBRANCH  26  27
ENDBRANCH  25  26
ENDBRANCH  24  25
ENDBRANCH   8  24
TORSDOF 9
ENDMDL
MODEL 8
REMARK VINA RESULT:      -7.4      1.336      1.462
REMARK  Name = 
REMARK  9 active torsions:
REMARK  status: ('A' for Active; 'I' for Inactive)
REMARK    1  A    between atoms: C_4  and  C_5
REMARK    2  A    between atoms: C_18  and  O_19
REMARK    3  A    between atoms: O_19  and  C_20
REMARK    4  A    between atoms: C_20  and  C_21
REMARK    5  A    between atoms: C_21  and  N_22
REMARK    6  A    between atoms: N_22  and  C_23
REMARK    7  A    between atoms: C_23  and  C_24
REMARK    8  A    between atoms: C_24  and  O_25
REMARK    9  A    between atoms: C_27  and  O_28
REMARK                            x       y       z     vdW  Elec       q    Type
REMARK                         _______ _______ _______ _____ _____    ______ ____
ROOT
ATOM      1  O   UNL     1       0.721   3.654  20.468  0.00  0.00    +0.000 OA
ATOM      2  C   UNL     1       1.454   4.602  20.266  0.00  0.00    +0.000 A 
ATOM      3  C   UNL     1       0.935   5.955  20.502  0.00  0.00    +0.000 A 
ATOM      4  C   UNL     1       1.713   7.017  20.281  0.00  0.00    +0.000 A 
ATOM      5  O   UNL     1       3.024   6.947  19.837  0.00  0.00    +0.000 OA
ATOM      6  C   UNL     1       3.571   5.702  19.625  0.00  0.00    +0.000 A 
ATOM      7  C   UNL     1       4.912   5.660  19.216  0.00  0.00    +0.000 A 
ATOM      8  C   UNL     1       5.529   4.434  18.957  0.00  0.00    +0.000 A 
ATOM      9  C   UNL     1       4.809   3.250  19.131  0.00  0.00    +0.000 A 
ATOM     10  C   UNL     1       3.476   3.295  19.547  0.00  0.00    +0.000 A 
ATOM     11  C   UNL     1       2.854   4.516  19.801  0.00  0.00    +0.000 A 
ENDROOT
BRANCH   4  12
ATOM     12  C   UNL     1       1.183   8.376  20.497  0.00  0.00    +0.000 A 
ATOM     13  C   UNL     1       1.184   9.322  19.463  0.00  0.00    +0.000 A 
ATOM     14  C   UNL     1       0.642  10.593  19.665  0.00  0.00    +0.000 A 
ATOM     15  C   UNL     1       0.103  10.936  20.903  0.00  0.00    +0.000 A 
ATOM     16  C   UNL     1       0.083   9.997  21.937  0.00  0.00    +0.000 A 
ATOM     17  C   UNL     1       0.631   8.734  21.740  0.00  0.00    +0.000 A 
ATOM     18  O   UNL     1      -0.451  10.247  23.176  0.00  0.00    +0.000 OA
ATOM     19  C   UNL     1      -1.274  11.415  23.166  0.00  0.00    +0.000 C 
ATOM     20  C   UNL     1      -0.606  12.549  22.407  0.00  0.00    +0.000 C 
ATOM     21  O   UNL     1      -0.408  12.200  21.031  0.00  0.00    +0.000 OA
ENDBRANCH   4  12
BRANCH  10  22
ATOM     22  O   UNL     1       2.800   2.117  19.692  0.00  0.00    +0.000 OA
ATOM     23  H   UNL     1       2.206   1.961  18.943  0.00  0.00    +0.000 HD
ENDBRANCH  10  22
BRANCH   8  24
ATOM     24  O   UNL     1       6.838   4.496  18.562  0.00  0.00    +0.000 OA
BRANCH  24  25
ATOM     25  C   UNL     1       7.073   4.292  17.163  0.00  0.00    +0.000 C 
BRANCH  25  26
ATOM     26  C   UNL     1       6.542   5.486  16.358  0.00  0.00    +0.000 C 
BRANCH  26  27
ATOM     27  N   UNL     1       7.515   6.588  16.362  0.00  0.00    +0.000 NA
ATOM     28  H   UNL     1       7.611   6.952  15.418  0.00  0.00    +0.000 HD
BRANCH  27  29
ATOM     29  C   UNL     1       7.104   7.653  17.281  0.00  0.00    +0.000 C 
BRANCH  29  30
ATOM     30  C   UNL     1       8.216   7.960  18.289  0.00  0.00    +0.000 C 
BRANCH  30  31
ATOM     31  O   UNL     1       8.404   6.866  19.185  0.00  0.00    +0.000 OA
ATOM     32  H   UNL     1       9.360   6.808  19.352  0.00  0.00    +0.000 HD
ENDBRANCH  30  31
ENDBRANCH  29  30
ENDBRANCH  27  29
ENDBRANCH  26  27
ENDBRANCH  25  26
ENDBRANCH  24  25
ENDBRANCH   8  24
TORSDOF 9
ENDMDL
MODEL 9
REMARK VINA RESULT:      -7.3      1.151      1.178
REMARK  Name = 
REMARK  9 active torsions:
REMARK  status: ('A' for Active; 'I' for Inactive)
REMARK    1  A    between atoms: C_4  and  C_5
REMARK    2  A    between atoms: C_18  and  O_19
REMARK    3  A    between atoms: O_19  and  C_20
REMARK    4  A    between atoms: C_20  and  C_21
REMARK    5  A    between atoms: C_21  and  N_22
REMARK    6  A    between atoms: N_22  and  C_23
REMARK    7  A    between atoms: C_23  and  C_24
REMARK    8  A    between atoms: C_24  and  O_25
REMARK    9  A    between atoms: C_27  and  O_28
REMARK                            x       y       z     vdW  Elec       q    Type
REMARK                         _______ _______ _______ _____ _____    ______ ____
ROOT
ATOM      1  O   UNL     1       1.733   4.033  21.449  0.00  0.00    +0.000 OA
ATOM      2  C   UNL     1       2.026   4.885  20.633  0.00  0.00    +0.000 A 
ATOM      3  C   UNL     1       1.523   6.251  20.834  0.00  0.00    +0.000 A 
ATOM      4  C   UNL     1       1.819   7.207  19.951  0.00  0.00    +0.000 A 
ATOM      5  O   UNL     1       2.599   7.014  18.821  0.00  0.00    +0.000 OA
ATOM      6  C   UNL     1       3.119   5.760  18.598  0.00  0.00    +0.000 A 
ATOM      7  C   UNL     1       3.936   5.604  17.470  0.00  0.00    +0.000 A 
ATOM      8  C   UNL     1       4.480   4.354  17.164  0.00  0.00    +0.000 A 
ATOM      9  C   UNL     1       4.222   3.267  18.001  0.00  0.00    +0.000 A 
ATOM     10  C   UNL     1       3.414   3.428  19.129  0.00  0.00    +0.000 A 
ATOM     11  C   UNL     1       2.864   4.671  19.436  0.00  0.00    +0.000 A 
ENDROOT
BRANCH   4  12
ATOM     12  C   UNL     1       1.296   8.573  20.141  0.00  0.00    +0.000 A 
ATOM     13  C   UNL     1       1.152   9.446  19.054  0.00  0.00    +0.000 A 
ATOM     14  C   UNL     1       0.616  10.722  19.238  0.00  0.00    +0.000 A 
ATOM     15  C   UNL     1       0.229  11.143  20.507  0.00  0.00    +0.000 A 
ATOM     16  C   UNL     1       0.354  10.277  21.596  0.00  0.00    +0.000 A 
ATOM     17  C   UNL     1       0.895   9.009  21.416  0.00  0.00    +0.000 A 
ATOM     18  O   UNL     1      -0.027  10.606  22.872  0.00  0.00    +0.000 OA
ATOM     19  C   UNL     1      -0.866  11.763  22.888  0.00  0.00    +0.000 C 
ATOM     20  C   UNL     1      -0.318  12.849  21.977  0.00  0.00    +0.000 C 
ATOM     21  O   UNL     1      -0.285  12.408  20.614  0.00  0.00    +0.000 OA
ENDBRANCH   4  12
BRANCH  10  22
ATOM     22  O   UNL     1       3.173   2.338  19.917  0.00  0.00    +0.000 OA
ATOM     23  H   UNL     1       3.112   2.589  20.851  0.00  0.00    +0.000 HD
ENDBRANCH  10  22
BRANCH   8  24
ATOM     24  O   UNL     1       5.264   4.301  16.042  0.00  0.00    +0.000 OA
BRANCH  24  25
ATOM     25  C   UNL     1       5.711   5.566  15.538  0.00  0.00    +0.000 C 
BRANCH  25  26
ATOM     26  C   UNL     1       7.025   5.972  16.220  0.00  0.00    +0.000 C 
BRANCH  26  27
ATOM     27  N   UNL     1       6.904   7.308  16.822  0.00  0.00    +0.000 NA
ATOM     28  H   UNL     1       5.946   7.448  17.133  0.00  0.00    +0.000 HD
BRANCH  27  29
ATOM     29  C   UNL     1       7.834   7.469  17.943  0.00  0.00    +0.000 C 
BRANCH  29  30
ATOM     30  C   UNL     1       8.366   8.905  18.005  0.00  0.00    +0.000 C 
BRANCH  30  31
ATOM     31  O   UNL     1       9.012   9.151  19.253  0.00  0.00    +0.000 OA
ATOM     32  H   UNL     1       8.468   9.808  19.720  0.00  0.00    +0.000 HD
ENDBRANCH  30  31
ENDBRANCH  29  30
ENDBRANCH  27  29
ENDBRANCH  26  27
ENDBRANCH  25  26
ENDBRANCH  24  25
ENDBRANCH   8  24
TORSDOF 9
ENDMDL
