MODEL 1
REMARK VINA RESULT:      -9.0      0.000      0.000
REMARK  Name = 
REMARK  13 active torsions:
REMARK  status: ('A' for Active; 'I' for Inactive)
REMARK    1  A    between atoms: C_1  and  C_2
REMARK    2  A    between atoms: C_8  and  C_9
REMARK    3  A    between atoms: C_9  and  N_10
REMARK    4  A    between atoms: N_10  and  C_11
REMARK    5  A    between atoms: N_10  and  C_12
REMARK    6  A    between atoms: C_15  and  C_16
REMARK    7  A    between atoms: N_18  and  CA_19
REMARK    8  A    between atoms: CA_19  and  CB_20
REMARK    9  A    between atoms: CA_19  and  C_25
REMARK   10  A    between atoms: CB_20  and  CG_21
REMARK   11  A    between atoms: CG_21  and  CD_22
REMARK   12  A    between atoms: CD_22  and  OE2_24
REMARK   13  A    between atoms: C_25  and  OXT_27
REMARK                            x       y       z     vdW  Elec       q    Type
REMARK                         _______ _______ _______ _____ _____    ______ ____
ROOT
ATOM      1  C   UNK A   0       1.753   8.193  19.638  0.00  0.00    +0.000 A 
ATOM      2  C   UNK A   0       2.342   8.360  18.374  0.00  0.00    +0.000 A 
ATOM      3  C   UNK A   0       3.068   7.341  17.752  0.00  0.00    +0.000 A 
ATOM      4  C   UNK A   0       3.221   6.108  18.380  0.00  0.00    +0.000 A 
ATOM      5  C   UNK A   0       2.701   5.926  19.661  0.00  0.00    +0.000 A 
ATOM      6  C   UNK A   0       1.974   6.957  20.271  0.00  0.00    +0.000 A 
ENDROOT
BRANCH   4   7
ATOM      7  C   UNK A   0       3.922   5.030  17.638  0.00  0.00    +0.000 C 
ATOM      8  O   UNK A   0       3.686   3.851  17.875  0.00  0.00    +0.000 OA
ATOM      9  N   GLU A   1       4.862   5.433  16.720  0.00  0.00    +0.000 N 
ATOM     10  H   GLU A   1       5.131   6.409  16.658  0.00  0.00    +0.000 HD
BRANCH   9  11
ATOM     11  CA  GLU A   1       5.686   4.475  15.994  0.00  0.00    +0.000 C 
BRANCH  11  12
ATOM     12  C   GLU A   1       7.136   4.950  16.133  0.00  0.00    +0.000 C 
ATOM     13  O   GLU A   1       7.533   6.035  15.720  0.00  0.00    +0.000 OA
BRANCH  12  14
ATOM     14  OXT GLU A   1       7.944   4.096  16.796  0.00  0.00    +0.000 OA
ATOM     15  HXT GLU A   1       7.604   3.175  16.868  0.00  0.00    +0.000 HD
ENDBRANCH  12  14
ENDBRANCH  11  12
BRANCH  11  16
ATOM     16  CB  GLU A   1       5.263   4.403  14.516  0.00  0.00    +0.000 C 
BRANCH  16  17
ATOM     17  CG  GLU A   1       6.372   3.984  13.559  0.00  0.00    +0.000 C 
BRANCH  17  18
ATOM     18  CD  GLU A   1       5.797   3.223  12.398  0.00  0.00    +0.000 C 
ATOM     19  OE1 GLU A   1       4.774   3.581  11.827  0.00  0.00    +0.000 OA
BRANCH  18  20
ATOM     20  OE2 GLU A   1       6.554   2.186  11.988  0.00  0.00    +0.000 OA
ATOM     21  HE2 GLU A   1       6.621   1.450  12.630  0.00  0.00    +0.000 HD
ENDBRANCH  18  20
ENDBRANCH  17  18
ENDBRANCH  16  17
ENDBRANCH  11  16
ENDBRANCH   9  11
ENDBRANCH   4   7
BRANCH   1  22
ATOM     22  N   UNK A   0       1.014   9.208  20.236  0.00  0.00    +0.000 N 
ATOM     23  C   UNK A   0       0.198   8.931  21.414  0.00  0.00    +0.000 C 
BRANCH  22  24
ATOM     24  C   UNK A   0       0.821  10.507  19.568  0.00  0.00    +0.000 C 
BRANCH  24  32
ATOM     25  C   UNK A   0      -6.559  12.595  17.397  0.00  0.00    +0.000 C 
ATOM     26  C   UNK A   0      -5.182  12.015  17.503  0.00  0.00    +0.000 A 
ATOM     27  C   UNK A   0      -4.662  11.180  16.532  0.00  0.00    +0.000 A 
ATOM     28  C   UNK A   0      -3.371  10.684  16.716  0.00  0.00    +0.000 A 
ATOM     29 CL   UNK A   0      -2.767   9.607  15.498  0.00  0.00    +0.000 Cl
ATOM     30  C   UNK A   0      -2.611  11.006  17.863  0.00  0.00    +0.000 A 
ATOM     31  C   UNK A   0      -1.282  10.568  18.142  0.00  0.00    +0.000 A 
ATOM     32  C   UNK A   0      -0.633  10.887  19.347  0.00  0.00    +0.000 A 
ATOM     33  C   UNK A   0      -1.338  11.652  20.275  0.00  0.00    +0.000 A 
ATOM     34  C   UNK A   0      -2.618  12.127  19.985  0.00  0.00    +0.000 A 
ATOM     35  C   UNK A   0      -3.260  11.833  18.799  0.00  0.00    +0.000 A 
ATOM     36  N   UNK A   0      -4.487  12.339  18.614  0.00  0.00    +0.000 NA
ENDBRANCH  24  32
ENDBRANCH  22  24
ENDBRANCH   1  22
TORSDOF 11
ENDMDL
MODEL 2
REMARK VINA RESULT:      -8.9      1.713      2.418
REMARK  Name = 
REMARK  13 active torsions:
REMARK  status: ('A' for Active; 'I' for Inactive)
REMARK    1  A    between atoms: C_1  and  C_2
REMARK    2  A    between atoms: C_8  and  C_9
REMARK    3  A    between atoms: C_9  and  N_10
REMARK    4  A    between atoms: N_10  and  C_11
REMARK    5  A    between atoms: N_10  and  C_12
REMARK    6  A    between atoms: C_15  and  C_16
REMARK    7  A    between atoms: N_18  and  CA_19
REMARK    8  A    between atoms: CA_19  and  CB_20
REMARK    9  A    between atoms: CA_19  and  C_25
REMARK   10  A    between atoms: CB_20  and  CG_21
REMARK   11  A    between atoms: CG_21  and  CD_22
REMARK   12  A    between atoms: CD_22  and  OE2_24
REMARK   13  A    between atoms: C_25  and  OXT_27
REMARK                            x       y       z     vdW  Elec       q    Type
REMARK                         _______ _______ _______ _____ _____    ______ ____
ROOT
ATOM      1  C   UNK A   0       1.411   9.807  19.275  0.00  0.00    +0.000 A 
ATOM      2  C   UNK A   0       1.916   9.375  18.038  0.00  0.00    +0.000 A 
ATOM      3  C   UNK A   0       2.346   8.062  17.829  0.00  0.00    +0.000 A 
ATOM      4  C   UNK A   0       2.277   7.131  18.861  0.00  0.00    +0.000 A 
ATOM      5  C   UNK A   0       1.837   7.540  20.120  0.00  0.00    +0.000 A 
ATOM      6  C   UNK A   0       1.407   8.859  20.314  0.00  0.00    +0.000 A 
ENDROOT
BRANCH   4   7
ATOM      7  C   UNK A   0       2.661   5.729  18.562  0.00  0.00    +0.000 C 
ATOM      8  O   UNK A   0       1.984   4.792  18.971  0.00  0.00    +0.000 OA
ATOM      9  N   GLU A   1       3.823   5.553  17.850  0.00  0.00    +0.000 N 
ATOM     10  H   GLU A   1       4.429   6.344  17.657  0.00  0.00    +0.000 HD
BRANCH   9  11
ATOM     11  CA  GLU A   1       4.361   4.227  17.572  0.00  0.00    +0.000 C 
BRANCH  11  12
ATOM     12  C   GLU A   1       5.397   3.937  18.663  0.00  0.00    +0.000 C 
ATOM     13  O   GLU A   1       6.394   4.627  18.847  0.00  0.00    +0.000 OA
BRANCH  12  14
ATOM     14  OXT GLU A   1       5.101   2.880  19.449  0.00  0.00    +0.000 OA
ATOM     15  HXT GLU A   1       4.871   3.106  20.379  0.00  0.00    +0.000 HD
ENDBRANCH  12  14
ENDBRANCH  11  12
BRANCH  11  16
ATOM     16  CB  GLU A   1       4.998   4.180  16.172  0.00  0.00    +0.000 C 
BRANCH  16  17
ATOM     17  CG  GLU A   1       5.421   5.537  15.623  0.00  0.00    +0.000 C 
BRANCH  17  18
ATOM     18  CD  GLU A   1       6.919   5.616  15.528  0.00  0.00    +0.000 C 
ATOM     19  OE1 GLU A   1       7.531   5.214  14.547  0.00  0.00    +0.000 OA
BRANCH  18  20
ATOM     20  OE2 GLU A   1       7.504   6.251  16.563  0.00  0.00    +0.000 OA
ATOM     21  HE2 GLU A   1       7.994   7.062  16.320  0.00  0.00    +0.000 HD
ENDBRANCH  18  20
ENDBRANCH  17  18
ENDBRANCH  16  17
ENDBRANCH  11  16
ENDBRANCH   9  11
ENDBRANCH   4   7
BRANCH   1  22
ATOM     22  N   UNK A   0       0.963  11.111  19.463  0.00  0.00    +0.000 N 
ATOM     23  C   UNK A   0       1.545  12.209  18.698  0.00  0.00    +0.000 C 
BRANCH  22  24
ATOM     24  C   UNK A   0       0.093  11.462  20.599  0.00  0.00    +0.000 C 
BRANCH  24  32
ATOM     25  C   UNK A   0      -7.209  12.696  17.649  0.00  0.00    +0.000 C 
ATOM     26  C   UNK A   0      -5.801  12.258  17.916  0.00  0.00    +0.000 A 
ATOM     27  C   UNK A   0      -5.120  11.419  17.055  0.00  0.00    +0.000 A 
ATOM     28  C   UNK A   0      -3.812  11.061  17.386  0.00  0.00    +0.000 A 
ATOM     29 CL   UNK A   0      -3.002   9.974  16.304  0.00  0.00    +0.000 Cl
ATOM     30  C   UNK A   0      -3.195  11.524  18.569  0.00  0.00    +0.000 A 
ATOM     31  C   UNK A   0      -1.864  11.233  18.994  0.00  0.00    +0.000 A 
ATOM     32  C   UNK A   0      -1.362  11.687  20.226  0.00  0.00    +0.000 A 
ATOM     33  C   UNK A   0      -2.218  12.436  21.033  0.00  0.00    +0.000 A 
ATOM     34  C   UNK A   0      -3.502  12.768  20.599  0.00  0.00    +0.000 A 
ATOM     35  C   UNK A   0      -4.001  12.341  19.385  0.00  0.00    +0.000 A 
ATOM     36  N   UNK A   0      -5.246  12.715  19.058  0.00  0.00    +0.000 NA
ENDBRANCH  24  32
ENDBRANCH  22  24
ENDBRANCH   1  22
TORSDOF 11
ENDMDL
MODEL 3
REMARK VINA RESULT:      -8.5      1.418      2.362
REMARK  Name = 
REMARK  13 active torsions:
REMARK  status: ('A' for Active; 'I' for Inactive)
REMARK    1  A    between atoms: C_1  and  C_2
REMARK    2  A    between atoms: C_8  and  C_9
REMARK    3  A    between atoms: C_9  and  N_10
REMARK    4  A    between atoms: N_10  and  C_11
REMARK    5  A    between atoms: N_10  and  C_12
REMARK    6  A    between atoms: C_15  and  C_16
REMARK    7  A    between atoms: N_18  and  CA_19
REMARK    8  A    between atoms: CA_19  and  CB_20
REMARK    9  A    between atoms: CA_19  and  C_25
REMARK   10  A    between atoms: CB_20  and  CG_21
REMARK   11  A    between atoms: CG_21  and  CD_22
REMARK   12  A    between atoms: CD_22  and  OE2_24
REMARK   13  A    between atoms: C_25  and  OXT_27
REMARK                            x       y       z     vdW  Elec       q    Type
REMARK                         _______ _______ _______ _____ _____    ______ ____
ROOT
ATOM      1  C   UNK A   0       1.558   9.874  19.097  0.00  0.00    +0.000 A 
ATOM      2  C   UNK A   0       1.519   8.846  20.053  0.00  0.00    +0.000 A 
ATOM      3  C   UNK A   0       1.945   7.547  19.764  0.00  0.00    +0.000 A 
ATOM      4  C   UNK A   0       2.434   7.236  18.499  0.00  0.00    +0.000 A 
ATOM      5  C   UNK A   0       2.430   8.216  17.507  0.00  0.00    +0.000 A 
ATOM      6  C   UNK A   0       2.003   9.515  17.811  0.00  0.00    +0.000 A 
ENDROOT
BRANCH   4   7
ATOM      7  C   UNK A   0       2.957   5.866  18.271  0.00  0.00    +0.000 C 
ATOM      8  O   UNK A   0       2.241   4.885  18.438  0.00  0.00    +0.000 OA
ATOM      9  N   GLU A   1       4.281   5.770  17.913  0.00  0.00    +0.000 N 
ATOM     10  H   GLU A   1       4.875   6.592  17.927  0.00  0.00    +0.000 HD
BRANCH   9  11
ATOM     11  CA  GLU A   1       4.941   4.480  17.751  0.00  0.00    +0.000 C 
BRANCH  11  12
ATOM     12  C   GLU A   1       5.381   4.036  19.150  0.00  0.00    +0.000 C 
ATOM     13  O   GLU A   1       5.002   2.996  19.678  0.00  0.00    +0.000 OA
BRANCH  12  14
ATOM     14  OXT GLU A   1       6.267   4.862  19.747  0.00  0.00    +0.000 OA
ATOM     15  HXT GLU A   1       5.958   5.260  20.593  0.00  0.00    +0.000 HD
ENDBRANCH  12  14
ENDBRANCH  11  12
BRANCH  11  16
ATOM     16  CB  GLU A   1       6.146   4.601  16.801  0.00  0.00    +0.000 C 
BRANCH  16  17
ATOM     17  CG  GLU A   1       5.861   5.359  15.511  0.00  0.00    +0.000 C 
BRANCH  17  18
ATOM     18  CD  GLU A   1       6.690   4.803  14.387  0.00  0.00    +0.000 C 
ATOM     19  OE1 GLU A   1       6.349   3.811  13.756  0.00  0.00    +0.000 OA
BRANCH  18  20
ATOM     20  OE2 GLU A   1       7.773   5.545  14.081  0.00  0.00    +0.000 OA
ATOM     21  HE2 GLU A   1       8.576   5.028  13.868  0.00  0.00    +0.000 HD
ENDBRANCH  18  20
ENDBRANCH  17  18
ENDBRANCH  16  17
ENDBRANCH  11  16
ENDBRANCH   9  11
ENDBRANCH   4   7
BRANCH   1  22
ATOM     22  N   UNK A   0       1.154  11.169  19.403  0.00  0.00    +0.000 N 
ATOM     23  C   UNK A   0       1.797  12.314  18.767  0.00  0.00    +0.000 C 
BRANCH  22  24
ATOM     24  C   UNK A   0       0.264  11.440  20.547  0.00  0.00    +0.000 C 
BRANCH  24  32
ATOM     25  C   UNK A   0      -7.057  12.525  17.588  0.00  0.00    +0.000 C 
ATOM     26  C   UNK A   0      -5.641  12.118  17.855  0.00  0.00    +0.000 A 
ATOM     27  C   UNK A   0      -4.939  11.299  16.990  0.00  0.00    +0.000 A 
ATOM     28  C   UNK A   0      -3.624  10.969  17.322  0.00  0.00    +0.000 A 
ATOM     29 CL   UNK A   0      -2.787   9.907  16.236  0.00  0.00    +0.000 Cl
ATOM     30  C   UNK A   0      -3.020  11.439  18.510  0.00  0.00    +0.000 A 
ATOM     31  C   UNK A   0      -1.684  11.176  18.936  0.00  0.00    +0.000 A 
ATOM     32  C   UNK A   0      -1.195  11.634  20.171  0.00  0.00    +0.000 A 
ATOM     33  C   UNK A   0      -2.069  12.359  20.981  0.00  0.00    +0.000 A 
ATOM     34  C   UNK A   0      -3.360  12.664  20.546  0.00  0.00    +0.000 A 
ATOM     35  C   UNK A   0      -3.846  12.233  19.329  0.00  0.00    +0.000 A 
ATOM     36  N   UNK A   0      -5.098  12.580  19.001  0.00  0.00    +0.000 NA
ENDBRANCH  24  32
ENDBRANCH  22  24
ENDBRANCH   1  22
TORSDOF 11
ENDMDL
MODEL 4
REMARK VINA RESULT:      -8.5      1.818      2.314
REMARK  Name = 
REMARK  13 active torsions:
REMARK  status: ('A' for Active; 'I' for Inactive)
REMARK    1  A    between atoms: C_1  and  C_2
REMARK    2  A    between atoms: C_8  and  C_9
REMARK    3  A    between atoms: C_9  and  N_10
REMARK    4  A    between atoms: N_10  and  C_11
REMARK    5  A    between atoms: N_10  and  C_12
REMARK    6  A    between atoms: C_15  and  C_16
REMARK    7  A    between atoms: N_18  and  CA_19
REMARK    8  A    between atoms: CA_19  and  CB_20
REMARK    9  A    between atoms: CA_19  and  C_25
REMARK   10  A    between atoms: CB_20  and  CG_21
REMARK   11  A    between atoms: CG_21  and  CD_22
REMARK   12  A    between atoms: CD_22  and  OE2_24
REMARK   13  A    between atoms: C_25  and  OXT_27
REMARK                            x       y       z     vdW  Elec       q    Type
REMARK                         _______ _______ _______ _____ _____    ______ ____
ROOT
ATOM      1  C   UNK A   0       1.531   8.782  19.310  0.00  0.00    +0.000 A 
ATOM      2  C   UNK A   0       2.153   8.827  18.051  0.00  0.00    +0.000 A 
ATOM      3  C   UNK A   0       2.958   7.786  17.583  0.00  0.00    +0.000 A 
ATOM      4  C   UNK A   0       3.162   6.653  18.365  0.00  0.00    +0.000 A 
ATOM      5  C   UNK A   0       2.610   6.601  19.645  0.00  0.00    +0.000 A 
ATOM      6  C   UNK A   0       1.803   7.651  20.100  0.00  0.00    +0.000 A 
ENDROOT
BRANCH   4   7
ATOM      7  C   UNK A   0       3.951   5.538  17.785  0.00  0.00    +0.000 C 
ATOM      8  O   UNK A   0       3.403   4.499  17.436  0.00  0.00    +0.000 OA
ATOM      9  N   GLU A   1       5.310   5.727  17.709  0.00  0.00    +0.000 N 
ATOM     10  H   GLU A   1       5.739   6.538  18.141  0.00  0.00    +0.000 HD
BRANCH   9  11
ATOM     11  CA  GLU A   1       6.207   4.674  17.246  0.00  0.00    +0.000 C 
BRANCH  11  12
ATOM     12  C   GLU A   1       7.385   4.642  18.226  0.00  0.00    +0.000 C 
ATOM     13  O   GLU A   1       7.338   5.123  19.354  0.00  0.00    +0.000 OA
BRANCH  12  14
ATOM     14  OXT GLU A   1       8.477   3.994  17.766  0.00  0.00    +0.000 OA
ATOM     15  HXT GLU A   1       9.060   4.528  17.180  0.00  0.00    +0.000 HD
ENDBRANCH  12  14
ENDBRANCH  11  12
BRANCH  11  16
ATOM     16  CB  GLU A   1       6.684   4.957  15.811  0.00  0.00    +0.000 C 
BRANCH  16  17
ATOM     17  CG  GLU A   1       5.908   4.216  14.728  0.00  0.00    +0.000 C 
BRANCH  17  18
ATOM     18  CD  GLU A   1       6.645   4.286  13.421  0.00  0.00    +0.000 C 
ATOM     19  OE1 GLU A   1       6.376   3.547  12.482  0.00  0.00    +0.000 OA
BRANCH  18  20
ATOM     20  OE2 GLU A   1       7.545   5.287  13.347  0.00  0.00    +0.000 OA
ATOM     21  HE2 GLU A   1       7.950   5.535  14.202  0.00  0.00    +0.000 HD
ENDBRANCH  18  20
ENDBRANCH  17  18
ENDBRANCH  16  17
ENDBRANCH  11  16
ENDBRANCH   9  11
ENDBRANCH   4   7
BRANCH   1  22
ATOM     22  N   UNK A   0       0.712   9.815  19.755  0.00  0.00    +0.000 N 
ATOM     23  C   UNK A   0      -0.066   9.665  20.980  0.00  0.00    +0.000 C 
BRANCH  22  24
ATOM     24  C   UNK A   0       0.404  10.969  18.892  0.00  0.00    +0.000 C 
BRANCH  24  32
ATOM     25  C   UNK A   0      -7.452  12.316  18.793  0.00  0.00    +0.000 C 
ATOM     26  C   UNK A   0      -5.979  12.314  19.063  0.00  0.00    +0.000 A 
ATOM     27  C   UNK A   0      -5.409  13.130  20.022  0.00  0.00    +0.000 A 
ATOM     28  C   UNK A   0      -4.027  13.063  20.204  0.00  0.00    +0.000 A 
ATOM     29 CL   UNK A   0      -3.341  14.131  21.385  0.00  0.00    +0.000 Cl
ATOM     30  C   UNK A   0      -3.220  12.201  19.428  0.00  0.00    +0.000 A 
ATOM     31  C   UNK A   0      -1.806  12.043  19.541  0.00  0.00    +0.000 A 
ATOM     32  C   UNK A   0      -1.080  11.208  18.675  0.00  0.00    +0.000 A 
ATOM     33  C   UNK A   0      -1.794  10.531  17.685  0.00  0.00    +0.000 A 
ATOM     34  C   UNK A   0      -3.183  10.641  17.603  0.00  0.00    +0.000 A 
ATOM     35  C   UNK A   0      -3.908  11.446  18.458  0.00  0.00    +0.000 A 
ATOM     36  N   UNK A   0      -5.238  11.482  18.300  0.00  0.00    +0.000 NA
ENDBRANCH  24  32
ENDBRANCH  22  24
ENDBRANCH   1  22
TORSDOF 11
ENDMDL
MODEL 5
REMARK VINA RESULT:      -8.4      2.371      3.133
REMARK  Name = 
REMARK  13 active torsions:
REMARK  status: ('A' for Active; 'I' for Inactive)
REMARK    1  A    between atoms: C_1  and  C_2
REMARK    2  A    between atoms: C_8  and  C_9
REMARK    3  A    between atoms: C_9  and  N_10
REMARK    4  A    between atoms: N_10  and  C_11
REMARK    5  A    between atoms: N_10  and  C_12
REMARK    6  A    between atoms: C_15  and  C_16
REMARK    7  A    between atoms: N_18  and  CA_19
REMARK    8  A    between atoms: CA_19  and  CB_20
REMARK    9  A    between atoms: CA_19  and  C_25
REMARK   10  A    between atoms: CB_20  and  CG_21
REMARK   11  A    between atoms: CG_21  and  CD_22
REMARK   12  A    between atoms: CD_22  and  OE2_24
REMARK   13  A    between atoms: C_25  and  OXT_27
REMARK                            x       y       z     vdW  Elec       q    Type
REMARK                         _______ _______ _______ _____ _____    ______ ____
ROOT
ATOM      1  C   UNK A   0       1.332   8.934  20.077  0.00  0.00    +0.000 A 
ATOM      2  C   UNK A   0       1.748   8.847  18.739  0.00  0.00    +0.000 A 
ATOM      3  C   UNK A   0       2.107   7.631  18.151  0.00  0.00    +0.000 A 
ATOM      4  C   UNK A   0       2.052   6.453  18.891  0.00  0.00    +0.000 A 
ATOM      5  C   UNK A   0       1.702   6.511  20.240  0.00  0.00    +0.000 A 
ATOM      6  C   UNK A   0       1.343   7.737  20.815  0.00  0.00    +0.000 A 
ENDROOT
BRANCH   4   7
ATOM      7  C   UNK A   0       2.356   5.178  18.195  0.00  0.00    +0.000 C 
ATOM      8  O   UNK A   0       1.544   4.259  18.187  0.00  0.00    +0.000 OA
ATOM      9  N   GLU A   1       3.596   5.082  17.611  0.00  0.00    +0.000 N 
ATOM     10  H   GLU A   1       4.291   5.805  17.764  0.00  0.00    +0.000 HD
BRANCH   9  11
ATOM     11  CA  GLU A   1       4.053   3.850  16.978  0.00  0.00    +0.000 C 
BRANCH  11  12
ATOM     12  C   GLU A   1       4.454   2.899  18.110  0.00  0.00    +0.000 C 
ATOM     13  O   GLU A   1       3.880   1.838  18.334  0.00  0.00    +0.000 OA
BRANCH  12  14
ATOM     14  OXT GLU A   1       5.530   3.297  18.821  0.00  0.00    +0.000 OA
ATOM     15  HXT GLU A   1       5.330   3.900  19.572  0.00  0.00    +0.000 HD
ENDBRANCH  12  14
ENDBRANCH  11  12
BRANCH  11  16
ATOM     16  CB  GLU A   1       5.241   4.129  16.039  0.00  0.00    +0.000 C 
BRANCH  16  17
ATOM     17  CG  GLU A   1       5.730   5.572  16.048  0.00  0.00    +0.000 C 
BRANCH  17  18
ATOM     18  CD  GLU A   1       7.103   5.652  16.654  0.00  0.00    +0.000 C 
ATOM     19  OE1 GLU A   1       7.692   4.659  17.065  0.00  0.00    +0.000 OA
BRANCH  18  20
ATOM     20  OE2 GLU A   1       7.654   6.880  16.612  0.00  0.00    +0.000 OA
ATOM     21  HE2 GLU A   1       8.442   6.955  16.037  0.00  0.00    +0.000 HD
ENDBRANCH  18  20
ENDBRANCH  17  18
ENDBRANCH  16  17
ENDBRANCH  11  16
ENDBRANCH   9  11
ENDBRANCH   4   7
BRANCH   1  22
ATOM     22  N   UNK A   0       0.955  10.147  20.644  0.00  0.00    +0.000 N 
ATOM     23  C   UNK A   0       0.525  10.210  22.037  0.00  0.00    +0.000 C 
BRANCH  22  24
ATOM     24  C   UNK A   0       0.729  11.341  19.810  0.00  0.00    +0.000 C 
BRANCH  24  32
ATOM     25  C   UNK A   0      -7.006  12.017  18.010  0.00  0.00    +0.000 C 
ATOM     26  C   UNK A   0      -5.638  12.115  18.610  0.00  0.00    +0.000 A 
ATOM     27  C   UNK A   0      -5.383  12.883  19.730  0.00  0.00    +0.000 A 
ATOM     28  C   UNK A   0      -4.076  12.917  20.219  0.00  0.00    +0.000 A 
ATOM     29 CL   UNK A   0      -3.784  13.924  21.601  0.00  0.00    +0.000 Cl
ATOM     30  C   UNK A   0      -3.032  12.204  19.589  0.00  0.00    +0.000 A 
ATOM     31  C   UNK A   0      -1.669  12.157  20.012  0.00  0.00    +0.000 A 
ATOM     32  C   UNK A   0      -0.687  11.472  19.277  0.00  0.00    +0.000 A 
ATOM     33  C   UNK A   0      -1.089  10.834  18.103  0.00  0.00    +0.000 A 
ATOM     34  C   UNK A   0      -2.429  10.832  17.713  0.00  0.00    +0.000 A 
ATOM     35  C   UNK A   0      -3.405  11.488  18.435  0.00  0.00    +0.000 A 
ATOM     36  N   UNK A   0      -4.664  11.426  17.979  0.00  0.00    +0.000 NA
ENDBRANCH  24  32
ENDBRANCH  22  24
ENDBRANCH   1  22
TORSDOF 11
ENDMDL
MODEL 6
REMARK VINA RESULT:      -8.4      2.546      3.435
REMARK  Name = 
REMARK  13 active torsions:
REMARK  status: ('A' for Active; 'I' for Inactive)
REMARK    1  A    between atoms: C_1  and  C_2
REMARK    2  A    between atoms: C_8  and  C_9
REMARK    3  A    between atoms: C_9  and  N_10
REMARK    4  A    between atoms: N_10  and  C_11
REMARK    5  A    between atoms: N_10  and  C_12
REMARK    6  A    between atoms: C_15  and  C_16
REMARK    7  A    between atoms: N_18  and  CA_19
REMARK    8  A    between atoms: CA_19  and  CB_20
REMARK    9  A    between atoms: CA_19  and  C_25
REMARK   10  A    between atoms: CB_20  and  CG_21
REMARK   11  A    between atoms: CG_21  and  CD_22
REMARK   12  A    between atoms: CD_22  and  OE2_24
REMARK   13  A    between atoms: C_25  and  OXT_27
REMARK                            x       y       z     vdW  Elec       q    Type
REMARK                         _______ _______ _______ _____ _____    ______ ____
ROOT
ATOM      1  C   UNK A   0       0.923   9.590  19.296  0.00  0.00    +0.000 A 
ATOM      2  C   UNK A   0       1.560   9.082  18.152  0.00  0.00    +0.000 A 
ATOM      3  C   UNK A   0       2.272   7.880  18.171  0.00  0.00    +0.000 A 
ATOM      4  C   UNK A   0       2.363   7.139  19.346  0.00  0.00    +0.000 A 
ATOM      5  C   UNK A   0       1.794   7.644  20.515  0.00  0.00    +0.000 A 
ATOM      6  C   UNK A   0       1.081   8.849  20.480  0.00  0.00    +0.000 A 
ENDROOT
BRANCH   4   7
ATOM      7  C   UNK A   0       3.053   5.826  19.291  0.00  0.00    +0.000 C 
ATOM      8  O   UNK A   0       2.775   4.938  20.088  0.00  0.00    +0.000 OA
ATOM      9  N   GLU A   1       4.033   5.692  18.336  0.00  0.00    +0.000 N 
ATOM     10  H   GLU A   1       4.333   6.495  17.794  0.00  0.00    +0.000 HD
BRANCH   9  11
ATOM     11  CA  GLU A   1       4.850   4.488  18.238  0.00  0.00    +0.000 C 
BRANCH  11  12
ATOM     12  C   GLU A   1       6.247   4.865  18.741  0.00  0.00    +0.000 C 
ATOM     13  O   GLU A   1       6.445   5.679  19.637  0.00  0.00    +0.000 OA
BRANCH  12  14
ATOM     14  OXT GLU A   1       7.256   4.190  18.149  0.00  0.00    +0.000 OA
ATOM     15  HXT GLU A   1       8.153   4.397  18.497  0.00  0.00    +0.000 HD
ENDBRANCH  12  14
ENDBRANCH  11  12
BRANCH  11  16
ATOM     16  CB  GLU A   1       4.898   3.980  16.786  0.00  0.00    +0.000 C 
BRANCH  16  17
ATOM     17  CG  GLU A   1       5.226   5.049  15.752  0.00  0.00    +0.000 C 
BRANCH  17  18
ATOM     18  CD  GLU A   1       6.483   4.689  15.012  0.00  0.00    +0.000 C 
ATOM     19  OE1 GLU A   1       7.540   5.279  15.200  0.00  0.00    +0.000 OA
BRANCH  18  20
ATOM     20  OE2 GLU A   1       6.364   3.611  14.212  0.00  0.00    +0.000 OA
ATOM     21  HE2 GLU A   1       5.581   3.622  13.626  0.00  0.00    +0.000 HD
ENDBRANCH  18  20
ENDBRANCH  17  18
ENDBRANCH  16  17
ENDBRANCH  11  16
ENDBRANCH   9  11
ENDBRANCH   4   7
BRANCH   1  22
ATOM     22  N   UNK A   0       0.197  10.776  19.258  0.00  0.00    +0.000 N 
ATOM     23  C   UNK A   0      -0.458  11.202  18.025  0.00  0.00    +0.000 C 
BRANCH  22  24
ATOM     24  C   UNK A   0       0.276  11.754  20.357  0.00  0.00    +0.000 C 
BRANCH  24  32
ATOM     25  C   UNK A   0      -6.627  13.036  24.131  0.00  0.00    +0.000 C 
ATOM     26  C   UNK A   0      -5.528  12.846  23.132  0.00  0.00    +0.000 A 
ATOM     27  C   UNK A   0      -5.746  12.965  21.772  0.00  0.00    +0.000 A 
ATOM     28  C   UNK A   0      -4.663  12.769  20.914  0.00  0.00    +0.000 A 
ATOM     29 CL   UNK A   0      -4.982  12.884  19.213  0.00  0.00    +0.000 Cl
ATOM     30  C   UNK A   0      -3.379  12.445  21.406  0.00  0.00    +0.000 A 
ATOM     31  C   UNK A   0      -2.204  12.239  20.621  0.00  0.00    +0.000 A 
ATOM     32  C   UNK A   0      -0.983  11.852  21.200  0.00  0.00    +0.000 A 
ATOM     33  C   UNK A   0      -0.956  11.668  22.582  0.00  0.00    +0.000 A 
ATOM     34  C   UNK A   0      -2.088  11.918  23.360  0.00  0.00    +0.000 A 
ATOM     35  C   UNK A   0      -3.287  12.314  22.805  0.00  0.00    +0.000 A 
ATOM     36  N   UNK A   0      -4.316  12.532  23.636  0.00  0.00    +0.000 NA
ENDBRANCH  24  32
ENDBRANCH  22  24
ENDBRANCH   1  22
TORSDOF 11
ENDMDL
MODEL 7
REMARK VINA RESULT:      -8.3      3.260      4.453
REMARK  Name = 
REMARK  13 active torsions:
REMARK  status: ('A' for Active; 'I' for Inactive)
REMARK    1  A    between atoms: C_1  and  C_2
REMARK    2  A    between atoms: C_8  and  C_9
REMARK    3  A    between atoms: C_9  and  N_10
REMARK    4  A    between atoms: N_10  and  C_11
REMARK    5  A    between atoms: N_10  and  C_12
REMARK    6  A    between atoms: C_15  and  C_16
REMARK    7  A    between atoms: N_18  and  CA_19
REMARK    8  A    between atoms: CA_19  and  CB_20
REMARK    9  A    between atoms: CA_19  and  C_25
REMARK   10  A    between atoms: CB_20  and  CG_21
REMARK   11  A    between atoms: CG_21  and  CD_22
REMARK   12  A    between atoms: CD_22  and  OE2_24
REMARK   13  A    between atoms: C_25  and  OXT_27
REMARK                            x       y       z     vdW  Elec       q    Type
REMARK                         _______ _______ _______ _____ _____    ______ ____
ROOT
ATOM      1  C   UNK A   0       0.545   9.922  19.728  0.00  0.00    +0.000 A 
ATOM      2  C   UNK A   0       1.332   9.372  18.703  0.00  0.00    +0.000 A 
ATOM      3  C   UNK A   0       1.995   8.150  18.851  0.00  0.00    +0.000 A 
ATOM      4  C   UNK A   0       1.883   7.432  20.038  0.00  0.00    +0.000 A 
ATOM      5  C   UNK A   0       1.160   7.978  21.099  0.00  0.00    +0.000 A 
ATOM      6  C   UNK A   0       0.499   9.202  20.935  0.00  0.00    +0.000 A 
ENDROOT
BRANCH   4   7
ATOM      7  C   UNK A   0       2.532   6.100  20.111  0.00  0.00    +0.000 C 
ATOM      8  O   UNK A   0       2.203   5.289  20.969  0.00  0.00    +0.000 OA
ATOM      9  N   GLU A   1       3.533   5.858  19.200  0.00  0.00    +0.000 N 
ATOM     10  H   GLU A   1       3.873   6.604  18.604  0.00  0.00    +0.000 HD
BRANCH   9  11
ATOM     11  CA  GLU A   1       4.312   4.626  19.225  0.00  0.00    +0.000 C 
BRANCH  11  12
ATOM     12  C   GLU A   1       5.762   5.020  18.926  0.00  0.00    +0.000 C 
ATOM     13  O   GLU A   1       6.603   5.213  19.798  0.00  0.00    +0.000 OA
BRANCH  12  14
ATOM     14  OXT GLU A   1       6.062   5.091  17.611  0.00  0.00    +0.000 OA
ATOM     15  HXT GLU A   1       6.542   4.310  17.253  0.00  0.00    +0.000 HD
ENDBRANCH  12  14
ENDBRANCH  11  12
BRANCH  11  16
ATOM     16  CB  GLU A   1       3.781   3.624  18.185  0.00  0.00    +0.000 C 
BRANCH  16  17
ATOM     17  CG  GLU A   1       2.764   2.627  18.727  0.00  0.00    +0.000 C 
BRANCH  17  18
ATOM     18  CD  GLU A   1       1.386   2.969  18.233  0.00  0.00    +0.000 C 
ATOM     19  OE1 GLU A   1       0.404   2.302  18.531  0.00  0.00    +0.000 OA
BRANCH  18  20
ATOM     20  OE2 GLU A   1       1.322   4.115  17.527  0.00  0.00    +0.000 OA
ATOM     21  HE2 GLU A   1       2.125   4.321  17.007  0.00  0.00    +0.000 HD
ENDBRANCH  18  20
ENDBRANCH  17  18
ENDBRANCH  16  17
ENDBRANCH  11  16
ENDBRANCH   9  11
ENDBRANCH   4   7
BRANCH   1  22
ATOM     22  N   UNK A   0      -0.129  11.127  19.560  0.00  0.00    +0.000 N 
ATOM     23  C   UNK A   0      -0.603  11.531  18.241  0.00  0.00    +0.000 C 
BRANCH  22  24
ATOM     24  C   UNK A   0      -0.158  12.140  20.630  0.00  0.00    +0.000 C 
BRANCH  24  32
ATOM     25  C   UNK A   0      -7.232  13.093  24.179  0.00  0.00    +0.000 C 
ATOM     26  C   UNK A   0      -6.091  12.973  23.217  0.00  0.00    +0.000 A 
ATOM     27  C   UNK A   0      -6.259  13.146  21.856  0.00  0.00    +0.000 A 
ATOM     28  C   UNK A   0      -5.139  13.014  21.034  0.00  0.00    +0.000 A 
ATOM     29 CL   UNK A   0      -5.396  13.196  19.328  0.00  0.00    +0.000 Cl
ATOM     30  C   UNK A   0      -3.867  12.698  21.562  0.00  0.00    +0.000 A 
ATOM     31  C   UNK A   0      -2.659  12.555  20.817  0.00  0.00    +0.000 A 
ATOM     32  C   UNK A   0      -1.452  12.171  21.426  0.00  0.00    +0.000 A 
ATOM     33  C   UNK A   0      -1.473  11.927  22.799  0.00  0.00    +0.000 A 
ATOM     34  C   UNK A   0      -2.640  12.117  23.541  0.00  0.00    +0.000 A 
ATOM     35  C   UNK A   0      -3.827  12.509  22.956  0.00  0.00    +0.000 A 
ATOM     36  N   UNK A   0      -4.892  12.666  23.755  0.00  0.00    +0.000 NA
ENDBRANCH  24  32
ENDBRANCH  22  24
ENDBRANCH   1  22
TORSDOF 11
ENDMDL
MODEL 8
REMARK VINA RESULT:      -8.1      1.453      1.887
REMARK  Name = 
REMARK  13 active torsions:
REMARK  status: ('A' for Active; 'I' for Inactive)
REMARK    1  A    between atoms: C_1  and  C_2
REMARK    2  A    between atoms: C_8  and  C_9
REMARK    3  A    between atoms: C_9  and  N_10
REMARK    4  A    between atoms: N_10  and  C_11
REMARK    5  A    between atoms: N_10  and  C_12
REMARK    6  A    between atoms: C_15  and  C_16
REMARK    7  A    between atoms: N_18  and  CA_19
REMARK    8  A    between atoms: CA_19  and  CB_20
REMARK    9  A    between atoms: CA_19  and  C_25
REMARK   10  A    between atoms: CB_20  and  CG_21
REMARK   11  A    between atoms: CG_21  and  CD_22
REMARK   12  A    between atoms: CD_22  and  OE2_24
REMARK   13  A    between atoms: C_25  and  OXT_27
REMARK                            x       y       z     vdW  Elec       q    Type
REMARK                         _______ _______ _______ _____ _____    ______ ____
ROOT
ATOM      1  C   UNK A   0       1.444   8.431  20.112  0.00  0.00    +0.000 A 
ATOM      2  C   UNK A   0       1.559   7.242  20.851  0.00  0.00    +0.000 A 
ATOM      3  C   UNK A   0       2.212   6.114  20.345  0.00  0.00    +0.000 A 
ATOM      4  C   UNK A   0       2.780   6.146  19.075  0.00  0.00    +0.000 A 
ATOM      5  C   UNK A   0       2.631   7.289  18.290  0.00  0.00    +0.000 A 
ATOM      6  C   UNK A   0       1.976   8.412  18.811  0.00  0.00    +0.000 A 
ENDROOT
BRANCH   4   7
ATOM      7  C   UNK A   0       3.539   4.954  18.621  0.00  0.00    +0.000 C 
ATOM      8  O   UNK A   0       3.034   3.838  18.657  0.00  0.00    +0.000 OA
ATOM      9  N   GLU A   1       4.832   5.175  18.210  0.00  0.00    +0.000 N 
ATOM     10  H   GLU A   1       5.259   6.086  18.333  0.00  0.00    +0.000 HD
BRANCH   9  11
ATOM     11  CA  GLU A   1       5.715   4.078  17.830  0.00  0.00    +0.000 C 
BRANCH  11  12
ATOM     12  C   GLU A   1       7.148   4.569  18.064  0.00  0.00    +0.000 C 
ATOM     13  O   GLU A   1       8.051   4.426  17.247  0.00  0.00    +0.000 OA
BRANCH  12  14
ATOM     14  OXT GLU A   1       7.332   5.222  19.231  0.00  0.00    +0.000 OA
ATOM     15  HXT GLU A   1       6.541   5.256  19.816  0.00  0.00    +0.000 HD
ENDBRANCH  12  14
ENDBRANCH  11  12
BRANCH  11  16
ATOM     16  CB  GLU A   1       5.493   3.686  16.358  0.00  0.00    +0.000 C 
BRANCH  16  17
ATOM     17  CG  GLU A   1       4.695   4.699  15.547  0.00  0.00    +0.000 C 
BRANCH  17  18
ATOM     18  CD  GLU A   1       5.593   5.800  15.060  0.00  0.00    +0.000 C 
ATOM     19  OE1 GLU A   1       5.275   6.981  15.134  0.00  0.00    +0.000 OA
BRANCH  18  20
ATOM     20  OE2 GLU A   1       6.801   5.380  14.636  0.00  0.00    +0.000 OA
ATOM     21  HE2 GLU A   1       6.851   5.175  13.681  0.00  0.00    +0.000 HD
ENDBRANCH  18  20
ENDBRANCH  17  18
ENDBRANCH  16  17
ENDBRANCH  11  16
ENDBRANCH   9  11
ENDBRANCH   4   7
BRANCH   1  22
ATOM     22  N   UNK A   0       0.812   9.554  20.636  0.00  0.00    +0.000 N 
ATOM     23  C   UNK A   0       0.099   9.476  21.907  0.00  0.00    +0.000 C 
BRANCH  22  24
ATOM     24  C   UNK A   0       0.619  10.769  19.824  0.00  0.00    +0.000 C 
BRANCH  24  32
ATOM     25  C   UNK A   0      -6.728  12.623  17.348  0.00  0.00    +0.000 C 
ATOM     26  C   UNK A   0      -5.343  12.079  17.516  0.00  0.00    +0.000 A 
ATOM     27  C   UNK A   0      -4.771  11.231  16.586  0.00  0.00    +0.000 A 
ATOM     28  C   UNK A   0      -3.475  10.771  16.827  0.00  0.00    +0.000 A 
ATOM     29 CL   UNK A   0      -2.805   9.677  15.661  0.00  0.00    +0.000 Cl
ATOM     30  C   UNK A   0      -2.763  11.141  17.990  0.00  0.00    +0.000 A 
ATOM     31  C   UNK A   0      -1.435  10.742  18.326  0.00  0.00    +0.000 A 
ATOM     32  C   UNK A   0      -0.835  11.108  19.544  0.00  0.00    +0.000 A 
ATOM     33  C   UNK A   0      -1.590  11.881  20.426  0.00  0.00    +0.000 A 
ATOM     34  C   UNK A   0      -2.870  12.317  20.080  0.00  0.00    +0.000 A 
ATOM     35  C   UNK A   0      -3.463  11.977  18.882  0.00  0.00    +0.000 A 
ATOM     36  N   UNK A   0      -4.694  12.448  18.641  0.00  0.00    +0.000 NA
ENDBRANCH  24  32
ENDBRANCH  22  24
ENDBRANCH   1  22
TORSDOF 11
ENDMDL
MODEL 9
REMARK VINA RESULT:      -8.1      2.248      3.100
REMARK  Name = 
REMARK  13 active torsions:
REMARK  status: ('A' for Active; 'I' for Inactive)
REMARK    1  A    between atoms: C_1  and  C_2
REMARK    2  A    between atoms: C_8  and  C_9
REMARK    3  A    between atoms: C_9  and  N_10
REMARK    4  A    between atoms: N_10  and  C_11
REMARK    5  A    between atoms: N_10  and  C_12
REMARK    6  A    between atoms: C_15  and  C_16
REMARK    7  A    between atoms: N_18  and  CA_19
REMARK    8  A    between atoms: CA_19  and  CB_20
REMARK    9  A    between atoms: CA_19  and  C_25
REMARK   10  A    between atoms: CB_20  and  CG_21
REMARK   11  A    between atoms: CG_21  and  CD_22
REMARK   12  A    between atoms: CD_22  and  OE2_24
REMARK   13  A    between atoms: C_25  and  OXT_27
REMARK                            x       y       z     vdW  Elec       q    Type
REMARK                         _______ _______ _______ _____ _____    ______ ____
ROOT
ATOM      1  C   UNK A   0       1.392   8.728  20.237  0.00  0.00    +0.000 A 
ATOM      2  C   UNK A   0       1.418   7.432  20.775  0.00  0.00    +0.000 A 
ATOM      3  C   UNK A   0       1.775   6.318  20.010  0.00  0.00    +0.000 A 
ATOM      4  C   UNK A   0       2.126   6.471  18.672  0.00  0.00    +0.000 A 
ATOM      5  C   UNK A   0       2.051   7.736  18.089  0.00  0.00    +0.000 A 
ATOM      6  C   UNK A   0       1.694   8.844  18.869  0.00  0.00    +0.000 A 
ENDROOT
BRANCH   4   7
ATOM      7  C   UNK A   0       2.584   5.271  17.929  0.00  0.00    +0.000 C 
ATOM      8  O   UNK A   0       1.776   4.475  17.464  0.00  0.00    +0.000 OA
ATOM      9  N   GLU A   1       3.943   5.092  17.838  0.00  0.00    +0.000 N 
ATOM     10  H   GLU A   1       4.574   5.692  18.358  0.00  0.00    +0.000 HD
BRANCH   9  11
ATOM     11  CA  GLU A   1       4.522   3.906  17.216  0.00  0.00    +0.000 C 
BRANCH  11  12
ATOM     12  C   GLU A   1       4.352   2.760  18.219  0.00  0.00    +0.000 C 
ATOM     13  O   GLU A   1       3.646   1.779  18.010  0.00  0.00    +0.000 OA
BRANCH  12  14
ATOM     14  OXT GLU A   1       5.086   2.889  19.346  0.00  0.00    +0.000 OA
ATOM     15  HXT GLU A   1       4.652   3.402  20.066  0.00  0.00    +0.000 HD
ENDBRANCH  12  14
ENDBRANCH  11  12
BRANCH  11  16
ATOM     16  CB  GLU A   1       6.006   4.137  16.880  0.00  0.00    +0.000 C 
BRANCH  16  17
ATOM     17  CG  GLU A   1       6.579   5.447  17.408  0.00  0.00    +0.000 C 
BRANCH  17  18
ATOM     18  CD  GLU A   1       7.169   5.242  18.775  0.00  0.00    +0.000 C 
ATOM     19  OE1 GLU A   1       6.518   5.417  19.798  0.00  0.00    +0.000 OA
BRANCH  18  20
ATOM     20  OE2 GLU A   1       8.428   4.762  18.766  0.00  0.00    +0.000 OA
ATOM     21  HE2 GLU A   1       8.544   3.930  18.265  0.00  0.00    +0.000 HD
ENDBRANCH  18  20
ENDBRANCH  17  18
ENDBRANCH  16  17
ENDBRANCH  11  16
ENDBRANCH   9  11
ENDBRANCH   4   7
BRANCH   1  22
ATOM     22  N   UNK A   0       1.058   9.832  21.015  0.00  0.00    +0.000 N 
ATOM     23  C   UNK A   0       0.729   9.668  22.427  0.00  0.00    +0.000 C 
BRANCH  22  24
ATOM     24  C   UNK A   0       0.774  11.141  20.400  0.00  0.00    +0.000 C 
BRANCH  24  32
ATOM     25  C   UNK A   0      -6.613  12.452  17.707  0.00  0.00    +0.000 C 
ATOM     26  C   UNK A   0      -5.198  12.008  17.919  0.00  0.00    +0.000 A 
ATOM     27  C   UNK A   0      -4.543  11.194  17.014  0.00  0.00    +0.000 A 
ATOM     28  C   UNK A   0      -3.226  10.828  17.295  0.00  0.00    +0.000 A 
ATOM     29 CL   UNK A   0      -2.448   9.772  16.160  0.00  0.00    +0.000 Cl
ATOM     30  C   UNK A   0      -2.574  11.258  18.472  0.00  0.00    +0.000 A 
ATOM     31  C   UNK A   0      -1.231  10.956  18.849  0.00  0.00    +0.000 A 
ATOM     32  C   UNK A   0      -0.692  11.375  20.077  0.00  0.00    +0.000 A 
ATOM     33  C   UNK A   0      -1.523  12.101  20.931  0.00  0.00    +0.000 A 
ATOM     34  C   UNK A   0      -2.820  12.443  20.545  0.00  0.00    +0.000 A 
ATOM     35  C   UNK A   0      -3.354  12.051  19.335  0.00  0.00    +0.000 A 
ATOM     36  N   UNK A   0      -4.609  12.432  19.056  0.00  0.00    +0.000 NA
ENDBRANCH  24  32
ENDBRANCH  22  24
ENDBRANCH   1  22
TORSDOF 11
ENDMDL
