MODEL 1
REMARK VINA RESULT:      -8.7      0.000      0.000
REMARK  Name = 
REMARK  3 active torsions:
REMARK  status: ('A' for Active; 'I' for Inactive)
REMARK    1  A    between atoms: O_1  and  N_2
REMARK    2  A    between atoms: C_6  and  C_7
REMARK    3  A    between atoms: C_13  and  C_14
REMARK                            x       y       z     vdW  Elec       q    Type
REMARK                         _______ _______ _______ _____ _____    ______ ____
ROOT
ATOM      1  N   UNL     1       5.037   7.013  16.895  0.00  0.00    +0.000 NA
ATOM      2  C   UNL     1       4.428   5.949  17.323  0.00  0.00    +0.000 C 
ATOM      3  C   UNL     1       4.962   4.564  17.192  0.00  0.00    +0.000 C 
ATOM      4  C   UNL     1       3.728   3.737  17.464  0.00  0.00    +0.000 C 
ATOM      5  C   UNL     1       2.701   4.670  18.087  0.00  0.00    +0.000 C 
ATOM      6  C   UNL     1       3.092   5.965  18.019  0.00  0.00    +0.000 C 
ENDROOT
BRANCH   6   7
ATOM      7  C   UNL     1       2.483   7.226  18.476  0.00  0.00    +0.000 A 
ATOM      8  C   UNL     1       2.163   8.266  17.603  0.00  0.00    +0.000 A 
ATOM      9  C   UNL     1       1.424   9.371  18.043  0.00  0.00    +0.000 A 
ATOM     10  C   UNL     1       1.102   9.492  19.389  0.00  0.00    +0.000 A 
ATOM     11  F   UNL     1       0.374  10.545  19.789  0.00  0.00    +0.000 F 
ATOM     12  C   UNL     1       1.534   8.537  20.302  0.00  0.00    +0.000 A 
ATOM     13 CL   UNL     1       1.228   8.726  21.986  0.00  0.00    +0.000 Cl
ATOM     14  C   UNL     1       2.210   7.404  19.847  0.00  0.00    +0.000 A 
ENDBRANCH   6   7
BRANCH   5  15
ATOM     15  C   UNL     1       1.404   3.992  18.593  0.00  0.00    +0.000 C 
ATOM     16  C   UNL     1       1.456   2.439  18.583  0.00  0.00    +0.000 C 
ATOM     17  C   UNL     1       2.343   1.875  19.696  0.00  0.00    +0.000 C 
ATOM     18  C   UNL     1       1.928   2.376  21.078  0.00  0.00    +0.000 C 
ATOM     19  C   UNL     1       1.721   3.886  21.122  0.00  0.00    +0.000 C 
ATOM     20  C   UNL     1       0.830   4.351  19.977  0.00  0.00    +0.000 C 
ENDBRANCH   5  15
BRANCH   1  21
ATOM     21  O   UNL     1       6.264   6.689  16.299  0.00  0.00    +0.000 OA
ATOM     22  H   UNL     1       6.906   7.059  16.931  0.00  0.00    +0.000 HD
ENDBRANCH   1  21
TORSDOF 3
ENDMDL
MODEL 2
REMARK VINA RESULT:      -8.3      2.414      4.101
REMARK  Name = 
REMARK  3 active torsions:
REMARK  status: ('A' for Active; 'I' for Inactive)
REMARK    1  A    between atoms: O_1  and  N_2
REMARK    2  A    between atoms: C_6  and  C_7
REMARK    3  A    between atoms: C_13  and  C_14
REMARK                            x       y       z     vdW  Elec       q    Type
REMARK                         _______ _______ _______ _____ _____    ______ ____
ROOT
ATOM      1  N   UNL     1       1.010   4.187  19.736  0.00  0.00    +0.000 NA
ATOM      2  C   UNL     1       2.163   4.133  19.141  0.00  0.00    +0.000 C 
ATOM      3  C   UNL     1       2.805   2.876  18.664  0.00  0.00    +0.000 C 
ATOM      4  C   UNL     1       4.229   3.328  18.445  0.00  0.00    +0.000 C 
ATOM      5  C   UNL     1       4.213   4.849  18.444  0.00  0.00    +0.000 C 
ATOM      6  C   UNL     1       3.016   5.339  18.844  0.00  0.00    +0.000 C 
ENDROOT
BRANCH   6   7
ATOM      7  C   UNL     1       2.488   6.705  19.001  0.00  0.00    +0.000 A 
ATOM      8  C   UNL     1       2.349   7.585  17.927  0.00  0.00    +0.000 A 
ATOM      9  C   UNL     1       1.678   8.805  18.082  0.00  0.00    +0.000 A 
ATOM     10  C   UNL     1       1.246   9.199  19.342  0.00  0.00    +0.000 A 
ATOM     11  F   UNL     1       0.586  10.359  19.467  0.00  0.00    +0.000 F 
ATOM     12  C   UNL     1       1.500   8.401  20.451  0.00  0.00    +0.000 A 
ATOM     13 CL   UNL     1       1.058   8.923  22.032  0.00  0.00    +0.000 Cl
ATOM     14  C   UNL     1       2.107   7.156  20.281  0.00  0.00    +0.000 A 
ENDBRANCH   6   7
BRANCH   5  15
ATOM     15  C   UNL     1       5.555   5.530  18.077  0.00  0.00    +0.000 C 
ATOM     16  C   UNL     1       6.620   4.559  17.494  0.00  0.00    +0.000 C 
ATOM     17  C   UNL     1       6.295   4.126  16.063  0.00  0.00    +0.000 C 
ATOM     18  C   UNL     1       6.104   5.316  15.125  0.00  0.00    +0.000 C 
ATOM     19  C   UNL     1       5.175   6.379  15.701  0.00  0.00    +0.000 C 
ATOM     20  C   UNL     1       5.575   6.742  17.127  0.00  0.00    +0.000 C 
ENDBRANCH   5  15
BRANCH   1  21
ATOM     21  O   UNL     1       0.447   2.910  19.867  0.00  0.00    +0.000 OA
ATOM     22  H   UNL     1       0.959   2.532  20.603  0.00  0.00    +0.000 HD
ENDBRANCH   1  21
TORSDOF 3
ENDMDL
MODEL 3
REMARK VINA RESULT:      -8.2      2.367      4.042
REMARK  Name = 
REMARK  3 active torsions:
REMARK  status: ('A' for Active; 'I' for Inactive)
REMARK    1  A    between atoms: O_1  and  N_2
REMARK    2  A    between atoms: C_6  and  C_7
REMARK    3  A    between atoms: C_13  and  C_14
REMARK                            x       y       z     vdW  Elec       q    Type
REMARK                         _______ _______ _______ _____ _____    ______ ____
ROOT
ATOM      1  N   UNL     1       1.129   4.476  19.794  0.00  0.00    +0.000 NA
ATOM      2  C   UNL     1       1.981   4.466  18.815  0.00  0.00    +0.000 C 
ATOM      3  C   UNL     1       2.401   3.241  18.076  0.00  0.00    +0.000 C 
ATOM      4  C   UNL     1       3.644   3.725  17.369  0.00  0.00    +0.000 C 
ATOM      5  C   UNL     1       3.631   5.244  17.444  0.00  0.00    +0.000 C 
ATOM      6  C   UNL     1       2.666   5.697  18.280  0.00  0.00    +0.000 C 
ENDROOT
BRANCH   6   7
ATOM      7  C   UNL     1       2.235   7.047  18.683  0.00  0.00    +0.000 A 
ATOM      8  C   UNL     1       2.041   8.079  17.766  0.00  0.00    +0.000 A 
ATOM      9  C   UNL     1       1.459   9.291  18.161  0.00  0.00    +0.000 A 
ATOM     10  C   UNL     1       1.178   9.514  19.503  0.00  0.00    +0.000 A 
ATOM     11  F   UNL     1       0.600  10.670  19.860  0.00  0.00    +0.000 F 
ATOM     12  C   UNL     1       1.495   8.552  20.455  0.00  0.00    +0.000 A 
ATOM     13 CL   UNL     1       1.243   8.856  22.132  0.00  0.00    +0.000 Cl
ATOM     14  C   UNL     1       2.010   7.321  20.048  0.00  0.00    +0.000 A 
ENDBRANCH   6   7
BRANCH   5  15
ATOM     15  C   UNL     1       4.743   5.961  16.641  0.00  0.00    +0.000 C 
ATOM     16  C   UNL     1       5.855   6.594  17.524  0.00  0.00    +0.000 C 
ATOM     17  C   UNL     1       6.787   5.544  18.133  0.00  0.00    +0.000 C 
ATOM     18  C   UNL     1       7.413   4.639  17.074  0.00  0.00    +0.000 C 
ATOM     19  C   UNL     1       6.390   4.094  16.083  0.00  0.00    +0.000 C 
ATOM     20  C   UNL     1       5.509   5.210  15.535  0.00  0.00    +0.000 C 
ENDBRANCH   5  15
BRANCH   1  21
ATOM     21  O   UNL     1       0.652   3.186  20.064  0.00  0.00    +0.000 OA
ATOM     22  H   UNL     1      -0.034   3.354  20.735  0.00  0.00    +0.000 HD
ENDBRANCH   1  21
TORSDOF 3
ENDMDL
MODEL 4
REMARK VINA RESULT:      -8.0      2.718      4.445
REMARK  Name = 
REMARK  3 active torsions:
REMARK  status: ('A' for Active; 'I' for Inactive)
REMARK    1  A    between atoms: O_1  and  N_2
REMARK    2  A    between atoms: C_6  and  C_7
REMARK    3  A    between atoms: C_13  and  C_14
REMARK                            x       y       z     vdW  Elec       q    Type
REMARK                         _______ _______ _______ _____ _____    ______ ____
ROOT
ATOM      1  N   UNL     1       0.893   3.405  19.007  0.00  0.00    +0.000 NA
ATOM      2  C   UNL     1       2.047   3.539  18.428  0.00  0.00    +0.000 C 
ATOM      3  C   UNL     1       2.701   2.486  17.600  0.00  0.00    +0.000 C 
ATOM      4  C   UNL     1       4.122   2.994  17.532  0.00  0.00    +0.000 C 
ATOM      5  C   UNL     1       4.093   4.446  17.985  0.00  0.00    +0.000 C 
ATOM      6  C   UNL     1       2.891   4.785  18.507  0.00  0.00    +0.000 C 
ENDROOT
BRANCH   6   7
ATOM      7  C   UNL     1       2.352   6.039  19.062  0.00  0.00    +0.000 A 
ATOM      8  C   UNL     1       1.876   6.138  20.370  0.00  0.00    +0.000 A 
ATOM      9  C   UNL     1       1.541   7.383  20.919  0.00  0.00    +0.000 A 
ATOM     10  C   UNL     1       1.572   8.519  20.120  0.00  0.00    +0.000 A 
ATOM     11  F   UNL     1       1.271   9.705  20.668  0.00  0.00    +0.000 F 
ATOM     12  C   UNL     1       1.908   8.421  18.774  0.00  0.00    +0.000 A 
ATOM     13 CL   UNL     1       1.854   9.804  17.750  0.00  0.00    +0.000 Cl
ATOM     14  C   UNL     1       2.307   7.191  18.251  0.00  0.00    +0.000 A 
ENDBRANCH   6   7
BRANCH   5  15
ATOM     15  C   UNL     1       5.430   5.214  17.844  0.00  0.00    +0.000 C 
ATOM     16  C   UNL     1       6.589   4.367  17.250  0.00  0.00    +0.000 C 
ATOM     17  C   UNL     1       6.422   4.116  15.750  0.00  0.00    +0.000 C 
ATOM     18  C   UNL     1       6.263   5.412  14.958  0.00  0.00    +0.000 C 
ATOM     19  C   UNL     1       5.236   6.357  15.571  0.00  0.00    +0.000 C 
ATOM     20  C   UNL     1       5.482   6.542  17.064  0.00  0.00    +0.000 C 
ENDBRANCH   5  15
BRANCH   1  21
ATOM     21  O   UNL     1       0.340   2.143  18.748  0.00  0.00    +0.000 OA
ATOM     22  H   UNL     1       1.059   1.695  18.269  0.00  0.00    +0.000 HD
ENDBRANCH   1  21
TORSDOF 3
ENDMDL
MODEL 5
REMARK VINA RESULT:      -7.8      1.343      1.810
REMARK  Name = 
REMARK  3 active torsions:
REMARK  status: ('A' for Active; 'I' for Inactive)
REMARK    1  A    between atoms: O_1  and  N_2
REMARK    2  A    between atoms: C_6  and  C_7
REMARK    3  A    between atoms: C_13  and  C_14
REMARK                            x       y       z     vdW  Elec       q    Type
REMARK                         _______ _______ _______ _____ _____    ______ ____
ROOT
ATOM      1  N   UNL     1       5.586   7.385  17.444  0.00  0.00    +0.000 NA
ATOM      2  C   UNL     1       5.099   6.184  17.366  0.00  0.00    +0.000 C 
ATOM      3  C   UNL     1       5.851   5.002  16.858  0.00  0.00    +0.000 C 
ATOM      4  C   UNL     1       4.734   4.016  16.610  0.00  0.00    +0.000 C 
ATOM      5  C   UNL     1       3.506   4.551  17.332  0.00  0.00    +0.000 C 
ATOM      6  C   UNL     1       3.699   5.813  17.784  0.00  0.00    +0.000 C 
ENDROOT
BRANCH   6   7
ATOM      7  C   UNL     1       2.852   6.753  18.538  0.00  0.00    +0.000 A 
ATOM      8  C   UNL     1       2.542   6.570  19.885  0.00  0.00    +0.000 A 
ATOM      9  C   UNL     1       1.888   7.573  20.613  0.00  0.00    +0.000 A 
ATOM     10  C   UNL     1       1.440   8.715  19.963  0.00  0.00    +0.000 A 
ATOM     11  F   UNL     1       0.836   9.674  20.680  0.00  0.00    +0.000 F 
ATOM     12  C   UNL     1       1.613   8.855  18.591  0.00  0.00    +0.000 A 
ATOM     13 CL   UNL     1       0.975  10.219  17.756  0.00  0.00    +0.000 Cl
ATOM     14  C   UNL     1       2.326   7.886  17.884  0.00  0.00    +0.000 A 
ENDBRANCH   6   7
BRANCH   5  15
ATOM     15  C   UNL     1       2.276   3.611  17.341  0.00  0.00    +0.000 C 
ATOM     16  C   UNL     1       2.631   2.103  17.471  0.00  0.00    +0.000 C 
ATOM     17  C   UNL     1       3.093   1.731  18.882  0.00  0.00    +0.000 C 
ATOM     18  C   UNL     1       2.073   2.122  19.949  0.00  0.00    +0.000 C 
ATOM     19  C   UNL     1       1.573   3.554  19.792  0.00  0.00    +0.000 C 
ATOM     20  C   UNL     1       1.140   3.830  18.358  0.00  0.00    +0.000 C 
ENDBRANCH   5  15
BRANCH   1  21
ATOM     21  O   UNL     1       6.912   7.424  16.993  0.00  0.00    +0.000 OA
ATOM     22  H   UNL     1       7.036   6.528  16.632  0.00  0.00    +0.000 HD
ENDBRANCH   1  21
TORSDOF 3
ENDMDL
MODEL 6
REMARK VINA RESULT:      -7.7      3.668      5.122
REMARK  Name = 
REMARK  3 active torsions:
REMARK  status: ('A' for Active; 'I' for Inactive)
REMARK    1  A    between atoms: O_1  and  N_2
REMARK    2  A    between atoms: C_6  and  C_7
REMARK    3  A    between atoms: C_13  and  C_14
REMARK                            x       y       z     vdW  Elec       q    Type
REMARK                         _______ _______ _______ _____ _____    ______ ____
ROOT
ATOM      1  N   UNL     1       3.130   8.570  17.411  0.00  0.00    +0.000 NA
ATOM      2  C   UNL     1       2.786   7.611  18.215  0.00  0.00    +0.000 C 
ATOM      3  C   UNL     1       1.551   7.614  19.050  0.00  0.00    +0.000 C 
ATOM      4  C   UNL     1       1.852   6.516  20.041  0.00  0.00    +0.000 C 
ATOM      5  C   UNL     1       3.030   5.730  19.484  0.00  0.00    +0.000 C 
ATOM      6  C   UNL     1       3.587   6.350  18.416  0.00  0.00    +0.000 C 
ENDROOT
BRANCH   6   7
ATOM      7  C   UNL     1       4.712   6.010  17.528  0.00  0.00    +0.000 A 
ATOM      8  C   UNL     1       6.036   6.321  17.841  0.00  0.00    +0.000 A 
ATOM      9  C   UNL     1       7.091   5.824  17.065  0.00  0.00    +0.000 A 
ATOM     10  C   UNL     1       6.817   5.111  15.905  0.00  0.00    +0.000 A 
ATOM     11  F   UNL     1       7.839   4.624  15.187  0.00  0.00    +0.000 F 
ATOM     12  C   UNL     1       5.503   4.911  15.498  0.00  0.00    +0.000 A 
ATOM     13 CL   UNL     1       5.151   4.116  14.012  0.00  0.00    +0.000 Cl
ATOM     14  C   UNL     1       4.456   5.348  16.311  0.00  0.00    +0.000 A 
ENDBRANCH   6   7
BRANCH   5  15
ATOM     15  C   UNL     1       3.411   4.452  20.270  0.00  0.00    +0.000 C 
ATOM     16  C   UNL     1       2.239   3.837  21.085  0.00  0.00    +0.000 C 
ATOM     17  C   UNL     1       1.208   3.142  20.194  0.00  0.00    +0.000 C 
ATOM     18  C   UNL     1       1.838   2.077  19.298  0.00  0.00    +0.000 C 
ATOM     19  C   UNL     1       3.083   2.576  18.573  0.00  0.00    +0.000 C 
ATOM     20  C   UNL     1       4.046   3.253  19.541  0.00  0.00    +0.000 C 
ENDBRANCH   5  15
BRANCH   1  21
ATOM     21  O   UNL     1       2.187   9.607  17.426  0.00  0.00    +0.000 OA
ATOM     22  H   UNL     1       1.804   9.526  18.318  0.00  0.00    +0.000 HD
ENDBRANCH   1  21
TORSDOF 3
ENDMDL
MODEL 7
REMARK VINA RESULT:      -7.7      2.672      4.358
REMARK  Name = 
REMARK  3 active torsions:
REMARK  status: ('A' for Active; 'I' for Inactive)
REMARK    1  A    between atoms: O_1  and  N_2
REMARK    2  A    between atoms: C_6  and  C_7
REMARK    3  A    between atoms: C_13  and  C_14
REMARK                            x       y       z     vdW  Elec       q    Type
REMARK                         _______ _______ _______ _____ _____    ______ ____
ROOT
ATOM      1  N   UNL     1       1.132   3.606  19.087  0.00  0.00    +0.000 NA
ATOM      2  C   UNL     1       2.080   3.878  18.242  0.00  0.00    +0.000 C 
ATOM      3  C   UNL     1       2.620   2.912  17.243  0.00  0.00    +0.000 C 
ATOM      4  C   UNL     1       3.910   3.585  16.838  0.00  0.00    +0.000 C 
ATOM      5  C   UNL     1       3.830   5.022  17.331  0.00  0.00    +0.000 C 
ATOM      6  C   UNL     1       2.768   5.215  18.149  0.00  0.00    +0.000 C 
ENDROOT
BRANCH   6   7
ATOM      7  C   UNL     1       2.247   6.394  18.862  0.00  0.00    +0.000 A 
ATOM      8  C   UNL     1       1.856   6.351  20.200  0.00  0.00    +0.000 A 
ATOM      9  C   UNL     1       1.539   7.526  20.893  0.00  0.00    +0.000 A 
ATOM     10  C   UNL     1       1.499   8.737  20.214  0.00  0.00    +0.000 A 
ATOM     11  F   UNL     1       1.216   9.855  20.898  0.00  0.00    +0.000 F 
ATOM     12  C   UNL     1       1.747   8.782  18.847  0.00  0.00    +0.000 A 
ATOM     13 CL   UNL     1       1.604  10.260  17.974  0.00  0.00    +0.000 Cl
ATOM     14  C   UNL     1       2.130   7.620  18.176  0.00  0.00    +0.000 A 
ENDBRANCH   6   7
BRANCH   5  15
ATOM     15  C   UNL     1       4.991   5.945  16.885  0.00  0.00    +0.000 C 
ATOM     16  C   UNL     1       5.966   6.336  18.030  0.00  0.00    +0.000 C 
ATOM     17  C   UNL     1       6.872   5.176  18.449  0.00  0.00    +0.000 C 
ATOM     18  C   UNL     1       7.654   4.596  17.271  0.00  0.00    +0.000 C 
ATOM     19  C   UNL     1       6.775   4.320  16.057  0.00  0.00    +0.000 C 
ATOM     20  C   UNL     1       5.909   5.528  15.720  0.00  0.00    +0.000 C 
ENDBRANCH   5  15
BRANCH   1  21
ATOM     21  O   UNL     1       0.680   2.287  18.934  0.00  0.00    +0.000 OA
ATOM     22  H   UNL     1       0.928   2.088  18.014  0.00  0.00    +0.000 HD
ENDBRANCH   1  21
TORSDOF 3
ENDMDL
MODEL 8
REMARK VINA RESULT:      -7.6      3.433      4.929
REMARK  Name = 
REMARK  3 active torsions:
REMARK  status: ('A' for Active; 'I' for Inactive)
REMARK    1  A    between atoms: O_1  and  N_2
REMARK    2  A    between atoms: C_6  and  C_7
REMARK    3  A    between atoms: C_13  and  C_14
REMARK                            x       y       z     vdW  Elec       q    Type
REMARK                         _______ _______ _______ _____ _____    ______ ____
ROOT
ATOM      1  N   UNL     1       3.291   8.129  17.749  0.00  0.00    +0.000 NA
ATOM      2  C   UNL     1       2.749   7.295  18.583  0.00  0.00    +0.000 C 
ATOM      3  C   UNL     1       1.552   7.597  19.418  0.00  0.00    +0.000 C 
ATOM      4  C   UNL     1       1.610   6.489  20.443  0.00  0.00    +0.000 C 
ATOM      5  C   UNL     1       2.581   5.446  19.910  0.00  0.00    +0.000 C 
ATOM      6  C   UNL     1       3.253   5.895  18.823  0.00  0.00    +0.000 C 
ENDROOT
BRANCH   6   7
ATOM      7  C   UNL     1       4.269   5.288  17.945  0.00  0.00    +0.000 A 
ATOM      8  C   UNL     1       3.970   4.807  16.670  0.00  0.00    +0.000 A 
ATOM      9  C   UNL     1       4.989   4.405  15.798  0.00  0.00    +0.000 A 
ATOM     10  C   UNL     1       6.305   4.374  16.243  0.00  0.00    +0.000 A 
ATOM     11  F   UNL     1       7.270   4.009  15.388  0.00  0.00    +0.000 F 
ATOM     12  C   UNL     1       6.609   4.715  17.556  0.00  0.00    +0.000 A 
ATOM     13 CL   UNL     1       8.220   4.587  18.149  0.00  0.00    +0.000 Cl
ATOM     14  C   UNL     1       5.599   5.181  18.399  0.00  0.00    +0.000 A 
ENDBRANCH   6   7
BRANCH   5  15
ATOM     15  C   UNL     1       2.676   4.140  20.735  0.00  0.00    +0.000 C 
ATOM     16  C   UNL     1       1.301   3.478  21.034  0.00  0.00    +0.000 C 
ATOM     17  C   UNL     1       0.692   2.811  19.799  0.00  0.00    +0.000 C 
ATOM     18  C   UNL     1       1.636   1.792  19.164  0.00  0.00    +0.000 C 
ATOM     19  C   UNL     1       3.048   2.334  18.972  0.00  0.00    +0.000 C 
ATOM     20  C   UNL     1       3.566   2.980  20.251  0.00  0.00    +0.000 C 
ENDBRANCH   5  15
BRANCH   1  21
ATOM     21  O   UNL     1       2.600   9.349  17.733  0.00  0.00    +0.000 OA
ATOM     22  H   UNL     1       3.189   9.928  18.250  0.00  0.00    +0.000 HD
ENDBRANCH   1  21
TORSDOF 3
ENDMDL
MODEL 9
REMARK VINA RESULT:      -7.5      4.624      5.928
REMARK  Name = 
REMARK  3 active torsions:
REMARK  status: ('A' for Active; 'I' for Inactive)
REMARK    1  A    between atoms: O_1  and  N_2
REMARK    2  A    between atoms: C_6  and  C_7
REMARK    3  A    between atoms: C_13  and  C_14
REMARK                            x       y       z     vdW  Elec       q    Type
REMARK                         _______ _______ _______ _____ _____    ______ ____
ROOT
ATOM      1  N   UNL     1       7.727   4.866  18.134  0.00  0.00    +0.000 NA
ATOM      2  C   UNL     1       6.440   4.759  18.275  0.00  0.00    +0.000 C 
ATOM      3  C   UNL     1       5.721   4.905  19.572  0.00  0.00    +0.000 C 
ATOM      4  C   UNL     1       4.376   4.302  19.241  0.00  0.00    +0.000 C 
ATOM      5  C   UNL     1       4.295   4.209  17.725  0.00  0.00    +0.000 C 
ATOM      6  C   UNL     1       5.488   4.476  17.142  0.00  0.00    +0.000 C 
ENDROOT
BRANCH   6   7
ATOM      7  C   UNL     1       5.933   4.532  15.738  0.00  0.00    +0.000 A 
ATOM      8  C   UNL     1       7.136   5.126  15.354  0.00  0.00    +0.000 A 
ATOM      9  C   UNL     1       7.610   5.001  14.042  0.00  0.00    +0.000 A 
ATOM     10  C   UNL     1       6.824   4.379  13.081  0.00  0.00    +0.000 A 
ATOM     11  F   UNL     1       7.304   4.249  11.836  0.00  0.00    +0.000 F 
ATOM     12  C   UNL     1       5.559   3.905  13.410  0.00  0.00    +0.000 A 
ATOM     13 CL   UNL     1       4.534   3.221  12.207  0.00  0.00    +0.000 Cl
ATOM     14  C   UNL     1       5.120   3.970  14.733  0.00  0.00    +0.000 A 
ENDBRANCH   6   7
BRANCH   5  15
ATOM     15  C   UNL     1       2.928   3.760  17.156  0.00  0.00    +0.000 C 
ATOM     16  C   UNL     1       2.652   2.237  17.297  0.00  0.00    +0.000 C 
ATOM     17  C   UNL     1       2.336   1.830  18.739  0.00  0.00    +0.000 C 
ATOM     18  C   UNL     1       1.174   2.629  19.326  0.00  0.00    +0.000 C 
ATOM     19  C   UNL     1       1.312   4.130  19.096  0.00  0.00    +0.000 C 
ATOM     20  C   UNL     1       1.628   4.435  17.636  0.00  0.00    +0.000 C 
ENDBRANCH   5  15
BRANCH   1  21
ATOM     21  O   UNL     1       8.349   5.141  19.359  0.00  0.00    +0.000 OA
ATOM     22  H   UNL     1       8.886   5.926  19.148  0.00  0.00    +0.000 HD
ENDBRANCH   1  21
TORSDOF 3
ENDMDL
