MODEL 1
REMARK VINA RESULT:      -7.9      0.000      0.000
REMARK  Name = 
REMARK  10 active torsions:
REMARK  status: ('A' for Active; 'I' for Inactive)
REMARK    1  A    between atoms: C_1  and  O_2
REMARK    2  A    between atoms: O_2  and  C_3
REMARK    3  A    between atoms: C_3  and  C_5
REMARK    4  A    between atoms: C_5  and  N_6
REMARK    5  A    between atoms: C_7  and  C_9
REMARK    6  A    between atoms: N_14  and  C_15
REMARK    7  A    between atoms: C_15  and  C_16
REMARK    8  A    between atoms: N_18  and  C_19
REMARK    9  A    between atoms: C_22  and  C_23
REMARK   10  A    between atoms: C_30  and  C_31
REMARK                            x       y       z     vdW  Elec       q    Type
REMARK                         _______ _______ _______ _____ _____    ______ ____
ROOT
ATOM      1  C   UNL     1       3.757   5.809  18.570  0.00  0.00    +0.000 A 
ATOM      2  S   UNL     1       2.903   5.624  20.046  0.00  0.00    +0.000 S 
ATOM      3  C   UNL     1       2.124   7.121  19.885  0.00  0.00    +0.000 A 
ATOM      4  N   UNL     1       1.259   7.555  20.834  0.00  0.00    +0.000 NA
ATOM      5  C   UNL     1       0.717   8.702  20.583  0.00  0.00    +0.000 A 
ATOM      6  N   UNL     1       0.952   9.472  19.459  0.00  0.00    +0.000 N 
ATOM      7  C   UNL     1       1.818   9.047  18.453  0.00  0.00    +0.000 A 
ATOM      8  O   UNL     1       1.993   9.699  17.424  0.00  0.00    +0.000 OA
ATOM      9  C   UNL     1       2.475   7.770  18.721  0.00  0.00    +0.000 A 
ATOM     10  C   UNL     1       3.476   7.039  17.968  0.00  0.00    +0.000 A 
ATOM     11  C   UNL     1       4.133   7.510  16.706  0.00  0.00    +0.000 C 
ENDROOT
BRANCH   1  13
ATOM     12  N   UNL     1       4.765   4.618  16.731  0.00  0.00    +0.000 N 
ATOM     13  C   UNL     1       4.652   4.750  18.095  0.00  0.00    +0.000 C 
ATOM     14  O   UNL     1       5.297   4.014  18.843  0.00  0.00    +0.000 OA
ATOM     15  H   UNL     1       4.239   5.236  16.124  0.00  0.00    +0.000 HD
BRANCH  12  16
ATOM     16  C   UNL     1       5.656   3.652  16.111  0.00  0.00    +0.000 C 
BRANCH  16  17
ATOM     17  C   UNL     1       6.996   4.296  15.798  0.00  0.00    +0.000 C 
ATOM     18  O   UNL     1       7.903   4.437  16.613  0.00  0.00    +0.000 OA
BRANCH  17  20
ATOM     19  C   UNL     1       6.250   3.885  13.618  0.00  0.00    +0.000 C 
ATOM     20  O   UNL     1       7.040   4.690  14.495  0.00  0.00    +0.000 OA
ENDBRANCH  17  20
ENDBRANCH  16  17
ENDBRANCH  12  16
ENDBRANCH   1  13
BRANCH   6  21
ATOM     21  C   UNL     1       0.300  10.767  19.322  0.00  0.00    +0.000 C 
BRANCH  21  22
ATOM     22  C   UNL     1       0.079  11.434  20.680  0.00  0.00    +0.000 C 
ATOM     23  O   UNL     1       0.974  11.448  21.523  0.00  0.00    +0.000 OA
ATOM     24  N   UNL     1      -1.201  11.931  20.873  0.00  0.00    +0.000 N 
ATOM     25  H   UNL     1      -1.946  11.472  20.358  0.00  0.00    +0.000 HD
BRANCH  24  26
ATOM     26  C   UNL     1      -1.579  12.699  21.997  0.00  0.00    +0.000 A 
ATOM     27  C   UNL     1      -0.891  13.852  22.385  0.00  0.00    +0.000 A 
ATOM     28  C   UNL     1      -1.314  14.594  23.496  0.00  0.00    +0.000 A 
ATOM     29  C   UNL     1      -2.416  14.180  24.258  0.00  0.00    +0.000 A 
ATOM     30  C   UNL     1      -2.822  14.966  25.474  0.00  0.00    +0.000 C 
ATOM     31  C   UNL     1      -3.090  13.012  23.868  0.00  0.00    +0.000 A 
ATOM     32 CL   UNL     1      -4.406  12.381  24.794  0.00  0.00    +0.000 Cl
ATOM     33  C   UNL     1      -2.700  12.301  22.726  0.00  0.00    +0.000 A 
ENDBRANCH  24  26
ENDBRANCH  21  22
ENDBRANCH   6  21
TORSDOF 7
ENDMDL
MODEL 2
REMARK VINA RESULT:      -7.9      2.421      3.736
REMARK  Name = 
REMARK  10 active torsions:
REMARK  status: ('A' for Active; 'I' for Inactive)
REMARK    1  A    between atoms: C_1  and  O_2
REMARK    2  A    between atoms: O_2  and  C_3
REMARK    3  A    between atoms: C_3  and  C_5
REMARK    4  A    between atoms: C_5  and  N_6
REMARK    5  A    between atoms: C_7  and  C_9
REMARK    6  A    between atoms: N_14  and  C_15
REMARK    7  A    between atoms: C_15  and  C_16
REMARK    8  A    between atoms: N_18  and  C_19
REMARK    9  A    between atoms: C_22  and  C_23
REMARK   10  A    between atoms: C_30  and  C_31
REMARK                            x       y       z     vdW  Elec       q    Type
REMARK                         _______ _______ _______ _____ _____    ______ ____
ROOT
ATOM      1  C   UNL     1       5.170   5.441  16.261  0.00  0.00    +0.000 A 
ATOM      2  S   UNL     1       4.770   7.101  16.092  0.00  0.00    +0.000 S 
ATOM      3  C   UNL     1       3.743   7.081  17.440  0.00  0.00    +0.000 A 
ATOM      4  N   UNL     1       3.082   8.202  17.820  0.00  0.00    +0.000 NA
ATOM      5  C   UNL     1       2.346   8.060  18.876  0.00  0.00    +0.000 A 
ATOM      6  N   UNL     1       2.204   6.894  19.603  0.00  0.00    +0.000 N 
ATOM      7  C   UNL     1       2.885   5.728  19.253  0.00  0.00    +0.000 A 
ATOM      8  O   UNL     1       2.807   4.700  19.925  0.00  0.00    +0.000 OA
ATOM      9  C   UNL     1       3.699   5.844  18.045  0.00  0.00    +0.000 A 
ATOM     10  C   UNL     1       4.485   4.857  17.331  0.00  0.00    +0.000 A 
ATOM     11  C   UNL     1       4.577   3.401  17.674  0.00  0.00    +0.000 C 
ENDROOT
BRANCH   1  13
ATOM     12  N   UNL     1       5.586   4.296  14.179  0.00  0.00    +0.000 N 
ATOM     13  C   UNL     1       6.118   4.811  15.338  0.00  0.00    +0.000 C 
ATOM     14  O   UNL     1       7.330   4.742  15.546  0.00  0.00    +0.000 OA
ATOM     15  H   UNL     1       4.589   4.368  14.013  0.00  0.00    +0.000 HD
BRANCH  12  16
ATOM     16  C   UNL     1       6.408   3.691  13.145  0.00  0.00    +0.000 C 
BRANCH  16  17
ATOM     17  C   UNL     1       5.530   3.009  12.108  0.00  0.00    +0.000 C 
ATOM     18  O   UNL     1       5.758   1.902  11.630  0.00  0.00    +0.000 OA
BRANCH  17  20
ATOM     19  C   UNL     1       3.547   3.199  10.878  0.00  0.00    +0.000 C 
ATOM     20  O   UNL     1       4.468   3.800  11.791  0.00  0.00    +0.000 OA
ENDBRANCH  17  20
ENDBRANCH  16  17
ENDBRANCH  12  16
ENDBRANCH   1  13
BRANCH   6  21
ATOM     21  C   UNL     1       1.310   6.864  20.752  0.00  0.00    +0.000 C 
BRANCH  21  22
ATOM     22  C   UNL     1       1.113   8.258  21.350  0.00  0.00    +0.000 C 
ATOM     23  O   UNL     1       1.990   8.771  22.044  0.00  0.00    +0.000 OA
ATOM     24  N   UNL     1      -0.128   8.820  21.097  0.00  0.00    +0.000 N 
ATOM     25  H   UNL     1      -0.896   8.172  20.949  0.00  0.00    +0.000 HD
BRANCH  24  26
ATOM     26  C   UNL     1      -0.470  10.148  21.441  0.00  0.00    +0.000 A 
ATOM     27  C   UNL     1      -0.898  10.504  22.723  0.00  0.00    +0.000 A 
ATOM     28  C   UNL     1      -1.208  11.837  23.025  0.00  0.00    +0.000 A 
ATOM     29  C   UNL     1      -1.122  12.834  22.042  0.00  0.00    +0.000 A 
ATOM     30  C   UNL     1      -1.505  14.249  22.378  0.00  0.00    +0.000 C 
ATOM     31  C   UNL     1      -0.706  12.461  20.755  0.00  0.00    +0.000 A 
ATOM     32 CL   UNL     1      -0.650  13.606  19.460  0.00  0.00    +0.000 Cl
ATOM     33  C   UNL     1      -0.345  11.139  20.468  0.00  0.00    +0.000 A 
ENDBRANCH  24  26
ENDBRANCH  21  22
ENDBRANCH   6  21
TORSDOF 7
ENDMDL
MODEL 3
REMARK VINA RESULT:      -7.9      4.471     11.137
REMARK  Name = 
REMARK  10 active torsions:
REMARK  status: ('A' for Active; 'I' for Inactive)
REMARK    1  A    between atoms: C_1  and  O_2
REMARK    2  A    between atoms: O_2  and  C_3
REMARK    3  A    between atoms: C_3  and  C_5
REMARK    4  A    between atoms: C_5  and  N_6
REMARK    5  A    between atoms: C_7  and  C_9
REMARK    6  A    between atoms: N_14  and  C_15
REMARK    7  A    between atoms: C_15  and  C_16
REMARK    8  A    between atoms: N_18  and  C_19
REMARK    9  A    between atoms: C_22  and  C_23
REMARK   10  A    between atoms: C_30  and  C_31
REMARK                            x       y       z     vdW  Elec       q    Type
REMARK                         _______ _______ _______ _____ _____    ______ ____
ROOT
ATOM      1  C   UNL     1      -3.151  12.789  21.476  0.00  0.00    +0.000 A 
ATOM      2  S   UNL     1      -3.634  12.481  19.859  0.00  0.00    +0.000 S 
ATOM      3  C   UNL     1      -2.111  11.876  19.426  0.00  0.00    +0.000 A 
ATOM      4  N   UNL     1      -1.872  11.449  18.162  0.00  0.00    +0.000 NA
ATOM      5  C   UNL     1      -0.678  10.991  17.966  0.00  0.00    +0.000 A 
ATOM      6  N   UNL     1       0.318  10.913  18.921  0.00  0.00    +0.000 N 
ATOM      7  C   UNL     1       0.101  11.323  20.236  0.00  0.00    +0.000 A 
ATOM      8  O   UNL     1       0.963  11.207  21.106  0.00  0.00    +0.000 OA
ATOM      9  C   UNL     1      -1.228  11.877  20.484  0.00  0.00    +0.000 A 
ATOM     10  C   UNL     1      -1.806  12.464  21.678  0.00  0.00    +0.000 A 
ATOM     11  C   UNL     1      -1.085  12.696  22.971  0.00  0.00    +0.000 C 
ENDROOT
BRANCH   1  13
ATOM     12  N   UNL     1      -4.844  12.415  23.153  0.00  0.00    +0.000 N 
ATOM     13  C   UNL     1      -4.107  13.334  22.444  0.00  0.00    +0.000 C 
ATOM     14  O   UNL     1      -4.257  14.539  22.650  0.00  0.00    +0.000 OA
ATOM     15  H   UNL     1      -4.704  11.425  22.983  0.00  0.00    +0.000 HD
BRANCH  12  16
ATOM     16  C   UNL     1      -5.789  12.802  24.185  0.00  0.00    +0.000 C 
BRANCH  16  17
ATOM     17  C   UNL     1      -7.199  12.395  23.788  0.00  0.00    +0.000 C 
ATOM     18  O   UNL     1      -7.622  11.243  23.826  0.00  0.00    +0.000 OA
BRANCH  17  20
ATOM     19  C   UNL     1      -7.834  13.749  21.988  0.00  0.00    +0.000 C 
ATOM     20  O   UNL     1      -7.913  13.483  23.389  0.00  0.00    +0.000 OA
ENDBRANCH  17  20
ENDBRANCH  16  17
ENDBRANCH  12  16
ENDBRANCH   1  13
BRANCH   6  21
ATOM     21  C   UNL     1       1.634  10.411  18.552  0.00  0.00    +0.000 C 
BRANCH  21  22
ATOM     22  C   UNL     1       1.672   8.882  18.544  0.00  0.00    +0.000 C 
ATOM     23  O   UNL     1       1.342   8.253  17.539  0.00  0.00    +0.000 OA
ATOM     24  N   UNL     1       2.032   8.310  19.754  0.00  0.00    +0.000 N 
ATOM     25  H   UNL     1       1.822   8.850  20.589  0.00  0.00    +0.000 HD
BRANCH  24  26
ATOM     26  C   UNL     1       2.257   6.926  19.928  0.00  0.00    +0.000 A 
ATOM     27  C   UNL     1       1.361   6.100  20.613  0.00  0.00    +0.000 A 
ATOM     28  C   UNL     1       1.617   4.728  20.744  0.00  0.00    +0.000 A 
ATOM     29  C   UNL     1       2.788   4.162  20.219  0.00  0.00    +0.000 A 
ATOM     30  C   UNL     1       3.062   2.697  20.414  0.00  0.00    +0.000 C 
ATOM     31  C   UNL     1       3.687   5.005  19.547  0.00  0.00    +0.000 A 
ATOM     32 CL   UNL     1       5.192   4.412  18.939  0.00  0.00    +0.000 Cl
ATOM     33  C   UNL     1       3.405   6.365  19.369  0.00  0.00    +0.000 A 
ENDBRANCH  24  26
ENDBRANCH  21  22
ENDBRANCH   6  21
TORSDOF 7
ENDMDL
MODEL 4
REMARK VINA RESULT:      -7.8      3.508      4.297
REMARK  Name = 
REMARK  10 active torsions:
REMARK  status: ('A' for Active; 'I' for Inactive)
REMARK    1  A    between atoms: C_1  and  O_2
REMARK    2  A    between atoms: O_2  and  C_3
REMARK    3  A    between atoms: C_3  and  C_5
REMARK    4  A    between atoms: C_5  and  N_6
REMARK    5  A    between atoms: C_7  and  C_9
REMARK    6  A    between atoms: N_14  and  C_15
REMARK    7  A    between atoms: C_15  and  C_16
REMARK    8  A    between atoms: N_18  and  C_19
REMARK    9  A    between atoms: C_22  and  C_23
REMARK   10  A    between atoms: C_30  and  C_31
REMARK                            x       y       z     vdW  Elec       q    Type
REMARK                         _______ _______ _______ _____ _____    ______ ____
ROOT
ATOM      1  C   UNL     1       3.833   5.836  18.452  0.00  0.00    +0.000 A 
ATOM      2  S   UNL     1       3.131   5.571  19.995  0.00  0.00    +0.000 S 
ATOM      3  C   UNL     1       2.242   7.013  19.936  0.00  0.00    +0.000 A 
ATOM      4  N   UNL     1       1.440   7.372  20.968  0.00  0.00    +0.000 NA
ATOM      5  C   UNL     1       0.801   8.483  20.790  0.00  0.00    +0.000 A 
ATOM      6  N   UNL     1       0.880   9.283  19.666  0.00  0.00    +0.000 N 
ATOM      7  C   UNL     1       1.677   8.933  18.577  0.00  0.00    +0.000 A 
ATOM      8  O   UNL     1       1.712   9.611  17.550  0.00  0.00    +0.000 OA
ATOM      9  C   UNL     1       2.441   7.701  18.758  0.00  0.00    +0.000 A 
ATOM     10  C   UNL     1       3.415   7.052  17.903  0.00  0.00    +0.000 A 
ATOM     11  C   UNL     1       3.921   7.586  16.598  0.00  0.00    +0.000 C 
ENDROOT
BRANCH   1  13
ATOM     12  N   UNL     1       6.004   5.306  17.543  0.00  0.00    +0.000 N 
ATOM     13  C   UNL     1       4.750   4.848  17.877  0.00  0.00    +0.000 C 
ATOM     14  O   UNL     1       4.458   3.665  17.703  0.00  0.00    +0.000 OA
ATOM     15  H   UNL     1       6.238   6.280  17.701  0.00  0.00    +0.000 HD
BRANCH  12  16
ATOM     16  C   UNL     1       7.038   4.434  17.016  0.00  0.00    +0.000 C 
BRANCH  16  17
ATOM     17  C   UNL     1       7.148   4.599  15.509  0.00  0.00    +0.000 C 
ATOM     18  O   UNL     1       7.780   5.493  14.955  0.00  0.00    +0.000 OA
BRANCH  17  20
ATOM     19  C   UNL     1       5.497   4.104  13.924  0.00  0.00    +0.000 C 
ATOM     20  O   UNL     1       6.449   3.618  14.873  0.00  0.00    +0.000 OA
ENDBRANCH  17  20
ENDBRANCH  16  17
ENDBRANCH  12  16
ENDBRANCH   1  13
BRANCH   6  21
ATOM     21  C   UNL     1       0.132  10.532  19.615  0.00  0.00    +0.000 C 
BRANCH  21  22
ATOM     22  C   UNL     1       1.010  11.731  19.974  0.00  0.00    +0.000 C 
ATOM     23  O   UNL     1       1.428  11.878  21.122  0.00  0.00    +0.000 OA
ATOM     24  N   UNL     1       1.212  12.626  18.936  0.00  0.00    +0.000 N 
ATOM     25  H   UNL     1       0.484  12.671  18.230  0.00  0.00    +0.000 HD
BRANCH  24  26
ATOM     26  C   UNL     1       2.095  13.726  19.013  0.00  0.00    +0.000 A 
ATOM     27  C   UNL     1       1.739  14.933  19.623  0.00  0.00    +0.000 A 
ATOM     28  C   UNL     1       2.655  15.991  19.694  0.00  0.00    +0.000 A 
ATOM     29  C   UNL     1       3.934  15.873  19.131  0.00  0.00    +0.000 A 
ATOM     30  C   UNL     1       4.882  17.040  19.178  0.00  0.00    +0.000 C 
ATOM     31  C   UNL     1       4.275  14.663  18.508  0.00  0.00    +0.000 A 
ATOM     32 CL   UNL     1       5.797  14.455  17.715  0.00  0.00    +0.000 Cl
ATOM     33  C   UNL     1       3.379  13.586  18.485  0.00  0.00    +0.000 A 
ENDBRANCH  24  26
ENDBRANCH  21  22
ENDBRANCH   6  21
TORSDOF 7
ENDMDL
MODEL 5
REMARK VINA RESULT:      -7.7      2.631      3.382
REMARK  Name = 
REMARK  10 active torsions:
REMARK  status: ('A' for Active; 'I' for Inactive)
REMARK    1  A    between atoms: C_1  and  O_2
REMARK    2  A    between atoms: O_2  and  C_3
REMARK    3  A    between atoms: C_3  and  C_5
REMARK    4  A    between atoms: C_5  and  N_6
REMARK    5  A    between atoms: C_7  and  C_9
REMARK    6  A    between atoms: N_14  and  C_15
REMARK    7  A    between atoms: C_15  and  C_16
REMARK    8  A    between atoms: N_18  and  C_19
REMARK    9  A    between atoms: C_22  and  C_23
REMARK   10  A    between atoms: C_30  and  C_31
REMARK                            x       y       z     vdW  Elec       q    Type
REMARK                         _______ _______ _______ _____ _____    ______ ____
ROOT
ATOM      1  C   UNL     1       2.337   6.697  19.357  0.00  0.00    +0.000 A 
ATOM      2  S   UNL     1       1.730   6.572  20.956  0.00  0.00    +0.000 S 
ATOM      3  C   UNL     1       1.207   8.184  20.978  0.00  0.00    +0.000 A 
ATOM      4  N   UNL     1       0.607   8.700  22.079  0.00  0.00    +0.000 NA
ATOM      5  C   UNL     1       0.236   9.934  21.960  0.00  0.00    +0.000 A 
ATOM      6  N   UNL     1       0.403  10.717  20.834  0.00  0.00    +0.000 N 
ATOM      7  C   UNL     1       0.997  10.213  19.677  0.00  0.00    +0.000 A 
ATOM      8  O   UNL     1       1.102  10.885  18.652  0.00  0.00    +0.000 OA
ATOM      9  C   UNL     1       1.459   8.831  19.788  0.00  0.00    +0.000 A 
ATOM     10  C   UNL     1       2.174   7.990  18.848  0.00  0.00    +0.000 A 
ATOM     11  C   UNL     1       2.675   8.417  17.502  0.00  0.00    +0.000 C 
ENDROOT
BRANCH   1  13
ATOM     12  N   UNL     1       4.057   5.006  19.306  0.00  0.00    +0.000 N 
ATOM     13  C   UNL     1       2.940   5.534  18.700  0.00  0.00    +0.000 C 
ATOM     14  O   UNL     1       2.491   5.020  17.675  0.00  0.00    +0.000 OA
ATOM     15  H   UNL     1       4.411   5.430  20.156  0.00  0.00    +0.000 HD
BRANCH  12  16
ATOM     16  C   UNL     1       4.730   3.821  18.803  0.00  0.00    +0.000 C 
BRANCH  16  17
ATOM     17  C   UNL     1       4.255   2.588  19.554  0.00  0.00    +0.000 C 
ATOM     18  O   UNL     1       4.789   2.147  20.568  0.00  0.00    +0.000 OA
BRANCH  17  20
ATOM     19  C   UNL     1       1.964   2.133  19.717  0.00  0.00    +0.000 C 
ATOM     20  O   UNL     1       3.163   2.052  18.943  0.00  0.00    +0.000 OA
ENDBRANCH  17  20
ENDBRANCH  16  17
ENDBRANCH  12  16
ENDBRANCH   1  13
BRANCH   6  21
ATOM     21  C   UNL     1      -0.028  12.107  20.851  0.00  0.00    +0.000 C 
BRANCH  21  22
ATOM     22  C   UNL     1      -1.537  12.227  21.072  0.00  0.00    +0.000 C 
ATOM     23  O   UNL     1      -2.326  11.947  20.171  0.00  0.00    +0.000 OA
ATOM     24  N   UNL     1      -1.896  12.730  22.312  0.00  0.00    +0.000 N 
ATOM     25  H   UNL     1      -1.224  13.344  22.763  0.00  0.00    +0.000 HD
BRANCH  24  26
ATOM     26  C   UNL     1      -3.231  12.797  22.772  0.00  0.00    +0.000 A 
ATOM     27  C   UNL     1      -3.602  12.403  24.060  0.00  0.00    +0.000 A 
ATOM     28  C   UNL     1      -4.935  12.506  24.480  0.00  0.00    +0.000 A 
ATOM     29  C   UNL     1      -5.928  12.977  23.608  0.00  0.00    +0.000 A 
ATOM     30  C   UNL     1      -7.359  13.033  24.065  0.00  0.00    +0.000 C 
ATOM     31  C   UNL     1      -5.546  13.355  22.311  0.00  0.00    +0.000 A 
ATOM     32 CL   UNL     1      -6.712  13.868  21.143  0.00  0.00    +0.000 Cl
ATOM     33  C   UNL     1      -4.204  13.303  21.911  0.00  0.00    +0.000 A 
ENDBRANCH  24  26
ENDBRANCH  21  22
ENDBRANCH   6  21
TORSDOF 7
ENDMDL
MODEL 6
REMARK VINA RESULT:      -7.7      3.292      4.035
REMARK  Name = 
REMARK  10 active torsions:
REMARK  status: ('A' for Active; 'I' for Inactive)
REMARK    1  A    between atoms: C_1  and  O_2
REMARK    2  A    between atoms: O_2  and  C_3
REMARK    3  A    between atoms: C_3  and  C_5
REMARK    4  A    between atoms: C_5  and  N_6
REMARK    5  A    between atoms: C_7  and  C_9
REMARK    6  A    between atoms: N_14  and  C_15
REMARK    7  A    between atoms: C_15  and  C_16
REMARK    8  A    between atoms: N_18  and  C_19
REMARK    9  A    between atoms: C_22  and  C_23
REMARK   10  A    between atoms: C_30  and  C_31
REMARK                            x       y       z     vdW  Elec       q    Type
REMARK                         _______ _______ _______ _____ _____    ______ ____
ROOT
ATOM      1  C   UNL     1       4.318   5.753  18.196  0.00  0.00    +0.000 A 
ATOM      2  S   UNL     1       3.614   5.351  19.708  0.00  0.00    +0.000 S 
ATOM      3  C   UNL     1       2.603   6.712  19.699  0.00  0.00    +0.000 A 
ATOM      4  N   UNL     1       1.754   6.948  20.729  0.00  0.00    +0.000 NA
ATOM      5  C   UNL     1       1.023   8.007  20.591  0.00  0.00    +0.000 A 
ATOM      6  N   UNL     1       1.053   8.867  19.509  0.00  0.00    +0.000 N 
ATOM      7  C   UNL     1       1.897   8.642  18.422  0.00  0.00    +0.000 A 
ATOM      8  O   UNL     1       1.892   9.371  17.431  0.00  0.00    +0.000 OA
ATOM      9  C   UNL     1       2.762   7.473  18.561  0.00  0.00    +0.000 A 
ATOM     10  C   UNL     1       3.805   6.955  17.698  0.00  0.00    +0.000 A 
ATOM     11  C   UNL     1       4.286   7.595  16.431  0.00  0.00    +0.000 C 
ENDROOT
BRANCH   1  13
ATOM     12  N   UNL     1       5.014   4.344  16.366  0.00  0.00    +0.000 N 
ATOM     13  C   UNL     1       5.328   4.879  17.594  0.00  0.00    +0.000 C 
ATOM     14  O   UNL     1       6.414   4.629  18.118  0.00  0.00    +0.000 OA
ATOM     15  H   UNL     1       4.122   4.566  15.938  0.00  0.00    +0.000 HD
BRANCH  12  16
ATOM     16  C   UNL     1       5.937   3.506  15.621  0.00  0.00    +0.000 C 
BRANCH  16  17
ATOM     17  C   UNL     1       6.533   4.283  14.459  0.00  0.00    +0.000 C 
ATOM     18  O   UNL     1       7.411   5.132  14.572  0.00  0.00    +0.000 OA
BRANCH  17  20
ATOM     19  C   UNL     1       6.874   3.762  12.202  0.00  0.00    +0.000 C 
ATOM     20  O   UNL     1       5.954   3.901  13.287  0.00  0.00    +0.000 OA
ENDBRANCH  17  20
ENDBRANCH  16  17
ENDBRANCH  12  16
ENDBRANCH   1  13
BRANCH   6  21
ATOM     21  C   UNL     1       0.200  10.047  19.502  0.00  0.00    +0.000 C 
BRANCH  21  22
ATOM     22  C   UNL     1       1.004  11.326  19.734  0.00  0.00    +0.000 C 
ATOM     23  O   UNL     1       1.443  11.595  20.852  0.00  0.00    +0.000 OA
ATOM     24  N   UNL     1       1.117  12.143  18.620  0.00  0.00    +0.000 N 
ATOM     25  H   UNL     1       0.367  12.082  17.937  0.00  0.00    +0.000 HD
BRANCH  24  26
ATOM     26  C   UNL     1       1.925  13.302  18.579  0.00  0.00    +0.000 A 
ATOM     27  C   UNL     1       3.291  13.254  18.286  0.00  0.00    +0.000 A 
ATOM     28  C   UNL     1       4.049  14.431  18.236  0.00  0.00    +0.000 A 
ATOM     29  C   UNL     1       3.463  15.676  18.510  0.00  0.00    +0.000 A 
ATOM     30  C   UNL     1       4.308  16.919  18.497  0.00  0.00    +0.000 C 
ATOM     31  C   UNL     1       2.094  15.709  18.819  0.00  0.00    +0.000 A 
ATOM     32 CL   UNL     1       1.305  17.185  19.249  0.00  0.00    +0.000 Cl
ATOM     33  C   UNL     1       1.325  14.539  18.814  0.00  0.00    +0.000 A 
ENDBRANCH  24  26
ENDBRANCH  21  22
ENDBRANCH   6  21
TORSDOF 7
ENDMDL
MODEL 7
REMARK VINA RESULT:      -7.7      4.577     11.165
REMARK  Name = 
REMARK  10 active torsions:
REMARK  status: ('A' for Active; 'I' for Inactive)
REMARK    1  A    between atoms: C_1  and  O_2
REMARK    2  A    between atoms: O_2  and  C_3
REMARK    3  A    between atoms: C_3  and  C_5
REMARK    4  A    between atoms: C_5  and  N_6
REMARK    5  A    between atoms: C_7  and  C_9
REMARK    6  A    between atoms: N_14  and  C_15
REMARK    7  A    between atoms: C_15  and  C_16
REMARK    8  A    between atoms: N_18  and  C_19
REMARK    9  A    between atoms: C_22  and  C_23
REMARK   10  A    between atoms: C_30  and  C_31
REMARK                            x       y       z     vdW  Elec       q    Type
REMARK                         _______ _______ _______ _____ _____    ______ ____
ROOT
ATOM      1  C   UNL     1      -3.099  12.701  21.812  0.00  0.00    +0.000 A 
ATOM      2  S   UNL     1      -1.780  12.359  22.854  0.00  0.00    +0.000 S 
ATOM      3  C   UNL     1      -0.764  11.921  21.569  0.00  0.00    +0.000 A 
ATOM      4  N   UNL     1       0.508  11.518  21.802  0.00  0.00    +0.000 NA
ATOM      5  C   UNL     1       1.185  11.231  20.737  0.00  0.00    +0.000 A 
ATOM      6  N   UNL     1       0.712  11.311  19.441  0.00  0.00    +0.000 N 
ATOM      7  C   UNL     1      -0.585  11.743  19.163  0.00  0.00    +0.000 A 
ATOM      8  O   UNL     1      -0.997  11.869  18.011  0.00  0.00    +0.000 OA
ATOM      9  C   UNL     1      -1.388  12.042  20.346  0.00  0.00    +0.000 A 
ATOM     10  C   UNL     1      -2.775  12.442  20.476  0.00  0.00    +0.000 A 
ATOM     11  C   UNL     1      -3.753  12.577  19.349  0.00  0.00    +0.000 C 
ENDROOT
BRANCH   1  13
ATOM     12  N   UNL     1      -5.020  12.347  23.227  0.00  0.00    +0.000 N 
ATOM     13  C   UNL     1      -4.367  13.191  22.359  0.00  0.00    +0.000 C 
ATOM     14  O   UNL     1      -4.844  14.295  22.094  0.00  0.00    +0.000 OA
ATOM     15  H   UNL     1      -4.614  11.445  23.447  0.00  0.00    +0.000 HD
BRANCH  12  16
ATOM     16  C   UNL     1      -6.258  12.717  23.892  0.00  0.00    +0.000 C 
BRANCH  16  17
ATOM     17  C   UNL     1      -7.424  11.939  23.305  0.00  0.00    +0.000 C 
ATOM     18  O   UNL     1      -7.913  10.936  23.815  0.00  0.00    +0.000 OA
BRANCH  17  20
ATOM     19  C   UNL     1      -7.769  11.646  21.008  0.00  0.00    +0.000 C 
ATOM     20  O   UNL     1      -7.840  12.513  22.142  0.00  0.00    +0.000 OA
ENDBRANCH  17  20
ENDBRANCH  16  17
ENDBRANCH  12  16
ENDBRANCH   1  13
BRANCH   6  21
ATOM     21  C   UNL     1       1.573  10.920  18.333  0.00  0.00    +0.000 C 
BRANCH  21  22
ATOM     22  C   UNL     1       1.543   9.409  18.101  0.00  0.00    +0.000 C 
ATOM     23  O   UNL     1       0.616   8.890  17.481  0.00  0.00    +0.000 OA
ATOM     24  N   UNL     1       2.584   8.716  18.699  0.00  0.00    +0.000 N 
ATOM     25  H   UNL     1       2.987   9.136  19.531  0.00  0.00    +0.000 HD
BRANCH  24  26
ATOM     26  C   UNL     1       2.820   7.337  18.500  0.00  0.00    +0.000 A 
ATOM     27  C   UNL     1       2.225   6.352  19.295  0.00  0.00    +0.000 A 
ATOM     28  C   UNL     1       2.473   4.995  19.049  0.00  0.00    +0.000 A 
ATOM     29  C   UNL     1       3.343   4.598  18.023  0.00  0.00    +0.000 A 
ATOM     30  C   UNL     1       3.630   3.137  17.810  0.00  0.00    +0.000 C 
ATOM     31  C   UNL     1       3.946   5.597  17.243  0.00  0.00    +0.000 A 
ATOM     32 CL   UNL     1       5.095   5.205  16.012  0.00  0.00    +0.000 Cl
ATOM     33  C   UNL     1       3.656   6.950  17.453  0.00  0.00    +0.000 A 
ENDBRANCH  24  26
ENDBRANCH  21  22
ENDBRANCH   6  21
TORSDOF 7
ENDMDL
MODEL 8
REMARK VINA RESULT:      -7.6      2.108      2.868
REMARK  Name = 
REMARK  10 active torsions:
REMARK  status: ('A' for Active; 'I' for Inactive)
REMARK    1  A    between atoms: C_1  and  O_2
REMARK    2  A    between atoms: O_2  and  C_3
REMARK    3  A    between atoms: C_3  and  C_5
REMARK    4  A    between atoms: C_5  and  N_6
REMARK    5  A    between atoms: C_7  and  C_9
REMARK    6  A    between atoms: N_14  and  C_15
REMARK    7  A    between atoms: C_15  and  C_16
REMARK    8  A    between atoms: N_18  and  C_19
REMARK    9  A    between atoms: C_22  and  C_23
REMARK   10  A    between atoms: C_30  and  C_31
REMARK                            x       y       z     vdW  Elec       q    Type
REMARK                         _______ _______ _______ _____ _____    ______ ____
ROOT
ATOM      1  C   UNL     1       2.280   6.783  19.177  0.00  0.00    +0.000 A 
ATOM      2  S   UNL     1       1.768   6.576  20.801  0.00  0.00    +0.000 S 
ATOM      3  C   UNL     1       1.282   8.194  20.947  0.00  0.00    +0.000 A 
ATOM      4  N   UNL     1       0.761   8.655  22.110  0.00  0.00    +0.000 NA
ATOM      5  C   UNL     1       0.411   9.901  22.085  0.00  0.00    +0.000 A 
ATOM      6  N   UNL     1       0.529  10.745  20.997  0.00  0.00    +0.000 N 
ATOM      7  C   UNL     1       1.040  10.298  19.779  0.00  0.00    +0.000 A 
ATOM      8  O   UNL     1       1.098  11.027  18.790  0.00  0.00    +0.000 OA
ATOM      9  C   UNL     1       1.477   8.904  19.783  0.00  0.00    +0.000 A 
ATOM     10  C   UNL     1       2.115   8.106  18.755  0.00  0.00    +0.000 A 
ATOM     11  C   UNL     1       2.544   8.602  17.407  0.00  0.00    +0.000 C 
ENDROOT
BRANCH   1  13
ATOM     12  N   UNL     1       4.187   5.554  18.359  0.00  0.00    +0.000 N 
ATOM     13  C   UNL     1       2.816   5.649  18.419  0.00  0.00    +0.000 C 
ATOM     14  O   UNL     1       2.112   4.801  17.870  0.00  0.00    +0.000 OA
ATOM     15  H   UNL     1       4.757   6.251  18.824  0.00  0.00    +0.000 HD
BRANCH  12  16
ATOM     16  C   UNL     1       4.864   4.455  17.692  0.00  0.00    +0.000 C 
BRANCH  16  17
ATOM     17  C   UNL     1       6.367   4.567  17.886  0.00  0.00    +0.000 C 
ATOM     18  O   UNL     1       7.193   4.411  16.992  0.00  0.00    +0.000 OA
BRANCH  17  20
ATOM     19  C   UNL     1       7.755   5.764  19.343  0.00  0.00    +0.000 C 
ATOM     20  O   UNL     1       6.657   4.863  19.183  0.00  0.00    +0.000 OA
ENDBRANCH  17  20
ENDBRANCH  16  17
ENDBRANCH  12  16
ENDBRANCH   1  13
BRANCH   6  21
ATOM     21  C   UNL     1       0.130  12.140  21.120  0.00  0.00    +0.000 C 
BRANCH  21  22
ATOM     22  C   UNL     1      -1.381  12.280  21.314  0.00  0.00    +0.000 C 
ATOM     23  O   UNL     1      -2.162  11.898  20.444  0.00  0.00    +0.000 OA
ATOM     24  N   UNL     1      -1.752  12.920  22.486  0.00  0.00    +0.000 N 
ATOM     25  H   UNL     1      -1.084  13.583  22.870  0.00  0.00    +0.000 HD
BRANCH  24  26
ATOM     26  C   UNL     1      -3.090  13.035  22.924  0.00  0.00    +0.000 A 
ATOM     27  C   UNL     1      -3.595  12.296  23.998  0.00  0.00    +0.000 A 
ATOM     28  C   UNL     1      -4.925  12.458  24.410  0.00  0.00    +0.000 A 
ATOM     29  C   UNL     1      -5.783  13.339  23.736  0.00  0.00    +0.000 A 
ATOM     30  C   UNL     1      -7.219  13.459  24.168  0.00  0.00    +0.000 C 
ATOM     31  C   UNL     1      -5.269  14.063  22.650  0.00  0.00    +0.000 A 
ATOM     32 CL   UNL     1      -6.275  15.109  21.710  0.00  0.00    +0.000 Cl
ATOM     33  C   UNL     1      -3.926  13.942  22.273  0.00  0.00    +0.000 A 
ENDBRANCH  24  26
ENDBRANCH  21  22
ENDBRANCH   6  21
TORSDOF 7
ENDMDL
MODEL 9
REMARK VINA RESULT:      -7.6      3.571      4.472
REMARK  Name = 
REMARK  10 active torsions:
REMARK  status: ('A' for Active; 'I' for Inactive)
REMARK    1  A    between atoms: C_1  and  O_2
REMARK    2  A    between atoms: O_2  and  C_3
REMARK    3  A    between atoms: C_3  and  C_5
REMARK    4  A    between atoms: C_5  and  N_6
REMARK    5  A    between atoms: C_7  and  C_9
REMARK    6  A    between atoms: N_14  and  C_15
REMARK    7  A    between atoms: C_15  and  C_16
REMARK    8  A    between atoms: N_18  and  C_19
REMARK    9  A    between atoms: C_22  and  C_23
REMARK   10  A    between atoms: C_30  and  C_31
REMARK                            x       y       z     vdW  Elec       q    Type
REMARK                         _______ _______ _______ _____ _____    ______ ____
ROOT
ATOM      1  C   UNL     1       3.410   5.923  18.823  0.00  0.00    +0.000 A 
ATOM      2  S   UNL     1       2.590   5.714  20.316  0.00  0.00    +0.000 S 
ATOM      3  C   UNL     1       1.823   7.222  20.207  0.00  0.00    +0.000 A 
ATOM      4  N   UNL     1       0.987   7.643  21.187  0.00  0.00    +0.000 NA
ATOM      5  C   UNL     1       0.450   8.801  20.974  0.00  0.00    +0.000 A 
ATOM      6  N   UNL     1       0.665   9.593  19.862  0.00  0.00    +0.000 N 
ATOM      7  C   UNL     1       1.502   9.182  18.825  0.00  0.00    +0.000 A 
ATOM      8  O   UNL     1       1.657   9.855  17.807  0.00  0.00    +0.000 OA
ATOM      9  C   UNL     1       2.152   7.893  19.049  0.00  0.00    +0.000 A 
ATOM     10  C   UNL     1       3.126   7.169  18.255  0.00  0.00    +0.000 A 
ATOM     11  C   UNL     1       3.757   7.662  16.988  0.00  0.00    +0.000 C 
ENDROOT
BRANCH   1  13
ATOM     12  N   UNL     1       4.741   5.037  17.018  0.00  0.00    +0.000 N 
ATOM     13  C   UNL     1       4.282   4.867  18.303  0.00  0.00    +0.000 C 
ATOM     14  O   UNL     1       4.620   3.878  18.955  0.00  0.00    +0.000 OA
ATOM     15  H   UNL     1       4.465   5.860  16.494  0.00  0.00    +0.000 HD
BRANCH  12  16
ATOM     16  C   UNL     1       5.657   4.103  16.386  0.00  0.00    +0.000 C 
BRANCH  16  17
ATOM     17  C   UNL     1       7.042   4.720  16.272  0.00  0.00    +0.000 C 
ATOM     18  O   UNL     1       7.413   5.416  15.333  0.00  0.00    +0.000 OA
BRANCH  17  20
ATOM     19  C   UNL     1       7.830   5.391  18.372  0.00  0.00    +0.000 C 
ATOM     20  O   UNL     1       7.799   4.388  17.354  0.00  0.00    +0.000 OA
ENDBRANCH  17  20
ENDBRANCH  16  17
ENDBRANCH  12  16
ENDBRANCH   1  13
BRANCH   6  21
ATOM     21  C   UNL     1       0.023  10.897  19.769  0.00  0.00    +0.000 C 
BRANCH  21  22
ATOM     22  C   UNL     1       1.000  12.030  20.085  0.00  0.00    +0.000 C 
ATOM     23  O   UNL     1       1.483  12.144  21.211  0.00  0.00    +0.000 OA
ATOM     24  N   UNL     1       1.213  12.913  19.038  0.00  0.00    +0.000 N 
ATOM     25  H   UNL     1       0.455  13.011  18.368  0.00  0.00    +0.000 HD
BRANCH  24  26
ATOM     26  C   UNL     1       2.173  13.949  19.072  0.00  0.00    +0.000 A 
ATOM     27  C   UNL     1       1.917  15.191  19.658  0.00  0.00    +0.000 A 
ATOM     28  C   UNL     1       2.907  16.183  19.686  0.00  0.00    +0.000 A 
ATOM     29  C   UNL     1       4.162  15.961  19.101  0.00  0.00    +0.000 A 
ATOM     30  C   UNL     1       5.191  17.057  19.102  0.00  0.00    +0.000 C 
ATOM     31  C   UNL     1       4.402  14.715  18.501  0.00  0.00    +0.000 A 
ATOM     32 CL   UNL     1       5.888  14.381  17.685  0.00  0.00    +0.000 Cl
ATOM     33  C   UNL     1       3.431  13.705  18.522  0.00  0.00    +0.000 A 
ENDBRANCH  24  26
ENDBRANCH  21  22
ENDBRANCH   6  21
TORSDOF 7
ENDMDL
