MODEL 1
REMARK VINA RESULT:      -6.1      0.000      0.000
REMARK  Name = 
REMARK  7 active torsions:
REMARK  status: ('A' for Active; 'I' for Inactive)
REMARK    1  A    between atoms: C_1  and  N_2
REMARK    2  A    between atoms: C_5  and  C_6
REMARK    3  A    between atoms: C_6  and  C_7
REMARK    4  A    between atoms: C_7  and  N_8
REMARK    5  A    between atoms: C_9  and  O_11
REMARK    6  A    between atoms: O_11  and  C_12
REMARK    7  A    between atoms: C_12  and  C_13
REMARK                            x       y       z     vdW  Elec       q    Type
REMARK                         _______ _______ _______ _____ _____    ______ ____
ROOT
ATOM      1  N   UNL     1       7.184   4.175  16.960  0.00  0.00    +0.000 N 
ATOM      2  C   UNL     1       7.144   4.605  15.669  0.00  0.00    +0.000 C 
ATOM      3  O   UNL     1       7.491   5.712  15.284  0.00  0.00    +0.000 OA
ATOM      4  H   UNL     1       6.594   3.374  17.139  0.00  0.00    +0.000 HD
ENDROOT
BRANCH   1   5
ATOM      5  C   UNL     1       7.489   5.073  18.056  0.00  0.00    +0.000 C 
BRANCH   5   6
ATOM      6  C   UNL     1       6.278   5.825  18.619  0.00  0.00    +0.000 C 
BRANCH   6  11
ATOM      7  C   UNL     1       1.731   3.739  19.201  0.00  0.00    +0.000 C 
ATOM      8  N   UNL     1       3.146   4.007  19.166  0.00  0.00    +0.000 N 
ATOM      9  C   UNL     1       4.130   3.114  19.477  0.00  0.00    +0.000 A 
ATOM     10  N   UNL     1       5.324   3.650  19.357  0.00  0.00    +0.000 NA
ATOM     11  C   UNL     1       5.112   4.943  18.922  0.00  0.00    +0.000 A 
ATOM     12  C   UNL     1       3.759   5.177  18.809  0.00  0.00    +0.000 A 
ATOM     13 BR   UNL     1       2.932   6.759  18.273  0.00  0.00    +0.000 Br
ENDBRANCH   6  11
ENDBRANCH   5   6
ENDBRANCH   1   5
BRANCH   2  14
ATOM     14  O   UNL     1       6.599   3.638  14.896  0.00  0.00    +0.000 OA
BRANCH  14  15
ATOM     15  C   UNL     1       5.434   4.022  14.153  0.00  0.00    +0.000 C 
BRANCH  15  16
ATOM     16  C   UNL     1       5.593   4.229  12.641  0.00  0.00    +0.000 C 
ATOM     17  C   UNL     1       6.910   3.737  12.061  0.00  0.00    +0.000 C 
ATOM     18  C   UNL     1       6.624   2.285  11.767  0.00  0.00    +0.000 C 
ATOM     19  C   UNL     1       5.162   2.300  11.376  0.00  0.00    +0.000 C 
ATOM     20  O   UNL     1       4.565   3.449  11.989  0.00  0.00    +0.000 OA
ENDBRANCH  15  16
ENDBRANCH  14  15
ENDBRANCH   2  14
TORSDOF 6
ENDMDL
MODEL 2
REMARK VINA RESULT:      -6.1      3.244      4.847
REMARK  Name = 
REMARK  7 active torsions:
REMARK  status: ('A' for Active; 'I' for Inactive)
REMARK    1  A    between atoms: C_1  and  N_2
REMARK    2  A    between atoms: C_5  and  C_6
REMARK    3  A    between atoms: C_6  and  C_7
REMARK    4  A    between atoms: C_7  and  N_8
REMARK    5  A    between atoms: C_9  and  O_11
REMARK    6  A    between atoms: O_11  and  C_12
REMARK    7  A    between atoms: C_12  and  C_13
REMARK                            x       y       z     vdW  Elec       q    Type
REMARK                         _______ _______ _______ _____ _____    ______ ____
ROOT
ATOM      1  N   UNL     1       4.170   4.684  18.595  0.00  0.00    +0.000 N 
ATOM      2  C   UNL     1       5.094   3.831  19.117  0.00  0.00    +0.000 C 
ATOM      3  O   UNL     1       4.856   2.946  19.926  0.00  0.00    +0.000 OA
ATOM      4  H   UNL     1       4.572   5.520  18.192  0.00  0.00    +0.000 HD
ENDROOT
BRANCH   1   5
ATOM      5  C   UNL     1       2.810   4.738  19.094  0.00  0.00    +0.000 C 
BRANCH   5   6
ATOM      6  C   UNL     1       2.529   5.897  20.056  0.00  0.00    +0.000 C 
BRANCH   6  11
ATOM      7  C   UNL     1       1.183  10.581  18.786  0.00  0.00    +0.000 C 
ATOM      8  N   UNL     1       1.691   9.233  18.798  0.00  0.00    +0.000 N 
ATOM      9  C   UNL     1       2.357   8.627  17.772  0.00  0.00    +0.000 A 
ATOM     10  N   UNL     1       2.692   7.393  18.076  0.00  0.00    +0.000 NA
ATOM     11  C   UNL     1       2.250   7.193  19.369  0.00  0.00    +0.000 A 
ATOM     12  C   UNL     1       1.618   8.330  19.823  0.00  0.00    +0.000 A 
ATOM     13 BR   UNL     1       0.831   8.588  21.493  0.00  0.00    +0.000 Br
ENDBRANCH   6  11
ENDBRANCH   5   6
ENDBRANCH   1   5
BRANCH   2  14
ATOM     14  O   UNL     1       6.319   4.162  18.648  0.00  0.00    +0.000 OA
BRANCH  14  15
ATOM     15  C   UNL     1       6.509   5.550  18.342  0.00  0.00    +0.000 C 
BRANCH  15  16
ATOM     16  C   UNL     1       7.002   5.905  16.932  0.00  0.00    +0.000 C 
ATOM     17  C   UNL     1       7.037   4.741  15.954  0.00  0.00    +0.000 C 
ATOM     18  C   UNL     1       5.636   4.733  15.392  0.00  0.00    +0.000 C 
ATOM     19  C   UNL     1       5.269   6.201  15.377  0.00  0.00    +0.000 C 
ATOM     20  O   UNL     1       6.064   6.854  16.375  0.00  0.00    +0.000 OA
ENDBRANCH  15  16
ENDBRANCH  14  15
ENDBRANCH   2  14
TORSDOF 6
ENDMDL
MODEL 3
REMARK VINA RESULT:      -6.0      1.889      2.511
REMARK  Name = 
REMARK  7 active torsions:
REMARK  status: ('A' for Active; 'I' for Inactive)
REMARK    1  A    between atoms: C_1  and  N_2
REMARK    2  A    between atoms: C_5  and  C_6
REMARK    3  A    between atoms: C_6  and  C_7
REMARK    4  A    between atoms: C_7  and  N_8
REMARK    5  A    between atoms: C_9  and  O_11
REMARK    6  A    between atoms: O_11  and  C_12
REMARK    7  A    between atoms: C_12  and  C_13
REMARK                            x       y       z     vdW  Elec       q    Type
REMARK                         _______ _______ _______ _____ _____    ______ ____
ROOT
ATOM      1  N   UNL     1       6.327   4.314  18.288  0.00  0.00    +0.000 N 
ATOM      2  C   UNL     1       7.611   4.670  18.005  0.00  0.00    +0.000 C 
ATOM      3  O   UNL     1       8.383   5.201  18.788  0.00  0.00    +0.000 OA
ATOM      4  H   UNL     1       5.755   4.174  17.466  0.00  0.00    +0.000 HD
ENDROOT
BRANCH   1   5
ATOM      5  C   UNL     1       5.683   4.700  19.527  0.00  0.00    +0.000 C 
BRANCH   5   6
ATOM      6  C   UNL     1       4.307   5.352  19.353  0.00  0.00    +0.000 C 
BRANCH   6  11
ATOM      7  C   UNL     1       0.454   2.166  18.740  0.00  0.00    +0.000 C 
ATOM      8  N   UNL     1       1.577   3.047  18.545  0.00  0.00    +0.000 N 
ATOM      9  C   UNL     1       2.100   3.411  17.338  0.00  0.00    +0.000 A 
ATOM     10  N   UNL     1       3.125   4.221  17.480  0.00  0.00    +0.000 NA
ATOM     11  C   UNL     1       3.261   4.418  18.840  0.00  0.00    +0.000 A 
ATOM     12  C   UNL     1       2.307   3.684  19.511  0.00  0.00    +0.000 A 
ATOM     13 BR   UNL     1       2.058   3.584  21.356  0.00  0.00    +0.000 Br
ENDBRANCH   6  11
ENDBRANCH   5   6
ENDBRANCH   1   5
BRANCH   2  14
ATOM     14  O   UNL     1       7.869   4.400  16.704  0.00  0.00    +0.000 OA
BRANCH  14  15
ATOM     15  C   UNL     1       6.737   4.006  15.917  0.00  0.00    +0.000 C 
BRANCH  15  16
ATOM     16  C   UNL     1       6.334   4.915  14.748  0.00  0.00    +0.000 C 
ATOM     17  C   UNL     1       7.290   4.901  13.567  0.00  0.00    +0.000 C 
ATOM     18  C   UNL     1       6.793   3.735  12.747  0.00  0.00    +0.000 C 
ATOM     19  C   UNL     1       5.298   3.770  12.980  0.00  0.00    +0.000 C 
ATOM     20  O   UNL     1       5.074   4.424  14.236  0.00  0.00    +0.000 OA
ENDBRANCH  15  16
ENDBRANCH  14  15
ENDBRANCH   2  14
TORSDOF 6
ENDMDL
MODEL 4
REMARK VINA RESULT:      -5.9      1.582      1.691
REMARK  Name = 
REMARK  7 active torsions:
REMARK  status: ('A' for Active; 'I' for Inactive)
REMARK    1  A    between atoms: C_1  and  N_2
REMARK    2  A    between atoms: C_5  and  C_6
REMARK    3  A    between atoms: C_6  and  C_7
REMARK    4  A    between atoms: C_7  and  N_8
REMARK    5  A    between atoms: C_9  and  O_11
REMARK    6  A    between atoms: O_11  and  C_12
REMARK    7  A    between atoms: C_12  and  C_13
REMARK                            x       y       z     vdW  Elec       q    Type
REMARK                         _______ _______ _______ _____ _____    ______ ____
ROOT
ATOM      1  N   UNL     1       5.785   5.612  15.917  0.00  0.00    +0.000 N 
ATOM      2  C   UNL     1       6.943   4.917  15.746  0.00  0.00    +0.000 C 
ATOM      3  O   UNL     1       7.752   4.670  16.628  0.00  0.00    +0.000 OA
ATOM      4  H   UNL     1       5.400   5.978  15.056  0.00  0.00    +0.000 HD
ENDROOT
BRANCH   1   5
ATOM      5  C   UNL     1       5.478   6.293  17.159  0.00  0.00    +0.000 C 
BRANCH   5   6
ATOM      6  C   UNL     1       3.990   6.308  17.527  0.00  0.00    +0.000 C 
BRANCH   6  11
ATOM      7  C   UNL     1       1.589   2.338  19.487  0.00  0.00    +0.000 C 
ATOM      8  N   UNL     1       2.389   3.221  18.678  0.00  0.00    +0.000 N 
ATOM      9  C   UNL     1       3.031   2.876  17.523  0.00  0.00    +0.000 A 
ATOM     10  N   UNL     1       3.686   3.894  17.012  0.00  0.00    +0.000 NA
ATOM     11  C   UNL     1       3.439   4.960  17.855  0.00  0.00    +0.000 A 
ATOM     12  C   UNL     1       2.640   4.548  18.899  0.00  0.00    +0.000 A 
ATOM     13 BR   UNL     1       2.022   5.586  20.319  0.00  0.00    +0.000 Br
ENDBRANCH   6  11
ENDBRANCH   5   6
ENDBRANCH   1   5
BRANCH   2  14
ATOM     14  O   UNL     1       7.083   4.603  14.438  0.00  0.00    +0.000 OA
BRANCH  14  15
ATOM     15  C   UNL     1       6.026   3.816  13.874  0.00  0.00    +0.000 C 
BRANCH  15  16
ATOM     16  C   UNL     1       5.837   3.866  12.351  0.00  0.00    +0.000 C 
ATOM     17  C   UNL     1       7.113   3.695  11.542  0.00  0.00    +0.000 C 
ATOM     18  C   UNL     1       7.229   2.196  11.412  0.00  0.00    +0.000 C 
ATOM     19  C   UNL     1       5.785   1.750  11.339  0.00  0.00    +0.000 C 
ATOM     20  O   UNL     1       4.991   2.753  11.985  0.00  0.00    +0.000 OA
ENDBRANCH  15  16
ENDBRANCH  14  15
ENDBRANCH   2  14
TORSDOF 6
ENDMDL
MODEL 5
REMARK VINA RESULT:      -5.9      4.391      6.916
REMARK  Name = 
REMARK  7 active torsions:
REMARK  status: ('A' for Active; 'I' for Inactive)
REMARK    1  A    between atoms: C_1  and  N_2
REMARK    2  A    between atoms: C_5  and  C_6
REMARK    3  A    between atoms: C_6  and  C_7
REMARK    4  A    between atoms: C_7  and  N_8
REMARK    5  A    between atoms: C_9  and  O_11
REMARK    6  A    between atoms: O_11  and  C_12
REMARK    7  A    between atoms: C_12  and  C_13
REMARK                            x       y       z     vdW  Elec       q    Type
REMARK                         _______ _______ _______ _____ _____    ______ ____
ROOT
ATOM      1  N   UNL     1       8.337   7.263  18.801  0.00  0.00    +0.000 N 
ATOM      2  C   UNL     1       7.737   7.964  17.799  0.00  0.00    +0.000 C 
ATOM      3  O   UNL     1       6.727   7.617  17.205  0.00  0.00    +0.000 OA
ATOM      4  H   UNL     1       9.298   7.531  18.964  0.00  0.00    +0.000 HD
ENDROOT
BRANCH   1   5
ATOM      5  C   UNL     1       7.921   5.919  19.150  0.00  0.00    +0.000 C 
BRANCH   5   6
ATOM      6  C   UNL     1       7.536   5.041  17.955  0.00  0.00    +0.000 C 
BRANCH   6  11
ATOM      7  C   UNL     1       2.950   3.139  17.110  0.00  0.00    +0.000 C 
ATOM      8  N   UNL     1       4.169   3.620  17.706  0.00  0.00    +0.000 N 
ATOM      9  C   UNL     1       4.472   3.579  19.037  0.00  0.00    +0.000 A 
ATOM     10  N   UNL     1       5.655   4.097  19.279  0.00  0.00    +0.000 NA
ATOM     11  C   UNL     1       6.160   4.468  18.049  0.00  0.00    +0.000 A 
ATOM     12  C   UNL     1       5.239   4.183  17.065  0.00  0.00    +0.000 A 
ATOM     13 BR   UNL     1       5.415   4.494  15.236  0.00  0.00    +0.000 Br
ENDBRANCH   6  11
ENDBRANCH   5   6
ENDBRANCH   1   5
BRANCH   2  14
ATOM     14  O   UNL     1       8.474   9.065  17.526  0.00  0.00    +0.000 OA
BRANCH  14  15
ATOM     15  C   UNL     1       8.947   9.792  18.667  0.00  0.00    +0.000 C 
BRANCH  15  16
ATOM     16  C   UNL     1       9.306  11.271  18.469  0.00  0.00    +0.000 C 
ATOM     17  C   UNL     1       9.611  12.033  19.749  0.00  0.00    +0.000 C 
ATOM     18  C   UNL     1      11.083  11.770  19.953  0.00  0.00    +0.000 C 
ATOM     19  C   UNL     1      11.613  11.697  18.537  0.00  0.00    +0.000 C 
ATOM     20  O   UNL     1      10.522  11.319  17.688  0.00  0.00    +0.000 OA
ENDBRANCH  15  16
ENDBRANCH  14  15
ENDBRANCH   2  14
TORSDOF 6
ENDMDL
MODEL 6
REMARK VINA RESULT:      -5.9      3.243      5.198
REMARK  Name = 
REMARK  7 active torsions:
REMARK  status: ('A' for Active; 'I' for Inactive)
REMARK    1  A    between atoms: C_1  and  N_2
REMARK    2  A    between atoms: C_5  and  C_6
REMARK    3  A    between atoms: C_6  and  C_7
REMARK    4  A    between atoms: C_7  and  N_8
REMARK    5  A    between atoms: C_9  and  O_11
REMARK    6  A    between atoms: O_11  and  C_12
REMARK    7  A    between atoms: C_12  and  C_13
REMARK                            x       y       z     vdW  Elec       q    Type
REMARK                         _______ _______ _______ _____ _____    ______ ____
ROOT
ATOM      1  N   UNL     1       2.877   4.838  17.599  0.00  0.00    +0.000 N 
ATOM      2  C   UNL     1       3.897   3.957  17.400  0.00  0.00    +0.000 C 
ATOM      3  O   UNL     1       4.277   3.126  18.211  0.00  0.00    +0.000 OA
ATOM      4  H   UNL     1       2.897   5.630  16.970  0.00  0.00    +0.000 HD
ENDROOT
BRANCH   1   5
ATOM      5  C   UNL     1       2.243   4.993  18.893  0.00  0.00    +0.000 C 
BRANCH   5   6
ATOM      6  C   UNL     1       2.738   6.194  19.706  0.00  0.00    +0.000 C 
BRANCH   6  11
ATOM      7  C   UNL     1       0.796  10.793  19.046  0.00  0.00    +0.000 C 
ATOM      8  N   UNL     1       1.443   9.518  18.877  0.00  0.00    +0.000 N 
ATOM      9  C   UNL     1       2.077   9.094  17.744  0.00  0.00    +0.000 A 
ATOM     10  N   UNL     1       2.566   7.883  17.889  0.00  0.00    +0.000 NA
ATOM     11  C   UNL     1       2.264   7.510  19.184  0.00  0.00    +0.000 A 
ATOM     12  C   UNL     1       1.557   8.518  19.803  0.00  0.00    +0.000 A 
ATOM     13 BR   UNL     1       0.897   8.521  21.546  0.00  0.00    +0.000 Br
ENDBRANCH   6  11
ENDBRANCH   5   6
ENDBRANCH   1   5
BRANCH   2  14
ATOM     14  O   UNL     1       4.459   4.195  16.193  0.00  0.00    +0.000 OA
BRANCH  14  15
ATOM     15  C   UNL     1       5.823   3.776  16.052  0.00  0.00    +0.000 C 
BRANCH  15  16
ATOM     16  C   UNL     1       6.910   4.857  16.136  0.00  0.00    +0.000 C 
ATOM     17  C   UNL     1       6.446   6.188  16.705  0.00  0.00    +0.000 C 
ATOM     18  C   UNL     1       6.616   5.994  18.193  0.00  0.00    +0.000 C 
ATOM     19  C   UNL     1       7.832   5.098  18.281  0.00  0.00    +0.000 C 
ATOM     20  O   UNL     1       7.925   4.376  17.046  0.00  0.00    +0.000 OA
ENDBRANCH  15  16
ENDBRANCH  14  15
ENDBRANCH   2  14
TORSDOF 6
ENDMDL
MODEL 7
REMARK VINA RESULT:      -5.8      3.613      5.540
REMARK  Name = 
REMARK  7 active torsions:
REMARK  status: ('A' for Active; 'I' for Inactive)
REMARK    1  A    between atoms: C_1  and  N_2
REMARK    2  A    between atoms: C_5  and  C_6
REMARK    3  A    between atoms: C_6  and  C_7
REMARK    4  A    between atoms: C_7  and  N_8
REMARK    5  A    between atoms: C_9  and  O_11
REMARK    6  A    between atoms: O_11  and  C_12
REMARK    7  A    between atoms: C_12  and  C_13
REMARK                            x       y       z     vdW  Elec       q    Type
REMARK                         _______ _______ _______ _____ _____    ______ ____
ROOT
ATOM      1  N   UNL     1       2.820   5.416  18.093  0.00  0.00    +0.000 N 
ATOM      2  C   UNL     1       3.912   4.631  17.883  0.00  0.00    +0.000 C 
ATOM      3  O   UNL     1       4.349   3.808  18.674  0.00  0.00    +0.000 OA
ATOM      4  H   UNL     1       2.782   6.228  17.491  0.00  0.00    +0.000 HD
ENDROOT
BRANCH   1   5
ATOM      5  C   UNL     1       2.155   5.474  19.380  0.00  0.00    +0.000 C 
BRANCH   5   6
ATOM      6  C   UNL     1       2.416   6.758  20.174  0.00  0.00    +0.000 C 
BRANCH   6  11
ATOM      7  C   UNL     1       0.295  11.165  18.969  0.00  0.00    +0.000 C 
ATOM      8  N   UNL     1       1.014   9.917  18.959  0.00  0.00    +0.000 N 
ATOM      9  C   UNL     1       1.737   9.425  17.910  0.00  0.00    +0.000 A 
ATOM     10  N   UNL     1       2.275   8.262  18.198  0.00  0.00    +0.000 NA
ATOM     11  C   UNL     1       1.911   7.993  19.503  0.00  0.00    +0.000 A 
ATOM     12  C   UNL     1       1.118   9.013  19.981  0.00  0.00    +0.000 A 
ATOM     13 BR   UNL     1       0.352   9.141  21.676  0.00  0.00    +0.000 Br
ENDBRANCH   6  11
ENDBRANCH   5   6
ENDBRANCH   1   5
BRANCH   2  14
ATOM     14  O   UNL     1       4.470   4.955  16.694  0.00  0.00    +0.000 OA
BRANCH  14  15
ATOM     15  C   UNL     1       5.158   6.213  16.656  0.00  0.00    +0.000 C 
BRANCH  15  16
ATOM     16  C   UNL     1       6.685   6.182  16.510  0.00  0.00    +0.000 C 
ATOM     17  C   UNL     1       7.446   6.955  17.576  0.00  0.00    +0.000 C 
ATOM     18  C   UNL     1       7.596   5.939  18.682  0.00  0.00    +0.000 C 
ATOM     19  C   UNL     1       7.735   4.635  17.928  0.00  0.00    +0.000 C 
ATOM     20  O   UNL     1       7.104   4.806  16.653  0.00  0.00    +0.000 OA
ENDBRANCH  15  16
ENDBRANCH  14  15
ENDBRANCH   2  14
TORSDOF 6
ENDMDL
MODEL 8
REMARK VINA RESULT:      -5.8      1.874      2.346
REMARK  Name = 
REMARK  7 active torsions:
REMARK  status: ('A' for Active; 'I' for Inactive)
REMARK    1  A    between atoms: C_1  and  N_2
REMARK    2  A    between atoms: C_5  and  C_6
REMARK    3  A    between atoms: C_6  and  C_7
REMARK    4  A    between atoms: C_7  and  N_8
REMARK    5  A    between atoms: C_9  and  O_11
REMARK    6  A    between atoms: O_11  and  C_12
REMARK    7  A    between atoms: C_12  and  C_13
REMARK                            x       y       z     vdW  Elec       q    Type
REMARK                         _______ _______ _______ _____ _____    ______ ____
ROOT
ATOM      1  N   UNL     1       5.627   5.806  17.073  0.00  0.00    +0.000 N 
ATOM      2  C   UNL     1       6.931   6.132  16.857  0.00  0.00    +0.000 C 
ATOM      3  O   UNL     1       7.381   7.268  16.847  0.00  0.00    +0.000 OA
ATOM      4  H   UNL     1       5.381   4.879  16.752  0.00  0.00    +0.000 HD
ENDROOT
BRANCH   1   5
ATOM      5  C   UNL     1       4.588   6.815  17.141  0.00  0.00    +0.000 C 
BRANCH   5   6
ATOM      6  C   UNL     1       3.493   6.534  18.176  0.00  0.00    +0.000 C 
BRANCH   6  11
ATOM      7  C   UNL     1       1.246   2.113  19.057  0.00  0.00    +0.000 C 
ATOM      8  N   UNL     1       1.997   3.205  18.493  0.00  0.00    +0.000 N 
ATOM      9  C   UNL     1       2.601   3.205  17.269  0.00  0.00    +0.000 A 
ATOM     10  N   UNL     1       3.216   4.342  17.033  0.00  0.00    +0.000 NA
ATOM     11  C   UNL     1       2.981   5.131  18.142  0.00  0.00    +0.000 A 
ATOM     12  C   UNL     1       2.231   4.429  19.059  0.00  0.00    +0.000 A 
ATOM     13 BR   UNL     1       1.648   5.024  20.727  0.00  0.00    +0.000 Br
ENDBRANCH   6  11
ENDBRANCH   5   6
ENDBRANCH   1   5
BRANCH   2  14
ATOM     14  O   UNL     1       7.631   5.005  16.592  0.00  0.00    +0.000 OA
BRANCH  14  15
ATOM     15  C   UNL     1       7.140   4.214  15.502  0.00  0.00    +0.000 C 
BRANCH  15  16
ATOM     16  C   UNL     1       6.531   4.955  14.304  0.00  0.00    +0.000 C 
ATOM     17  C   UNL     1       7.304   4.815  13.003  0.00  0.00    +0.000 C 
ATOM     18  C   UNL     1       6.745   3.542  12.416  0.00  0.00    +0.000 C 
ATOM     19  C   UNL     1       5.300   3.568  12.866  0.00  0.00    +0.000 C 
ATOM     20  O   UNL     1       5.233   4.371  14.051  0.00  0.00    +0.000 OA
ENDBRANCH  15  16
ENDBRANCH  14  15
ENDBRANCH   2  14
TORSDOF 6
ENDMDL
MODEL 9
REMARK VINA RESULT:      -5.7      4.354      6.666
REMARK  Name = 
REMARK  7 active torsions:
REMARK  status: ('A' for Active; 'I' for Inactive)
REMARK    1  A    between atoms: C_1  and  N_2
REMARK    2  A    between atoms: C_5  and  C_6
REMARK    3  A    between atoms: C_6  and  C_7
REMARK    4  A    between atoms: C_7  and  N_8
REMARK    5  A    between atoms: C_9  and  O_11
REMARK    6  A    between atoms: O_11  and  C_12
REMARK    7  A    between atoms: C_12  and  C_13
REMARK                            x       y       z     vdW  Elec       q    Type
REMARK                         _______ _______ _______ _____ _____    ______ ____
ROOT
ATOM      1  N   UNL     1       3.194   3.288  19.877  0.00  0.00    +0.000 N 
ATOM      2  C   UNL     1       1.848   3.458  19.993  0.00  0.00    +0.000 C 
ATOM      3  O   UNL     1       1.003   2.850  19.353  0.00  0.00    +0.000 OA
ATOM      4  H   UNL     1       3.734   4.061  20.243  0.00  0.00    +0.000 HD
ENDROOT
BRANCH   1   5
ATOM      5  C   UNL     1       3.773   2.470  18.830  0.00  0.00    +0.000 C 
BRANCH   5   6
ATOM      6  C   UNL     1       4.260   3.253  17.606  0.00  0.00    +0.000 C 
BRANCH   6  11
ATOM      7  C   UNL     1       7.488   7.119  17.607  0.00  0.00    +0.000 C 
ATOM      8  N   UNL     1       6.686   5.975  17.956  0.00  0.00    +0.000 N 
ATOM      9  C   UNL     1       6.631   5.391  19.189  0.00  0.00    +0.000 A 
ATOM     10  N   UNL     1       5.813   4.362  19.200  0.00  0.00    +0.000 NA
ATOM     11  C   UNL     1       5.289   4.287  17.925  0.00  0.00    +0.000 A 
ATOM     12  C   UNL     1       5.833   5.282  17.142  0.00  0.00    +0.000 A 
ATOM     13 BR   UNL     1       5.475   5.619  15.343  0.00  0.00    +0.000 Br
ENDBRANCH   6  11
ENDBRANCH   5   6
ENDBRANCH   1   5
BRANCH   2  14
ATOM     14  O   UNL     1       1.601   4.451  20.880  0.00  0.00    +0.000 OA
BRANCH  14  15
ATOM     15  C   UNL     1       1.243   5.716  20.308  0.00  0.00    +0.000 C 
BRANCH  15  16
ATOM     16  C   UNL     1       2.360   6.753  20.122  0.00  0.00    +0.000 C 
ATOM     17  C   UNL     1       2.916   6.849  18.711  0.00  0.00    +0.000 C 
ATOM     18  C   UNL     1       1.982   7.831  18.048  0.00  0.00    +0.000 C 
ATOM     19  C   UNL     1       1.622   8.771  19.179  0.00  0.00    +0.000 C 
ATOM     20  O   UNL     1       1.792   8.052  20.406  0.00  0.00    +0.000 OA
ENDBRANCH  15  16
ENDBRANCH  14  15
ENDBRANCH   2  14
TORSDOF 6
ENDMDL
