MODEL 1
REMARK VINA RESULT:      -8.5      0.000      0.000
REMARK  Name = 
REMARK  4 active torsions:
REMARK  status: ('A' for Active; 'I' for Inactive)
REMARK    1  A    between atoms: C_2  and  C_3
REMARK    2  A    between atoms: C_12  and  S_13
REMARK    3  A    between atoms: S_13  and  C_14
REMARK    4  A    between atoms: C_14  and  C_15
REMARK                            x       y       z     vdW  Elec       q    Type
REMARK                         _______ _______ _______ _____ _____    ______ ____
ROOT
ATOM      1  C   UNL     1       1.821   4.296  20.549  0.00  0.00    +0.000 A 
ATOM      2  C   UNL     1       1.730   5.607  21.064  0.00  0.00    +0.000 A 
ATOM      3  C   UNL     1       1.811   6.724  20.201  0.00  0.00    +0.000 A 
ATOM      4  C   UNL     1       1.530   8.066  20.568  0.00  0.00    +0.000 A 
ATOM      5  C   UNL     1       1.587   9.016  19.566  0.00  0.00    +0.000 A 
ATOM      6  C   UNL     1       2.065   8.713  18.311  0.00  0.00    +0.000 A 
ATOM      7  C   UNL     1       2.364   7.435  17.934  0.00  0.00    +0.000 A 
ATOM      8  C   UNL     1       2.147   6.435  18.855  0.00  0.00    +0.000 A 
ATOM      9  N   UNL     1       2.203   5.212  18.361  0.00  0.00    +0.000 NA
ATOM     10  C   UNL     1       1.998   4.150  19.171  0.00  0.00    +0.000 A 
ATOM     11  O   UNL     1       2.019   9.772  17.459  0.00  0.00    +0.000 OA
ATOM     12  C   UNL     1       1.026  10.537  18.159  0.00  0.00    +0.000 C 
ATOM     13  O   UNL     1       1.072  10.282  19.587  0.00  0.00    +0.000 OA
ENDROOT
BRANCH   1  15
ATOM     14  N   UNL     1       1.659   2.333  22.238  0.00  0.00    +0.000 NA
ATOM     15  C   UNL     1       1.747   3.182  21.457  0.00  0.00    +0.000 C 
ENDBRANCH   1  15
BRANCH  10  16
ATOM     16  S   UNL     1       1.861   2.628  18.246  0.00  0.00    +0.000 S 
BRANCH  16  17
ATOM     17  C   UNL     1       3.600   2.451  17.636  0.00  0.00    +0.000 C 
BRANCH  17  18
ATOM     18  C   UNL     1       4.596   3.188  18.526  0.00  0.00    +0.000 C 
ATOM     19  O   UNL     1       4.803   2.868  19.699  0.00  0.00    +0.000 OA
ATOM     20  N   UNL     1       5.314   4.216  17.929  0.00  0.00    +0.000 N 
ATOM     21  C   UNL     1       5.142   4.742  16.571  0.00  0.00    +0.000 C 
ATOM     22  C   UNL     1       6.461   4.655  15.792  0.00  0.00    +0.000 C 
ATOM     23  O   UNL     1       7.531   5.289  16.511  0.00  0.00    +0.000 OA
ATOM     24  C   UNL     1       7.709   4.688  17.807  0.00  0.00    +0.000 C 
ATOM     25  C   UNL     1       6.435   4.817  18.650  0.00  0.00    +0.000 C 
ENDBRANCH  17  18
ENDBRANCH  16  17
ENDBRANCH  10  16
TORSDOF 4
ENDMDL
MODEL 2
REMARK VINA RESULT:      -7.8      1.354      1.823
REMARK  Name = 
REMARK  4 active torsions:
REMARK  status: ('A' for Active; 'I' for Inactive)
REMARK    1  A    between atoms: C_2  and  C_3
REMARK    2  A    between atoms: C_12  and  S_13
REMARK    3  A    between atoms: S_13  and  C_14
REMARK    4  A    between atoms: C_14  and  C_15
REMARK                            x       y       z     vdW  Elec       q    Type
REMARK                         _______ _______ _______ _____ _____    ______ ____
ROOT
ATOM      1  C   UNL     1       2.185   4.764  20.403  0.00  0.00    +0.000 A 
ATOM      2  C   UNL     1       1.759   5.940  21.058  0.00  0.00    +0.000 A 
ATOM      3  C   UNL     1       1.671   7.162  20.352  0.00  0.00    +0.000 A 
ATOM      4  C   UNL     1       1.068   8.350  20.843  0.00  0.00    +0.000 A 
ATOM      5  C   UNL     1       1.006   9.426  19.977  0.00  0.00    +0.000 A 
ATOM      6  C   UNL     1       1.653   9.412  18.762  0.00  0.00    +0.000 A 
ATOM      7  C   UNL     1       2.260   8.291  18.272  0.00  0.00    +0.000 A 
ATOM      8  C   UNL     1       2.186   7.147  19.032  0.00  0.00    +0.000 A 
ATOM      9  N   UNL     1       2.556   6.045  18.404  0.00  0.00    +0.000 NA
ATOM     10  C   UNL     1       2.517   4.859  19.049  0.00  0.00    +0.000 A 
ATOM     11  O   UNL     1       1.453  10.551  18.045  0.00  0.00    +0.000 OA
ATOM     12  C   UNL     1       0.256  10.985  18.707  0.00  0.00    +0.000 C 
ATOM     13  O   UNL     1       0.224  10.542  20.088  0.00  0.00    +0.000 OA
ENDROOT
BRANCH   1  15
ATOM     14  N   UNL     1       2.291   2.580  21.799  0.00  0.00    +0.000 NA
ATOM     15  C   UNL     1       2.276   3.540  21.154  0.00  0.00    +0.000 C 
ENDBRANCH   1  15
BRANCH  10  16
ATOM     16  S   UNL     1       2.806   3.491  17.937  0.00  0.00    +0.000 S 
BRANCH  16  17
ATOM     17  C   UNL     1       4.655   3.442  17.943  0.00  0.00    +0.000 C 
BRANCH  17  18
ATOM     18  C   UNL     1       5.258   4.439  16.958  0.00  0.00    +0.000 C 
ATOM     19  O   UNL     1       4.674   4.795  15.932  0.00  0.00    +0.000 OA
ATOM     20  N   UNL     1       6.489   4.980  17.304  0.00  0.00    +0.000 N 
ATOM     21  C   UNL     1       7.322   4.618  18.454  0.00  0.00    +0.000 C 
ATOM     22  C   UNL     1       7.611   5.854  19.316  0.00  0.00    +0.000 C 
ATOM     23  O   UNL     1       8.170   6.917  18.528  0.00  0.00    +0.000 OA
ATOM     24  C   UNL     1       7.282   7.287  17.458  0.00  0.00    +0.000 C 
ATOM     25  C   UNL     1       7.022   6.098  16.526  0.00  0.00    +0.000 C 
ENDBRANCH  17  18
ENDBRANCH  16  17
ENDBRANCH  10  16
TORSDOF 4
ENDMDL
MODEL 3
REMARK VINA RESULT:      -7.8      2.221      4.442
REMARK  Name = 
REMARK  4 active torsions:
REMARK  status: ('A' for Active; 'I' for Inactive)
REMARK    1  A    between atoms: C_2  and  C_3
REMARK    2  A    between atoms: C_12  and  S_13
REMARK    3  A    between atoms: S_13  and  C_14
REMARK    4  A    between atoms: C_14  and  C_15
REMARK                            x       y       z     vdW  Elec       q    Type
REMARK                         _______ _______ _______ _____ _____    ______ ____
ROOT
ATOM      1  C   UNL     1       4.327   6.596  17.196  0.00  0.00    +0.000 A 
ATOM      2  C   UNL     1       3.342   7.605  17.125  0.00  0.00    +0.000 A 
ATOM      3  C   UNL     1       2.559   7.924  18.258  0.00  0.00    +0.000 A 
ATOM      4  C   UNL     1       1.691   9.043  18.365  0.00  0.00    +0.000 A 
ATOM      5  C   UNL     1       1.066   9.237  19.582  0.00  0.00    +0.000 A 
ATOM      6  C   UNL     1       1.135   8.298  20.587  0.00  0.00    +0.000 A 
ATOM      7  C   UNL     1       1.944   7.201  20.504  0.00  0.00    +0.000 A 
ATOM      8  C   UNL     1       2.720   7.069  19.376  0.00  0.00    +0.000 A 
ATOM      9  N   UNL     1       3.661   6.145  19.461  0.00  0.00    +0.000 NA
ATOM     10  C   UNL     1       4.490   5.933  18.416  0.00  0.00    +0.000 A 
ATOM     11  O   UNL     1       0.477   8.682  21.714  0.00  0.00    +0.000 OA
ATOM     12  C   UNL     1       0.464  10.094  21.456  0.00  0.00    +0.000 C 
ATOM     13  O   UNL     1       0.450  10.372  20.032  0.00  0.00    +0.000 OA
ENDROOT
BRANCH   1  15
ATOM     14  N   UNL     1       5.778   6.034  15.120  0.00  0.00    +0.000 NA
ATOM     15  C   UNL     1       5.098   6.287  16.021  0.00  0.00    +0.000 C 
ENDBRANCH   1  15
BRANCH  10  16
ATOM     16  S   UNL     1       5.832   4.836  18.848  0.00  0.00    +0.000 S 
BRANCH  16  17
ATOM     17  C   UNL     1       5.088   3.204  18.392  0.00  0.00    +0.000 C 
BRANCH  17  18
ATOM     18  C   UNL     1       4.376   2.550  19.572  0.00  0.00    +0.000 C 
ATOM     19  O   UNL     1       4.974   2.167  20.580  0.00  0.00    +0.000 OA
ATOM     20  N   UNL     1       2.993   2.458  19.482  0.00  0.00    +0.000 N 
ATOM     21  C   UNL     1       2.155   2.818  18.335  0.00  0.00    +0.000 C 
ATOM     22  C   UNL     1       1.101   3.855  18.746  0.00  0.00    +0.000 C 
ATOM     23  O   UNL     1       0.342   3.403  19.878  0.00  0.00    +0.000 OA
ATOM     24  C   UNL     1       1.202   3.135  21.002  0.00  0.00    +0.000 C 
ATOM     25  C   UNL     1       2.227   2.048  20.659  0.00  0.00    +0.000 C 
ENDBRANCH  17  18
ENDBRANCH  16  17
ENDBRANCH  10  16
TORSDOF 4
ENDMDL
MODEL 4
REMARK VINA RESULT:      -7.5      4.260      8.144
REMARK  Name = 
REMARK  4 active torsions:
REMARK  status: ('A' for Active; 'I' for Inactive)
REMARK    1  A    between atoms: C_2  and  C_3
REMARK    2  A    between atoms: C_12  and  S_13
REMARK    3  A    between atoms: S_13  and  C_14
REMARK    4  A    between atoms: C_14  and  C_15
REMARK                            x       y       z     vdW  Elec       q    Type
REMARK                         _______ _______ _______ _____ _____    ______ ____
ROOT
ATOM      1  C   UNL     1       0.416   9.516  21.384  0.00  0.00    +0.000 A 
ATOM      2  C   UNL     1       0.805   8.159  21.421  0.00  0.00    +0.000 A 
ATOM      3  C   UNL     1       1.573   7.604  20.372  0.00  0.00    +0.000 A 
ATOM      4  C   UNL     1       2.190   6.326  20.395  0.00  0.00    +0.000 A 
ATOM      5  C   UNL     1       2.969   5.985  19.306  0.00  0.00    +0.000 A 
ATOM      6  C   UNL     1       3.004   6.766  18.172  0.00  0.00    +0.000 A 
ATOM      7  C   UNL     1       2.403   7.990  18.112  0.00  0.00    +0.000 A 
ATOM      8  C   UNL     1       1.767   8.441  19.245  0.00  0.00    +0.000 A 
ATOM      9  N   UNL     1       1.433   9.719  19.216  0.00  0.00    +0.000 NA
ATOM     10  C   UNL     1       0.811  10.275  20.279  0.00  0.00    +0.000 A 
ATOM     11  O   UNL     1       3.846   6.277  17.221  0.00  0.00    +0.000 OA
ATOM     12  C   UNL     1       4.653   5.460  18.083  0.00  0.00    +0.000 C 
ATOM     13  O   UNL     1       3.893   4.981  19.223  0.00  0.00    +0.000 OA
ENDROOT
BRANCH   1  15
ATOM     14  N   UNL     1      -0.971  10.534  23.326  0.00  0.00    +0.000 NA
ATOM     15  C   UNL     1      -0.376  10.046  22.463  0.00  0.00    +0.000 C 
ENDBRANCH   1  15
BRANCH  10  16
ATOM     16  S   UNL     1       0.696  12.051  20.125  0.00  0.00    +0.000 S 
BRANCH  16  17
ATOM     17  C   UNL     1      -0.358  12.185  18.610  0.00  0.00    +0.000 C 
BRANCH  17  18
ATOM     18  C   UNL     1      -1.843  12.045  18.932  0.00  0.00    +0.000 C 
ATOM     19  O   UNL     1      -2.379  12.640  19.869  0.00  0.00    +0.000 OA
ATOM     20  N   UNL     1      -2.587  11.248  18.070  0.00  0.00    +0.000 N 
ATOM     21  C   UNL     1      -2.084  10.442  16.954  0.00  0.00    +0.000 C 
ATOM     22  C   UNL     1      -2.780  10.844  15.647  0.00  0.00    +0.000 C 
ATOM     23  O   UNL     1      -4.209  10.789  15.782  0.00  0.00    +0.000 OA
ATOM     24  C   UNL     1      -4.661  11.654  16.841  0.00  0.00    +0.000 C 
ATOM     25  C   UNL     1      -4.045  11.243  18.184  0.00  0.00    +0.000 C 
ENDBRANCH  17  18
ENDBRANCH  16  17
ENDBRANCH  10  16
TORSDOF 4
ENDMDL
MODEL 5
REMARK VINA RESULT:      -7.1      3.802      7.830
REMARK  Name = 
REMARK  4 active torsions:
REMARK  status: ('A' for Active; 'I' for Inactive)
REMARK    1  A    between atoms: C_2  and  C_3
REMARK    2  A    between atoms: C_12  and  S_13
REMARK    3  A    between atoms: S_13  and  C_14
REMARK    4  A    between atoms: C_14  and  C_15
REMARK                            x       y       z     vdW  Elec       q    Type
REMARK                         _______ _______ _______ _____ _____    ______ ____
ROOT
ATOM      1  C   UNL     1       0.983   8.219  20.743  0.00  0.00    +0.000 A 
ATOM      2  C   UNL     1       1.492   6.907  20.859  0.00  0.00    +0.000 A 
ATOM      3  C   UNL     1       2.387   6.398  19.891  0.00  0.00    +0.000 A 
ATOM      4  C   UNL     1       3.116   5.185  20.007  0.00  0.00    +0.000 A 
ATOM      5  C   UNL     1       4.006   4.888  18.993  0.00  0.00    +0.000 A 
ATOM      6  C   UNL     1       4.058   5.635  17.837  0.00  0.00    +0.000 A 
ATOM      7  C   UNL     1       3.353   6.795  17.687  0.00  0.00    +0.000 A 
ATOM      8  C   UNL     1       2.592   7.216  18.753  0.00  0.00    +0.000 A 
ATOM      9  N   UNL     1       2.145   8.455  18.652  0.00  0.00    +0.000 NA
ATOM     10  C   UNL     1       1.392   8.980  19.644  0.00  0.00    +0.000 A 
ATOM     11  O   UNL     1       5.014   5.201  16.971  0.00  0.00    +0.000 OA
ATOM     12  C   UNL     1       5.822   4.490  17.920  0.00  0.00    +0.000 C 
ATOM     13  O   UNL     1       5.023   3.974  19.016  0.00  0.00    +0.000 OA
ENDROOT
BRANCH   1  15
ATOM     14  N   UNL     1      -0.616   9.115  22.579  0.00  0.00    +0.000 NA
ATOM     15  C   UNL     1       0.063   8.703  21.739  0.00  0.00    +0.000 C 
ENDBRANCH   1  15
BRANCH  10  16
ATOM     16  S   UNL     1       1.126  10.732  19.418  0.00  0.00    +0.000 S 
BRANCH  16  17
ATOM     17  C   UNL     1      -0.125  10.705  18.054  0.00  0.00    +0.000 C 
BRANCH  17  18
ATOM     18  C   UNL     1      -1.546  10.891  18.577  0.00  0.00    +0.000 C 
ATOM     19  O   UNL     1      -1.789  11.396  19.675  0.00  0.00    +0.000 OA
ATOM     20  N   UNL     1      -2.572  10.512  17.720  0.00  0.00    +0.000 N 
ATOM     21  C   UNL     1      -2.439   9.853  16.418  0.00  0.00    +0.000 C 
ATOM     22  C   UNL     1      -3.124  10.685  15.325  0.00  0.00    +0.000 C 
ATOM     23  O   UNL     1      -4.487  10.976  15.672  0.00  0.00    +0.000 OA
ATOM     24  C   UNL     1      -4.559  11.689  16.921  0.00  0.00    +0.000 C 
ATOM     25  C   UNL     1      -3.951  10.863  18.059  0.00  0.00    +0.000 C 
ENDBRANCH  17  18
ENDBRANCH  16  17
ENDBRANCH  10  16
TORSDOF 4
ENDMDL
MODEL 6
REMARK VINA RESULT:      -7.1      2.487      5.493
REMARK  Name = 
REMARK  4 active torsions:
REMARK  status: ('A' for Active; 'I' for Inactive)
REMARK    1  A    between atoms: C_2  and  C_3
REMARK    2  A    between atoms: C_12  and  S_13
REMARK    3  A    between atoms: S_13  and  C_14
REMARK    4  A    between atoms: C_14  and  C_15
REMARK                            x       y       z     vdW  Elec       q    Type
REMARK                         _______ _______ _______ _____ _____    ______ ____
ROOT
ATOM      1  C   UNL     1       2.289   8.110  18.566  0.00  0.00    +0.000 A 
ATOM      2  C   UNL     1       3.091   8.145  17.404  0.00  0.00    +0.000 A 
ATOM      3  C   UNL     1       4.093   7.170  17.195  0.00  0.00    +0.000 A 
ATOM      4  C   UNL     1       4.814   6.982  15.986  0.00  0.00    +0.000 A 
ATOM      5  C   UNL     1       5.702   5.924  15.943  0.00  0.00    +0.000 A 
ATOM      6  C   UNL     1       6.009   5.194  17.069  0.00  0.00    +0.000 A 
ATOM      7  C   UNL     1       5.348   5.366  18.252  0.00  0.00    +0.000 A 
ATOM      8  C   UNL     1       4.331   6.292  18.281  0.00  0.00    +0.000 A 
ATOM      9  N   UNL     1       3.565   6.233  19.356  0.00  0.00    +0.000 NA
ATOM     10  C   UNL     1       2.528   7.089  19.489  0.00  0.00    +0.000 A 
ATOM     11  O   UNL     1       6.883   4.181  16.819  0.00  0.00    +0.000 OA
ATOM     12  C   UNL     1       6.654   4.077  15.406  0.00  0.00    +0.000 C 
ATOM     13  O   UNL     1       6.267   5.354  14.836  0.00  0.00    +0.000 OA
ENDROOT
BRANCH   1  15
ATOM     14  N   UNL     1       0.536   9.990  18.918  0.00  0.00    +0.000 NA
ATOM     15  C   UNL     1       1.287   9.125  18.754  0.00  0.00    +0.000 C 
ENDBRANCH   1  15
BRANCH  10  16
ATOM     16  S   UNL     1       1.488   6.657  20.876  0.00  0.00    +0.000 S 
BRANCH  16  17
ATOM     17  C   UNL     1       2.109   4.952  21.239  0.00  0.00    +0.000 C 
BRANCH  17  18
ATOM     18  C   UNL     1       1.416   3.896  20.383  0.00  0.00    +0.000 C 
ATOM     19  O   UNL     1       0.269   4.038  19.952  0.00  0.00    +0.000 OA
ATOM     20  N   UNL     1       2.169   2.775  20.058  0.00  0.00    +0.000 N 
ATOM     21  C   UNL     1       3.514   2.444  20.536  0.00  0.00    +0.000 C 
ATOM     22  C   UNL     1       4.470   2.250  19.352  0.00  0.00    +0.000 C 
ATOM     23  O   UNL     1       3.952   1.288  18.419  0.00  0.00    +0.000 OA
ATOM     24  C   UNL     1       2.663   1.695  17.922  0.00  0.00    +0.000 C 
ATOM     25  C   UNL     1       1.653   1.832  19.066  0.00  0.00    +0.000 C 
ENDBRANCH  17  18
ENDBRANCH  16  17
ENDBRANCH  10  16
TORSDOF 4
ENDMDL
MODEL 7
REMARK VINA RESULT:      -7.0      2.409      5.401
REMARK  Name = 
REMARK  4 active torsions:
REMARK  status: ('A' for Active; 'I' for Inactive)
REMARK    1  A    between atoms: C_2  and  C_3
REMARK    2  A    between atoms: C_12  and  S_13
REMARK    3  A    between atoms: S_13  and  C_14
REMARK    4  A    between atoms: C_14  and  C_15
REMARK                            x       y       z     vdW  Elec       q    Type
REMARK                         _______ _______ _______ _____ _____    ______ ____
ROOT
ATOM      1  C   UNL     1       2.636   7.401  18.859  0.00  0.00    +0.000 A 
ATOM      2  C   UNL     1       3.321   7.676  17.655  0.00  0.00    +0.000 A 
ATOM      3  C   UNL     1       4.326   6.800  17.187  0.00  0.00    +0.000 A 
ATOM      4  C   UNL     1       4.933   6.860  15.905  0.00  0.00    +0.000 A 
ATOM      5  C   UNL     1       5.844   5.868  15.594  0.00  0.00    +0.000 A 
ATOM      6  C   UNL     1       6.279   4.967  16.540  0.00  0.00    +0.000 A 
ATOM      7  C   UNL     1       5.731   4.899  17.788  0.00  0.00    +0.000 A 
ATOM      8  C   UNL     1       4.694   5.757  18.073  0.00  0.00    +0.000 A 
ATOM      9  N   UNL     1       4.037   5.476  19.184  0.00  0.00    +0.000 NA
ATOM     10  C   UNL     1       2.993   6.246  19.561  0.00  0.00    +0.000 A 
ATOM     11  O   UNL     1       7.155   4.055  16.036  0.00  0.00    +0.000 OA
ATOM     12  C   UNL     1       6.794   4.189  14.653  0.00  0.00    +0.000 C 
ATOM     13  O   UNL     1       6.317   5.527  14.358  0.00  0.00    +0.000 OA
ENDROOT
BRANCH   1  15
ATOM     14  N   UNL     1       0.859   9.074  19.739  0.00  0.00    +0.000 NA
ATOM     15  C   UNL     1       1.626   8.321  19.314  0.00  0.00    +0.000 C 
ENDBRANCH   1  15
BRANCH  10  16
ATOM     16  S   UNL     1       2.104   5.531  20.936  0.00  0.00    +0.000 S 
BRANCH  16  17
ATOM     17  C   UNL     1       0.741   4.662  20.035  0.00  0.00    +0.000 C 
BRANCH  17  18
ATOM     18  C   UNL     1       1.269   3.795  18.896  0.00  0.00    +0.000 C 
ATOM     19  O   UNL     1       1.066   4.060  17.709  0.00  0.00    +0.000 OA
ATOM     20  N   UNL     1       2.052   2.707  19.262  0.00  0.00    +0.000 N 
ATOM     21  C   UNL     1       2.334   2.238  20.622  0.00  0.00    +0.000 C 
ATOM     22  C   UNL     1       3.848   2.193  20.869  0.00  0.00    +0.000 C 
ATOM     23  O   UNL     1       4.517   1.423  19.858  0.00  0.00    +0.000 OA
ATOM     24  C   UNL     1       4.270   1.968  18.548  0.00  0.00    +0.000 C 
ATOM     25  C   UNL     1       2.771   1.964  18.227  0.00  0.00    +0.000 C 
ENDBRANCH  17  18
ENDBRANCH  16  17
ENDBRANCH  10  16
TORSDOF 4
ENDMDL
MODEL 8
REMARK VINA RESULT:      -6.9      2.167      6.366
REMARK  Name = 
REMARK  4 active torsions:
REMARK  status: ('A' for Active; 'I' for Inactive)
REMARK    1  A    between atoms: C_2  and  C_3
REMARK    2  A    between atoms: C_12  and  S_13
REMARK    3  A    between atoms: S_13  and  C_14
REMARK    4  A    between atoms: C_14  and  C_15
REMARK                            x       y       z     vdW  Elec       q    Type
REMARK                         _______ _______ _______ _____ _____    ______ ____
ROOT
ATOM      1  C   UNL     1       2.429   3.907  20.072  0.00  0.00    +0.000 A 
ATOM      2  C   UNL     1       3.245   3.200  19.163  0.00  0.00    +0.000 A 
ATOM      3  C   UNL     1       3.918   3.881  18.123  0.00  0.00    +0.000 A 
ATOM      4  C   UNL     1       4.915   3.316  17.284  0.00  0.00    +0.000 A 
ATOM      5  C   UNL     1       5.519   4.160  16.372  0.00  0.00    +0.000 A 
ATOM      6  C   UNL     1       5.058   5.440  16.158  0.00  0.00    +0.000 A 
ATOM      7  C   UNL     1       4.086   6.003  16.934  0.00  0.00    +0.000 A 
ATOM      8  C   UNL     1       3.586   5.250  17.971  0.00  0.00    +0.000 A 
ATOM      9  N   UNL     1       2.850   5.925  18.835  0.00  0.00    +0.000 NA
ATOM     10  C   UNL     1       2.313   5.290  19.900  0.00  0.00    +0.000 A 
ATOM     11  O   UNL     1       5.798   6.121  15.241  0.00  0.00    +0.000 OA
ATOM     12  C   UNL     1       6.990   5.326  15.330  0.00  0.00    +0.000 C 
ATOM     13  O   UNL     1       6.685   3.953  15.689  0.00  0.00    +0.000 OA
ENDROOT
BRANCH   1  15
ATOM     14  N   UNL     1       1.267   2.571  21.968  0.00  0.00    +0.000 NA
ATOM     15  C   UNL     1       1.748   3.181  21.111  0.00  0.00    +0.000 C 
ENDBRANCH   1  15
BRANCH  10  16
ATOM     16  S   UNL     1       1.586   6.438  21.059  0.00  0.00    +0.000 S 
BRANCH  16  17
ATOM     17  C   UNL     1       1.766   8.021  20.116  0.00  0.00    +0.000 C 
BRANCH  17  18
ATOM     18  C   UNL     1       1.124   9.197  20.844  0.00  0.00    +0.000 C 
ATOM     19  O   UNL     1       0.864   9.171  22.050  0.00  0.00    +0.000 OA
ATOM     20  N   UNL     1       0.895  10.340  20.088  0.00  0.00    +0.000 N 
ATOM     21  C   UNL     1       1.101  10.501  18.646  0.00  0.00    +0.000 C 
ATOM     22  C   UNL     1       2.058  11.668  18.369  0.00  0.00    +0.000 C 
ATOM     23  O   UNL     1       1.609  12.871  19.012  0.00  0.00    +0.000 OA
ATOM     24  C   UNL     1       1.495  12.684  20.435  0.00  0.00    +0.000 C 
ATOM     25  C   UNL     1       0.491  11.573  20.762  0.00  0.00    +0.000 C 
ENDBRANCH  17  18
ENDBRANCH  16  17
ENDBRANCH  10  16
TORSDOF 4
ENDMDL
MODEL 9
REMARK VINA RESULT:      -6.8      4.800      8.163
REMARK  Name = 
REMARK  4 active torsions:
REMARK  status: ('A' for Active; 'I' for Inactive)
REMARK    1  A    between atoms: C_2  and  C_3
REMARK    2  A    between atoms: C_12  and  S_13
REMARK    3  A    between atoms: S_13  and  C_14
REMARK    4  A    between atoms: C_14  and  C_15
REMARK                            x       y       z     vdW  Elec       q    Type
REMARK                         _______ _______ _______ _____ _____    ______ ____
ROOT
ATOM      1  C   UNL     1       0.246   9.885  21.340  0.00  0.00    +0.000 A 
ATOM      2  C   UNL     1       0.741   8.569  21.469  0.00  0.00    +0.000 A 
ATOM      3  C   UNL     1       1.490   7.979  20.425  0.00  0.00    +0.000 A 
ATOM      4  C   UNL     1       2.206   6.757  20.520  0.00  0.00    +0.000 A 
ATOM      5  C   UNL     1       2.947   6.377  19.417  0.00  0.00    +0.000 A 
ATOM      6  C   UNL     1       2.858   7.053  18.221  0.00  0.00    +0.000 A 
ATOM      7  C   UNL     1       2.161   8.219  18.093  0.00  0.00    +0.000 A 
ATOM      8  C   UNL     1       1.556   8.723  19.221  0.00  0.00    +0.000 A 
ATOM      9  N   UNL     1       1.122   9.966  19.104  0.00  0.00    +0.000 NA
ATOM     10  C   UNL     1       0.519  10.568  20.152  0.00  0.00    +0.000 A 
ATOM     11  O   UNL     1       3.681   6.543  17.264  0.00  0.00    +0.000 OA
ATOM     12  C   UNL     1       4.596   5.868  18.141  0.00  0.00    +0.000 C 
ATOM     13  O   UNL     1       3.941   5.440  19.363  0.00  0.00    +0.000 OA
ENDROOT
BRANCH   1  15
ATOM     14  N   UNL     1      -1.105  10.970  23.271  0.00  0.00    +0.000 NA
ATOM     15  C   UNL     1      -0.524  10.451  22.417  0.00  0.00    +0.000 C 
ENDBRANCH   1  15
BRANCH  10  16
ATOM     16  S   UNL     1       0.257  12.310  19.853  0.00  0.00    +0.000 S 
BRANCH  16  17
ATOM     17  C   UNL     1       1.933  12.974  20.269  0.00  0.00    +0.000 C 
BRANCH  17  18
ATOM     18  C   UNL     1       2.706  13.397  19.024  0.00  0.00    +0.000 C 
ATOM     19  O   UNL     1       2.787  12.687  18.019  0.00  0.00    +0.000 OA
ATOM     20  N   UNL     1       3.276  14.663  19.053  0.00  0.00    +0.000 N 
ATOM     21  C   UNL     1       3.310  15.593  20.186  0.00  0.00    +0.000 C 
ATOM     22  C   UNL     1       2.672  16.933  19.798  0.00  0.00    +0.000 C 
ATOM     23  O   UNL     1       3.277  17.471  18.610  0.00  0.00    +0.000 OA
ATOM     24  C   UNL     1       3.152  16.553  17.508  0.00  0.00    +0.000 C 
ATOM     25  C   UNL     1       3.840  15.221  17.824  0.00  0.00    +0.000 C 
ENDBRANCH  17  18
ENDBRANCH  16  17
ENDBRANCH  10  16
TORSDOF 4
ENDMDL
