MODEL 1
REMARK VINA RESULT:      -8.8      0.000      0.000
REMARK  Name = 
REMARK  10 active torsions:
REMARK  status: ('A' for Active; 'I' for Inactive)
REMARK    1  A    between atoms: C_1  and  C_2
REMARK    2  A    between atoms: C_2  and  O_3
REMARK    3  A    between atoms: O_3  and  C_4
REMARK    4  A    between atoms: C_4  and  C_6
REMARK    5  A    between atoms: N_9  and  C_10
REMARK    6  A    between atoms: C_10  and  C_11
REMARK    7  A    between atoms: C_11  and  C_12
REMARK    8  A    between atoms: C_11  and  O_13
REMARK    9  A    between atoms: C_14  and  N_15
REMARK   10  A    between atoms: N_18  and  C_19
REMARK                            x       y       z     vdW  Elec       q    Type
REMARK                         _______ _______ _______ _____ _____    ______ ____
ROOT
ATOM      1  N   UNL     1       3.173   5.851  19.797  0.00  0.00    +0.000 N 
ATOM      2  C   UNL     1       2.535   6.969  19.275  0.00  0.00    +0.000 C 
ATOM      3  O   UNL     1       2.505   7.217  18.075  0.00  0.00    +0.000 OA
ATOM      4  N   UNL     1       1.974   7.758  20.264  0.00  0.00    +0.000 N 
ATOM      5  H   UNL     1       2.639   5.399  20.536  0.00  0.00    +0.000 HD
ATOM      6  H   UNL     1       2.396   7.649  21.173  0.00  0.00    +0.000 HD
ENDROOT
BRANCH   4   7
ATOM      7  C   UNL     1       1.237   8.953  20.017  0.00  0.00    +0.000 A 
ATOM      8  C   UNL     1       1.297   9.565  18.755  0.00  0.00    +0.000 A 
ATOM      9  C   UNL     1       0.695  10.795  18.518  0.00  0.00    +0.000 A 
ATOM     10  C   UNL     1       0.007  11.431  19.539  0.00  0.00    +0.000 A 
ATOM     11  C   UNL     1      -0.136  10.823  20.792  0.00  0.00    +0.000 A 
ATOM     12  C   UNL     1      -0.865  11.485  21.791  0.00  0.00    +0.000 A 
ATOM     13  C   UNL     1      -1.057  10.906  23.042  0.00  0.00    +0.000 A 
ATOM     14  C   UNL     1      -0.524   9.654  23.307  0.00  0.00    +0.000 A 
ATOM     15  C   UNL     1       0.224   8.989  22.328  0.00  0.00    +0.000 A 
ATOM     16  C   UNL     1       0.453   9.553  21.048  0.00  0.00    +0.000 A 
ENDBRANCH   4   7
BRANCH   1  21
ATOM     17  C   UNL     1       3.211   3.987  18.134  0.00  0.00    +0.000 A 
ATOM     18  C   UNL     1       4.276   3.410  17.416  0.00  0.00    +0.000 A 
ATOM     19  N   UNL     1       5.455   3.943  17.727  0.00  0.00    +0.000 NA
ATOM     20  N   UNL     1       5.154   4.906  18.630  0.00  0.00    +0.000 N 
ATOM     21  C   UNL     1       3.799   4.974  18.906  0.00  0.00    +0.000 A 
BRANCH  17  22
ATOM     22  C   UNL     1       1.813   3.635  18.081  0.00  0.00    +0.000 C 
ATOM     23  O   UNL     1       1.019   4.159  17.308  0.00  0.00    +0.000 OA
BRANCH  22  24
ATOM     24  O   UNL     1       1.488   2.737  19.053  0.00  0.00    +0.000 OA
BRANCH  24  26
ATOM     25  C   UNL     1       1.484   2.726  21.437  0.00  0.00    +0.000 C 
ATOM     26  C   UNL     1       0.808   3.273  20.193  0.00  0.00    +0.000 C 
ENDBRANCH  24  26
ENDBRANCH  22  24
ENDBRANCH  17  22
BRANCH  20  27
ATOM     27  C   UNL     1       6.263   5.537  19.322  0.00  0.00    +0.000 C 
BRANCH  27  28
ATOM     28  C   UNL     1       7.394   6.013  18.403  0.00  0.00    +0.000 C 
ATOM     29  C   UNL     1       6.969   7.060  17.381  0.00  0.00    +0.000 C 
BRANCH  28  30
ATOM     30  O   UNL     1       8.450   6.565  19.206  0.00  0.00    +0.000 OA
ATOM     31  H   UNL     1       8.327   6.245  20.117  0.00  0.00    +0.000 HD
ENDBRANCH  28  30
ENDBRANCH  27  28
ENDBRANCH  20  27
ENDBRANCH   1  21
TORSDOF 8
ENDMDL
MODEL 2
REMARK VINA RESULT:      -8.6      1.356      3.835
REMARK  Name = 
REMARK  10 active torsions:
REMARK  status: ('A' for Active; 'I' for Inactive)
REMARK    1  A    between atoms: C_1  and  C_2
REMARK    2  A    between atoms: C_2  and  O_3
REMARK    3  A    between atoms: O_3  and  C_4
REMARK    4  A    between atoms: C_4  and  C_6
REMARK    5  A    between atoms: N_9  and  C_10
REMARK    6  A    between atoms: C_10  and  C_11
REMARK    7  A    between atoms: C_11  and  C_12
REMARK    8  A    between atoms: C_11  and  O_13
REMARK    9  A    between atoms: C_14  and  N_15
REMARK   10  A    between atoms: N_18  and  C_19
REMARK                            x       y       z     vdW  Elec       q    Type
REMARK                         _______ _______ _______ _____ _____    ______ ____
ROOT
ATOM      1  N   UNL     1       3.713   6.052  19.201  0.00  0.00    +0.000 N 
ATOM      2  C   UNL     1       2.652   6.868  18.829  0.00  0.00    +0.000 C 
ATOM      3  O   UNL     1       2.045   6.727  17.774  0.00  0.00    +0.000 OA
ATOM      4  N   UNL     1       2.395   7.849  19.770  0.00  0.00    +0.000 N 
ATOM      5  H   UNL     1       3.685   5.789  20.183  0.00  0.00    +0.000 HD
ATOM      6  H   UNL     1       3.181   8.079  20.359  0.00  0.00    +0.000 HD
ENDROOT
BRANCH   4   7
ATOM      7  C   UNL     1       1.347   8.811  19.663  0.00  0.00    +0.000 A 
ATOM      8  C   UNL     1       0.984   9.313  18.403  0.00  0.00    +0.000 A 
ATOM      9  C   UNL     1       0.058  10.342  18.275  0.00  0.00    +0.000 A 
ATOM     10  C   UNL     1      -0.535  10.877  19.407  0.00  0.00    +0.000 A 
ATOM     11  C   UNL     1      -0.254  10.358  20.676  0.00  0.00    +0.000 A 
ATOM     12  C   UNL     1      -0.896  10.908  21.795  0.00  0.00    +0.000 A 
ATOM     13  C   UNL     1      -0.668  10.405  23.072  0.00  0.00    +0.000 A 
ATOM     14  C   UNL     1       0.204   9.341  23.244  0.00  0.00    +0.000 A 
ATOM     15  C   UNL     1       0.870   8.794  22.141  0.00  0.00    +0.000 A 
ATOM     16  C   UNL     1       0.675   9.290  20.827  0.00  0.00    +0.000 A 
ENDBRANCH   4   7
BRANCH   1  21
ATOM     17  C   UNL     1       4.784   5.140  17.136  0.00  0.00    +0.000 A 
ATOM     18  C   UNL     1       4.911   3.818  16.667  0.00  0.00    +0.000 A 
ATOM     19  N   UNL     1       4.317   2.931  17.461  0.00  0.00    +0.000 NA
ATOM     20  N   UNL     1       3.828   3.676  18.481  0.00  0.00    +0.000 N 
ATOM     21  C   UNL     1       4.091   5.026  18.330  0.00  0.00    +0.000 A 
BRANCH  17  22
ATOM     22  C   UNL     1       5.265   6.350  16.517  0.00  0.00    +0.000 C 
ATOM     23  O   UNL     1       5.173   6.569  15.314  0.00  0.00    +0.000 OA
BRANCH  22  24
ATOM     24  O   UNL     1       5.910   7.147  17.414  0.00  0.00    +0.000 OA
BRANCH  24  26
ATOM     25  C   UNL     1       7.791   6.359  18.649  0.00  0.00    +0.000 C 
ATOM     26  C   UNL     1       7.340   7.079  17.392  0.00  0.00    +0.000 C 
ENDBRANCH  24  26
ENDBRANCH  22  24
ENDBRANCH  17  22
BRANCH  20  27
ATOM     27  C   UNL     1       2.938   3.015  19.418  0.00  0.00    +0.000 C 
BRANCH  27  28
ATOM     28  C   UNL     1       1.447   3.192  19.108  0.00  0.00    +0.000 C 
ATOM     29  C   UNL     1       0.708   4.092  20.090  0.00  0.00    +0.000 C 
BRANCH  28  30
ATOM     30  O   UNL     1       1.304   3.744  17.789  0.00  0.00    +0.000 OA
ATOM     31  H   UNL     1       1.703   4.632  17.795  0.00  0.00    +0.000 HD
ENDBRANCH  28  30
ENDBRANCH  27  28
ENDBRANCH  20  27
ENDBRANCH   1  21
TORSDOF 8
ENDMDL
MODEL 3
REMARK VINA RESULT:      -8.5      1.247      3.940
REMARK  Name = 
REMARK  10 active torsions:
REMARK  status: ('A' for Active; 'I' for Inactive)
REMARK    1  A    between atoms: C_1  and  C_2
REMARK    2  A    between atoms: C_2  and  O_3
REMARK    3  A    between atoms: O_3  and  C_4
REMARK    4  A    between atoms: C_4  and  C_6
REMARK    5  A    between atoms: N_9  and  C_10
REMARK    6  A    between atoms: C_10  and  C_11
REMARK    7  A    between atoms: C_11  and  C_12
REMARK    8  A    between atoms: C_11  and  O_13
REMARK    9  A    between atoms: C_14  and  N_15
REMARK   10  A    between atoms: N_18  and  C_19
REMARK                            x       y       z     vdW  Elec       q    Type
REMARK                         _______ _______ _______ _____ _____    ______ ____
ROOT
ATOM      1  N   UNL     1       3.230   5.572  19.915  0.00  0.00    +0.000 N 
ATOM      2  C   UNL     1       2.531   6.626  19.340  0.00  0.00    +0.000 C 
ATOM      3  O   UNL     1       2.290   6.688  18.140  0.00  0.00    +0.000 OA
ATOM      4  N   UNL     1       2.175   7.585  20.273  0.00  0.00    +0.000 N 
ATOM      5  H   UNL     1       2.829   5.266  20.798  0.00  0.00    +0.000 HD
ATOM      6  H   UNL     1       2.752   7.596  21.100  0.00  0.00    +0.000 HD
ENDROOT
BRANCH   4   7
ATOM      7  C   UNL     1       1.430   8.763  19.972  0.00  0.00    +0.000 A 
ATOM      8  C   UNL     1       1.483   9.314  18.682  0.00  0.00    +0.000 A 
ATOM      9  C   UNL     1       0.873  10.528  18.388  0.00  0.00    +0.000 A 
ATOM     10  C   UNL     1       0.183  11.207  19.380  0.00  0.00    +0.000 A 
ATOM     11  C   UNL     1       0.047  10.658  20.660  0.00  0.00    +0.000 A 
ATOM     12  C   UNL     1      -0.684  11.362  21.629  0.00  0.00    +0.000 A 
ATOM     13  C   UNL     1      -0.870  10.842  22.906  0.00  0.00    +0.000 A 
ATOM     14  C   UNL     1      -0.329   9.607  23.228  0.00  0.00    +0.000 A 
ATOM     15  C   UNL     1       0.421   8.901  22.281  0.00  0.00    +0.000 A 
ATOM     16  C   UNL     1       0.645   9.405  20.975  0.00  0.00    +0.000 A 
ENDBRANCH   4   7
BRANCH   1  21
ATOM     17  C   UNL     1       4.937   4.345  18.563  0.00  0.00    +0.000 A 
ATOM     18  C   UNL     1       4.838   3.165  17.802  0.00  0.00    +0.000 A 
ATOM     19  N   UNL     1       3.607   2.662  17.787  0.00  0.00    +0.000 NA
ATOM     20  N   UNL     1       2.898   3.502  18.579  0.00  0.00    +0.000 N 
ATOM     21  C   UNL     1       3.666   4.539  19.079  0.00  0.00    +0.000 A 
BRANCH  17  22
ATOM     22  C   UNL     1       6.099   5.175  18.767  0.00  0.00    +0.000 C 
ATOM     23  O   UNL     1       6.586   5.383  19.872  0.00  0.00    +0.000 OA
BRANCH  22  24
ATOM     24  O   UNL     1       6.504   5.759  17.605  0.00  0.00    +0.000 OA
BRANCH  24  26
ATOM     25  C   UNL     1       5.167   6.525  15.785  0.00  0.00    +0.000 C 
ATOM     26  C   UNL     1       5.717   6.868  17.158  0.00  0.00    +0.000 C 
ENDBRANCH  24  26
ENDBRANCH  22  24
ENDBRANCH  17  22
BRANCH  20  27
ATOM     27  C   UNL     1       1.456   3.337  18.599  0.00  0.00    +0.000 C 
BRANCH  27  28
ATOM     28  C   UNL     1       0.869   3.058  19.988  0.00  0.00    +0.000 C 
ATOM     29  C   UNL     1       1.832   2.366  20.944  0.00  0.00    +0.000 C 
BRANCH  28  30
ATOM     30  O   UNL     1       0.455   4.299  20.581  0.00  0.00    +0.000 OA
ATOM     31  H   UNL     1       0.228   4.123  21.511  0.00  0.00    +0.000 HD
ENDBRANCH  28  30
ENDBRANCH  27  28
ENDBRANCH  20  27
ENDBRANCH   1  21
TORSDOF 8
ENDMDL
MODEL 4
REMARK VINA RESULT:      -8.4      1.109      1.283
REMARK  Name = 
REMARK  10 active torsions:
REMARK  status: ('A' for Active; 'I' for Inactive)
REMARK    1  A    between atoms: C_1  and  C_2
REMARK    2  A    between atoms: C_2  and  O_3
REMARK    3  A    between atoms: O_3  and  C_4
REMARK    4  A    between atoms: C_4  and  C_6
REMARK    5  A    between atoms: N_9  and  C_10
REMARK    6  A    between atoms: C_10  and  C_11
REMARK    7  A    between atoms: C_11  and  C_12
REMARK    8  A    between atoms: C_11  and  O_13
REMARK    9  A    between atoms: C_14  and  N_15
REMARK   10  A    between atoms: N_18  and  C_19
REMARK                            x       y       z     vdW  Elec       q    Type
REMARK                         _______ _______ _______ _____ _____    ______ ____
ROOT
ATOM      1  N   UNL     1       3.335   6.267  18.989  0.00  0.00    +0.000 N 
ATOM      2  C   UNL     1       2.484   7.309  18.644  0.00  0.00    +0.000 C 
ATOM      3  O   UNL     1       2.235   7.606  17.481  0.00  0.00    +0.000 OA
ATOM      4  N   UNL     1       1.987   7.966  19.756  0.00  0.00    +0.000 N 
ATOM      5  H   UNL     1       2.986   5.712  19.767  0.00  0.00    +0.000 HD
ATOM      6  H   UNL     1       2.557   7.874  20.583  0.00  0.00    +0.000 HD
ENDROOT
BRANCH   4   7
ATOM      7  C   UNL     1       1.072   9.058  19.703  0.00  0.00    +0.000 A 
ATOM      8  C   UNL     1       0.823   9.704  18.482  0.00  0.00    +0.000 A 
ATOM      9  C   UNL     1       0.036  10.849  18.416  0.00  0.00    +0.000 A 
ATOM     10  C   UNL     1      -0.529  11.360  19.573  0.00  0.00    +0.000 A 
ATOM     11  C   UNL     1      -0.364  10.707  20.800  0.00  0.00    +0.000 A 
ATOM     12  C   UNL     1      -0.977  11.240  21.944  0.00  0.00    +0.000 A 
ATOM     13  C   UNL     1      -0.863  10.609  23.178  0.00  0.00    +0.000 A 
ATOM     14  C   UNL     1      -0.136   9.432  23.282  0.00  0.00    +0.000 A 
ATOM     15  C   UNL     1       0.500   8.898  22.156  0.00  0.00    +0.000 A 
ATOM     16  C   UNL     1       0.419   9.521  20.884  0.00  0.00    +0.000 A 
ENDBRANCH   4   7
BRANCH   1  21
ATOM     17  C   UNL     1       3.649   4.221  17.589  0.00  0.00    +0.000 A 
ATOM     18  C   UNL     1       4.503   3.971  16.497  0.00  0.00    +0.000 A 
ATOM     19  N   UNL     1       5.290   5.004  16.211  0.00  0.00    +0.000 NA
ATOM     20  N   UNL     1       4.922   5.956  17.101  0.00  0.00    +0.000 N 
ATOM     21  C   UNL     1       3.922   5.528  17.958  0.00  0.00    +0.000 A 
BRANCH  17  22
ATOM     22  C   UNL     1       2.697   3.323  18.195  0.00  0.00    +0.000 C 
ATOM     23  O   UNL     1       1.775   2.806  17.573  0.00  0.00    +0.000 OA
BRANCH  22  24
ATOM     24  O   UNL     1       2.900   3.213  19.537  0.00  0.00    +0.000 OA
BRANCH  24  26
ATOM     25  C   UNL     1       1.005   4.204  20.590  0.00  0.00    +0.000 C 
ATOM     26  C   UNL     1       1.741   2.905  20.319  0.00  0.00    +0.000 C 
ENDBRANCH  24  26
ENDBRANCH  22  24
ENDBRANCH  17  22
BRANCH  20  27
ATOM     27  C   UNL     1       5.749   7.146  17.181  0.00  0.00    +0.000 C 
BRANCH  27  28
ATOM     28  C   UNL     1       7.246   6.867  17.360  0.00  0.00    +0.000 C 
ATOM     29  C   UNL     1       7.571   5.934  18.520  0.00  0.00    +0.000 C 
BRANCH  28  30
ATOM     30  O   UNL     1       7.763   6.287  16.152  0.00  0.00    +0.000 OA
ATOM     31  H   UNL     1       8.288   5.505  16.400  0.00  0.00    +0.000 HD
ENDBRANCH  28  30
ENDBRANCH  27  28
ENDBRANCH  20  27
ENDBRANCH   1  21
TORSDOF 8
ENDMDL
MODEL 5
REMARK VINA RESULT:      -8.2      3.188      8.191
REMARK  Name = 
REMARK  10 active torsions:
REMARK  status: ('A' for Active; 'I' for Inactive)
REMARK    1  A    between atoms: C_1  and  C_2
REMARK    2  A    between atoms: C_2  and  O_3
REMARK    3  A    between atoms: O_3  and  C_4
REMARK    4  A    between atoms: C_4  and  C_6
REMARK    5  A    between atoms: N_9  and  C_10
REMARK    6  A    between atoms: C_10  and  C_11
REMARK    7  A    between atoms: C_11  and  C_12
REMARK    8  A    between atoms: C_11  and  O_13
REMARK    9  A    between atoms: C_14  and  N_15
REMARK   10  A    between atoms: N_18  and  C_19
REMARK                            x       y       z     vdW  Elec       q    Type
REMARK                         _______ _______ _______ _____ _____    ______ ____
ROOT
ATOM      1  N   UNL     1       0.522   9.394  19.313  0.00  0.00    +0.000 N 
ATOM      2  C   UNL     1       1.489   8.874  18.462  0.00  0.00    +0.000 C 
ATOM      3  O   UNL     1       1.895   9.473  17.473  0.00  0.00    +0.000 OA
ATOM      4  N   UNL     1       1.904   7.613  18.854  0.00  0.00    +0.000 N 
ATOM      5  H   UNL     1       0.732   9.235  20.296  0.00  0.00    +0.000 HD
ATOM      6  H   UNL     1       1.237   7.112  19.420  0.00  0.00    +0.000 HD
ENDROOT
BRANCH   4   7
ATOM      7  C   UNL     1       2.904   6.852  18.182  0.00  0.00    +0.000 A 
ATOM      8  C   UNL     1       4.027   7.495  17.638  0.00  0.00    +0.000 A 
ATOM      9  C   UNL     1       4.955   6.803  16.869  0.00  0.00    +0.000 A 
ATOM     10  C   UNL     1       4.784   5.447  16.642  0.00  0.00    +0.000 A 
ATOM     11  C   UNL     1       3.716   4.753  17.223  0.00  0.00    +0.000 A 
ATOM     12  C   UNL     1       3.593   3.374  16.994  0.00  0.00    +0.000 A 
ATOM     13  C   UNL     1       2.564   2.640  17.574  0.00  0.00    +0.000 A 
ATOM     14  C   UNL     1       1.647   3.276  18.397  0.00  0.00    +0.000 A 
ATOM     15  C   UNL     1       1.742   4.654  18.620  0.00  0.00    +0.000 A 
ATOM     16  C   UNL     1       2.768   5.439  18.033  0.00  0.00    +0.000 A 
ENDBRANCH   4   7
BRANCH   1  21
ATOM     17  C   UNL     1       0.246  11.850  19.686  0.00  0.00    +0.000 A 
ATOM     18  C   UNL     1      -0.511  12.811  18.988  0.00  0.00    +0.000 A 
ATOM     19  N   UNL     1      -1.217  12.286  17.991  0.00  0.00    +0.000 NA
ATOM     20  N   UNL     1      -0.891  10.972  18.012  0.00  0.00    +0.000 N 
ATOM     21  C   UNL     1       0.001  10.659  19.023  0.00  0.00    +0.000 A 
BRANCH  17  22
ATOM     22  C   UNL     1       1.092  12.052  20.837  0.00  0.00    +0.000 C 
ATOM     23  O   UNL     1       1.921  12.953  20.908  0.00  0.00    +0.000 OA
BRANCH  22  24
ATOM     24  O   UNL     1       0.918  11.068  21.762  0.00  0.00    +0.000 OA
BRANCH  24  26
ATOM     25  C   UNL     1      -0.456   9.767  23.213  0.00  0.00    +0.000 C 
ATOM     26  C   UNL     1      -0.342  11.069  22.443  0.00  0.00    +0.000 C 
ENDBRANCH  24  26
ENDBRANCH  22  24
ENDBRANCH  17  22
BRANCH  20  27
ATOM     27  C   UNL     1      -1.664  10.083  17.165  0.00  0.00    +0.000 C 
BRANCH  27  28
ATOM     28  C   UNL     1      -2.611  10.797  16.193  0.00  0.00    +0.000 C 
ATOM     29  C   UNL     1      -2.954   9.988  14.949  0.00  0.00    +0.000 C 
BRANCH  28  30
ATOM     30  O   UNL     1      -3.832  11.117  16.878  0.00  0.00    +0.000 OA
ATOM     31  H   UNL     1      -3.596  11.498  17.742  0.00  0.00    +0.000 HD
ENDBRANCH  28  30
ENDBRANCH  27  28
ENDBRANCH  20  27
ENDBRANCH   1  21
TORSDOF 8
ENDMDL
MODEL 6
REMARK VINA RESULT:      -8.2      1.317      1.665
REMARK  Name = 
REMARK  10 active torsions:
REMARK  status: ('A' for Active; 'I' for Inactive)
REMARK    1  A    between atoms: C_1  and  C_2
REMARK    2  A    between atoms: C_2  and  O_3
REMARK    3  A    between atoms: O_3  and  C_4
REMARK    4  A    between atoms: C_4  and  C_6
REMARK    5  A    between atoms: N_9  and  C_10
REMARK    6  A    between atoms: C_10  and  C_11
REMARK    7  A    between atoms: C_11  and  C_12
REMARK    8  A    between atoms: C_11  and  O_13
REMARK    9  A    between atoms: C_14  and  N_15
REMARK   10  A    between atoms: N_18  and  C_19
REMARK                            x       y       z     vdW  Elec       q    Type
REMARK                         _______ _______ _______ _____ _____    ______ ____
ROOT
ATOM      1  N   UNL     1       3.856   6.219  18.994  0.00  0.00    +0.000 N 
ATOM      2  C   UNL     1       2.669   6.881  18.709  0.00  0.00    +0.000 C 
ATOM      3  O   UNL     1       1.875   6.487  17.862  0.00  0.00    +0.000 OA
ATOM      4  N   UNL     1       2.516   8.027  19.470  0.00  0.00    +0.000 N 
ATOM      5  H   UNL     1       4.054   6.171  19.990  0.00  0.00    +0.000 HD
ATOM      6  H   UNL     1       3.380   8.416  19.815  0.00  0.00    +0.000 HD
ENDROOT
BRANCH   4   7
ATOM      7  C   UNL     1       1.382   8.888  19.407  0.00  0.00    +0.000 A 
ATOM      8  C   UNL     1       0.910   9.335  18.162  0.00  0.00    +0.000 A 
ATOM      9  C   UNL     1      -0.111  10.274  18.071  0.00  0.00    +0.000 A 
ATOM     10  C   UNL     1      -0.691  10.772  19.226  0.00  0.00    +0.000 A 
ATOM     11  C   UNL     1      -0.299  10.301  20.484  0.00  0.00    +0.000 A 
ATOM     12  C   UNL     1      -0.931  10.809  21.630  0.00  0.00    +0.000 A 
ATOM     13  C   UNL     1      -0.593  10.349  22.899  0.00  0.00    +0.000 A 
ATOM     14  C   UNL     1       0.380   9.371  23.037  0.00  0.00    +0.000 A 
ATOM     15  C   UNL     1       1.035   8.869  21.907  0.00  0.00    +0.000 A 
ATOM     16  C   UNL     1       0.729   9.323  20.599  0.00  0.00    +0.000 A 
ENDBRANCH   4   7
BRANCH   1  21
ATOM     17  C   UNL     1       3.899   3.742  18.662  0.00  0.00    +0.000 A 
ATOM     18  C   UNL     1       4.370   2.961  17.589  0.00  0.00    +0.000 A 
ATOM     19  N   UNL     1       4.913   3.693  16.619  0.00  0.00    +0.000 NA
ATOM     20  N   UNL     1       4.763   4.970  17.045  0.00  0.00    +0.000 N 
ATOM     21  C   UNL     1       4.146   5.051  18.281  0.00  0.00    +0.000 A 
BRANCH  17  22
ATOM     22  C   UNL     1       3.293   3.289  19.889  0.00  0.00    +0.000 C 
ATOM     23  O   UNL     1       3.770   2.397  20.582  0.00  0.00    +0.000 OA
BRANCH  22  24
ATOM     24  O   UNL     1       2.097   3.902  20.111  0.00  0.00    +0.000 OA
BRANCH  24  26
ATOM     25  C   UNL     1       0.669   2.473  18.845  0.00  0.00    +0.000 C 
ATOM     26  C   UNL     1       0.963   3.034  20.223  0.00  0.00    +0.000 C 
ENDBRANCH  24  26
ENDBRANCH  22  24
ENDBRANCH  17  22
BRANCH  20  27
ATOM     27  C   UNL     1       5.447   6.005  16.292  0.00  0.00    +0.000 C 
BRANCH  27  28
ATOM     28  C   UNL     1       6.954   6.093  16.561  0.00  0.00    +0.000 C 
ATOM     29  C   UNL     1       7.321   6.918  17.787  0.00  0.00    +0.000 C 
BRANCH  28  30
ATOM     30  O   UNL     1       7.478   4.766  16.732  0.00  0.00    +0.000 OA
ATOM     31  H   UNL     1       8.393   4.849  17.056  0.00  0.00    +0.000 HD
ENDBRANCH  28  30
ENDBRANCH  27  28
ENDBRANCH  20  27
ENDBRANCH   1  21
TORSDOF 8
ENDMDL
MODEL 7
REMARK VINA RESULT:      -8.2      2.206      4.705
REMARK  Name = 
REMARK  10 active torsions:
REMARK  status: ('A' for Active; 'I' for Inactive)
REMARK    1  A    between atoms: C_1  and  C_2
REMARK    2  A    between atoms: C_2  and  O_3
REMARK    3  A    between atoms: O_3  and  C_4
REMARK    4  A    between atoms: C_4  and  C_6
REMARK    5  A    between atoms: N_9  and  C_10
REMARK    6  A    between atoms: C_10  and  C_11
REMARK    7  A    between atoms: C_11  and  C_12
REMARK    8  A    between atoms: C_11  and  O_13
REMARK    9  A    between atoms: C_14  and  N_15
REMARK   10  A    between atoms: N_18  and  C_19
REMARK                            x       y       z     vdW  Elec       q    Type
REMARK                         _______ _______ _______ _____ _____    ______ ____
ROOT
ATOM      1  N   UNL     1       2.478   6.987  17.452  0.00  0.00    +0.000 N 
ATOM      2  C   UNL     1       2.013   7.913  18.377  0.00  0.00    +0.000 C 
ATOM      3  O   UNL     1       2.318   7.877  19.564  0.00  0.00    +0.000 OA
ATOM      4  N   UNL     1       1.163   8.842  17.802  0.00  0.00    +0.000 N 
ATOM      5  H   UNL     1       2.748   7.412  16.567  0.00  0.00    +0.000 HD
ATOM      6  H   UNL     1       0.715   8.528  16.955  0.00  0.00    +0.000 HD
ENDROOT
BRANCH   4   7
ATOM      7  C   UNL     1       0.557   9.922  18.508  0.00  0.00    +0.000 A 
ATOM      8  C   UNL     1       1.278  10.599  19.505  0.00  0.00    +0.000 A 
ATOM      9  C   UNL     1       0.678  11.570  20.298  0.00  0.00    +0.000 A 
ATOM     10  C   UNL     1      -0.655  11.893  20.097  0.00  0.00    +0.000 A 
ATOM     11  C   UNL     1      -1.390  11.292  19.069  0.00  0.00    +0.000 A 
ATOM     12  C   UNL     1      -2.728  11.667  18.878  0.00  0.00    +0.000 A 
ATOM     13  C   UNL     1      -3.488  11.117  17.851  0.00  0.00    +0.000 A 
ATOM     14  C   UNL     1      -2.915  10.187  16.997  0.00  0.00    +0.000 A 
ATOM     15  C   UNL     1      -1.588   9.786  17.186  0.00  0.00    +0.000 A 
ATOM     16  C   UNL     1      -0.787  10.312  18.231  0.00  0.00    +0.000 A 
ENDBRANCH   4   7
BRANCH   1  21
ATOM     17  C   UNL     1       4.684   5.827  17.629  0.00  0.00    +0.000 A 
ATOM     18  C   UNL     1       5.065   4.667  18.332  0.00  0.00    +0.000 A 
ATOM     19  N   UNL     1       4.047   4.093  18.968  0.00  0.00    +0.000 NA
ATOM     20  N   UNL     1       2.995   4.907  18.710  0.00  0.00    +0.000 N 
ATOM     21  C   UNL     1       3.336   5.979  17.903  0.00  0.00    +0.000 A 
BRANCH  17  22
ATOM     22  C   UNL     1       5.510   6.674  16.805  0.00  0.00    +0.000 C 
ATOM     23  O   UNL     1       5.626   6.522  15.594  0.00  0.00    +0.000 OA
BRANCH  22  24
ATOM     24  O   UNL     1       6.202   7.577  17.554  0.00  0.00    +0.000 OA
BRANCH  24  26
ATOM     25  C   UNL     1       8.251   8.717  17.987  0.00  0.00    +0.000 C 
ATOM     26  C   UNL     1       7.621   7.392  17.598  0.00  0.00    +0.000 C 
ENDBRANCH  24  26
ENDBRANCH  22  24
ENDBRANCH  17  22
BRANCH  20  27
ATOM     27  C   UNL     1       1.680   4.435  19.101  0.00  0.00    +0.000 C 
BRANCH  27  28
ATOM     28  C   UNL     1       1.413   4.479  20.610  0.00  0.00    +0.000 C 
ATOM     29  C   UNL     1       1.443   3.116  21.288  0.00  0.00    +0.000 C 
BRANCH  28  30
ATOM     30  O   UNL     1       2.396   5.319  21.236  0.00  0.00    +0.000 OA
ATOM     31  H   UNL     1       3.266   4.901  21.112  0.00  0.00    +0.000 HD
ENDBRANCH  28  30
ENDBRANCH  27  28
ENDBRANCH  20  27
ENDBRANCH   1  21
TORSDOF 8
ENDMDL
MODEL 8
REMARK VINA RESULT:      -8.1      1.850      3.949
REMARK  Name = 
REMARK  10 active torsions:
REMARK  status: ('A' for Active; 'I' for Inactive)
REMARK    1  A    between atoms: C_1  and  C_2
REMARK    2  A    between atoms: C_2  and  O_3
REMARK    3  A    between atoms: O_3  and  C_4
REMARK    4  A    between atoms: C_4  and  C_6
REMARK    5  A    between atoms: N_9  and  C_10
REMARK    6  A    between atoms: C_10  and  C_11
REMARK    7  A    between atoms: C_11  and  C_12
REMARK    8  A    between atoms: C_11  and  O_13
REMARK    9  A    between atoms: C_14  and  N_15
REMARK   10  A    between atoms: N_18  and  C_19
REMARK                            x       y       z     vdW  Elec       q    Type
REMARK                         _______ _______ _______ _____ _____    ______ ____
ROOT
ATOM      1  N   UNL     1       3.757   5.593  19.846  0.00  0.00    +0.000 N 
ATOM      2  C   UNL     1       2.685   6.338  19.371  0.00  0.00    +0.000 C 
ATOM      3  O   UNL     1       1.928   5.931  18.498  0.00  0.00    +0.000 OA
ATOM      4  N   UNL     1       2.602   7.578  19.981  0.00  0.00    +0.000 N 
ATOM      5  H   UNL     1       3.859   5.646  20.857  0.00  0.00    +0.000 HD
ATOM      6  H   UNL     1       3.472   7.912  20.365  0.00  0.00    +0.000 HD
ENDROOT
BRANCH   4   7
ATOM      7  C   UNL     1       1.587   8.541  19.708  0.00  0.00    +0.000 A 
ATOM      8  C   UNL     1       1.331   8.932  18.384  0.00  0.00    +0.000 A 
ATOM      9  C   UNL     1       0.439   9.959  18.094  0.00  0.00    +0.000 A 
ATOM     10  C   UNL     1      -0.225  10.604  19.125  0.00  0.00    +0.000 A 
ATOM     11  C   UNL     1      -0.051  10.198  20.453  0.00  0.00    +0.000 A 
ATOM     12  C   UNL     1      -0.764  10.857  21.466  0.00  0.00    +0.000 A 
ATOM     13  C   UNL     1      -0.643  10.469  22.796  0.00  0.00    +0.000 A 
ATOM     14  C   UNL     1       0.190   9.411  23.129  0.00  0.00    +0.000 A 
ATOM     15  C   UNL     1       0.925   8.757  22.134  0.00  0.00    +0.000 A 
ATOM     16  C   UNL     1       0.840   9.134  20.769  0.00  0.00    +0.000 A 
ENDBRANCH   4   7
BRANCH   1  21
ATOM     17  C   UNL     1       4.454   4.010  18.043  0.00  0.00    +0.000 A 
ATOM     18  C   UNL     1       4.479   2.602  18.008  0.00  0.00    +0.000 A 
ATOM     19  N   UNL     1       4.011   2.050  19.124  0.00  0.00    +0.000 NA
ATOM     20  N   UNL     1       3.710   3.108  19.914  0.00  0.00    +0.000 N 
ATOM     21  C   UNL     1       3.968   4.322  19.301  0.00  0.00    +0.000 A 
BRANCH  17  22
ATOM     22  C   UNL     1       4.846   4.930  17.004  0.00  0.00    +0.000 C 
ATOM     23  O   UNL     1       5.041   6.123  17.205  0.00  0.00    +0.000 OA
BRANCH  22  24
ATOM     24  O   UNL     1       4.868   4.324  15.784  0.00  0.00    +0.000 OA
BRANCH  24  26
ATOM     25  C   UNL     1       6.145   3.885  13.819  0.00  0.00    +0.000 C 
ATOM     26  C   UNL     1       5.681   4.956  14.789  0.00  0.00    +0.000 C 
ENDBRANCH  24  26
ENDBRANCH  22  24
ENDBRANCH  17  22
BRANCH  20  27
ATOM     27  C   UNL     1       2.978   2.836  21.137  0.00  0.00    +0.000 C 
BRANCH  27  28
ATOM     28  C   UNL     1       1.495   3.224  21.087  0.00  0.00    +0.000 C 
ATOM     29  C   UNL     1       0.796   2.849  19.787  0.00  0.00    +0.000 C 
BRANCH  28  30
ATOM     30  O   UNL     1       0.806   2.584  22.174  0.00  0.00    +0.000 OA
ATOM     31  H   UNL     1       0.072   3.165  22.441  0.00  0.00    +0.000 HD
ENDBRANCH  28  30
ENDBRANCH  27  28
ENDBRANCH  20  27
ENDBRANCH   1  21
TORSDOF 8
ENDMDL
MODEL 9
REMARK VINA RESULT:      -8.1      1.142      2.103
REMARK  Name = 
REMARK  10 active torsions:
REMARK  status: ('A' for Active; 'I' for Inactive)
REMARK    1  A    between atoms: C_1  and  C_2
REMARK    2  A    between atoms: C_2  and  O_3
REMARK    3  A    between atoms: O_3  and  C_4
REMARK    4  A    between atoms: C_4  and  C_6
REMARK    5  A    between atoms: N_9  and  C_10
REMARK    6  A    between atoms: C_10  and  C_11
REMARK    7  A    between atoms: C_11  and  C_12
REMARK    8  A    between atoms: C_11  and  O_13
REMARK    9  A    between atoms: C_14  and  N_15
REMARK   10  A    between atoms: N_18  and  C_19
REMARK                            x       y       z     vdW  Elec       q    Type
REMARK                         _______ _______ _______ _____ _____    ______ ____
ROOT
ATOM      1  N   UNL     1       2.797   6.779  17.777  0.00  0.00    +0.000 N 
ATOM      2  C   UNL     1       2.367   7.216  19.024  0.00  0.00    +0.000 C 
ATOM      3  O   UNL     1       2.589   6.597  20.058  0.00  0.00    +0.000 OA
ATOM      4  N   UNL     1       1.652   8.399  18.942  0.00  0.00    +0.000 N 
ATOM      5  H   UNL     1       3.164   7.531  17.199  0.00  0.00    +0.000 HD
ATOM      6  H   UNL     1       1.231   8.570  18.042  0.00  0.00    +0.000 HD
ENDROOT
BRANCH   4   7
ATOM      7  C   UNL     1       1.111   9.090  20.066  0.00  0.00    +0.000 A 
ATOM      8  C   UNL     1       1.419   8.661  21.367  0.00  0.00    +0.000 A 
ATOM      9  C   UNL     1       0.810   9.230  22.479  0.00  0.00    +0.000 A 
ATOM     10  C   UNL     1      -0.108  10.254  22.310  0.00  0.00    +0.000 A 
ATOM     11  C   UNL     1      -0.391  10.759  21.036  0.00  0.00    +0.000 A 
ATOM     12  C   UNL     1      -1.305  11.815  20.909  0.00  0.00    +0.000 A 
ATOM     13  C   UNL     1      -1.595  12.367  19.665  0.00  0.00    +0.000 A 
ATOM     14  C   UNL     1      -0.969  11.870  18.532  0.00  0.00    +0.000 A 
ATOM     15  C   UNL     1      -0.071  10.803  18.638  0.00  0.00    +0.000 A 
ATOM     16  C   UNL     1       0.239  10.204  19.886  0.00  0.00    +0.000 A 
ENDBRANCH   4   7
BRANCH   1  21
ATOM     17  C   UNL     1       3.022   4.291  17.733  0.00  0.00    +0.000 A 
ATOM     18  C   UNL     1       4.161   3.467  17.633  0.00  0.00    +0.000 A 
ATOM     19  N   UNL     1       5.296   4.160  17.595  0.00  0.00    +0.000 NA
ATOM     20  N   UNL     1       4.895   5.453  17.633  0.00  0.00    +0.000 N 
ATOM     21  C   UNL     1       3.519   5.583  17.713  0.00  0.00    +0.000 A 
BRANCH  17  22
ATOM     22  C   UNL     1       1.642   3.886  17.835  0.00  0.00    +0.000 C 
ATOM     23  O   UNL     1       0.760   4.325  17.104  0.00  0.00    +0.000 OA
BRANCH  22  24
ATOM     24  O   UNL     1       1.444   3.051  18.892  0.00  0.00    +0.000 OA
BRANCH  24  26
ATOM     25  C   UNL     1       1.360   2.795  21.261  0.00  0.00    +0.000 C 
ATOM     26  C   UNL     1       0.950   3.665  20.087  0.00  0.00    +0.000 C 
ENDBRANCH  24  26
ENDBRANCH  22  24
ENDBRANCH  17  22
BRANCH  20  27
ATOM     27  C   UNL     1       5.923   6.461  17.815  0.00  0.00    +0.000 C 
BRANCH  27  28
ATOM     28  C   UNL     1       7.197   5.951  18.499  0.00  0.00    +0.000 C 
ATOM     29  C   UNL     1       8.264   7.019  18.704  0.00  0.00    +0.000 C 
BRANCH  28  30
ATOM     30  O   UNL     1       6.854   5.400  19.780  0.00  0.00    +0.000 OA
ATOM     31  H   UNL     1       5.977   5.745  20.026  0.00  0.00    +0.000 HD
ENDBRANCH  28  30
ENDBRANCH  27  28
ENDBRANCH  20  27
ENDBRANCH   1  21
TORSDOF 8
ENDMDL
