MODEL 1
REMARK VINA RESULT:      -9.1      0.000      0.000
REMARK  Name = 
REMARK  9 active torsions:
REMARK  status: ('A' for Active; 'I' for Inactive)
REMARK    1  A    between atoms: C_1  and  O_2
REMARK    2  A    between atoms: O_2  and  C_3
REMARK    3  A    between atoms: C_11  and  C_12
REMARK    4  A    between atoms: C_12  and  C_13
REMARK    5  A    between atoms: C_13  and  C_14
REMARK    6  A    between atoms: C_14  and  O_15
REMARK    7  A    between atoms: C_14  and  C_16
REMARK    8  A    between atoms: C_31  and  O_32
REMARK    9  A    between atoms: O_32  and  C_33
REMARK                            x       y       z     vdW  Elec       q    Type
REMARK                         _______ _______ _______ _____ _____    ______ ____
ROOT
ATOM      1  C   UNL     1       2.162   7.577  19.654  0.00  0.00    +0.000 C 
ENDROOT
BRANCH   1  10
ATOM      2  C   UNL     1       6.556   6.217  16.450  0.00  0.00    +0.000 A 
ATOM      3  C   UNL     1       7.279   5.258  15.740  0.00  0.00    +0.000 A 
ATOM      4  C   UNL     1       6.820   3.954  15.651  0.00  0.00    +0.000 A 
ATOM      5  C   UNL     1       5.635   3.575  16.288  0.00  0.00    +0.000 A 
ATOM      6  C   UNL     1       4.877   4.492  17.059  0.00  0.00    +0.000 A 
ATOM      7  C   UNL     1       5.381   5.795  17.102  0.00  0.00    +0.000 A 
ATOM      8  N   UNL     1       4.519   6.534  17.869  0.00  0.00    +0.000 N 
ATOM      9  C   UNL     1       3.482   5.771  18.349  0.00  0.00    +0.000 A 
ATOM     10  C   UNL     1       2.412   6.176  19.171  0.00  0.00    +0.000 A 
ATOM     11  N   UNL     1       1.484   5.260  19.513  0.00  0.00    +0.000 NA
ATOM     12  C   UNL     1       1.626   3.999  19.074  0.00  0.00    +0.000 A 
ATOM     13  C   UNL     1       2.659   3.517  18.264  0.00  0.00    +0.000 A 
ATOM     14  C   UNL     1       3.654   4.455  17.863  0.00  0.00    +0.000 A 
ATOM     15  H   UNL     1       4.652   7.517  18.057  0.00  0.00    +0.000 HD
BRANCH   2  17
ATOM     16  C   UNL     1       7.810   7.792  17.683  0.00  0.00    +0.000 C 
ATOM     17  O   UNL     1       6.938   7.527  16.587  0.00  0.00    +0.000 OA
ENDBRANCH   2  17
BRANCH  13  18
ATOM     18  O   UNL     1       2.483   2.161  18.012  0.00  0.00    +0.000 OA
ATOM     19  C   UNL     1       3.482   1.257  18.404  0.00  0.00    +0.000 C 
ENDBRANCH  13  18
ENDBRANCH   1  10
BRANCH   1  20
ATOM     20  C   UNL     1       1.651   8.443  18.501  0.00  0.00    +0.000 C 
BRANCH  20  21
ATOM     21  C   UNL     1       1.882   9.934  18.758  0.00  0.00    +0.000 C 
BRANCH  21  22
ATOM     22  C   UNL     1       0.660  10.531  19.421  0.00  0.00    +0.000 A 
ATOM     23  N   UNL     1       0.783  10.964  20.712  0.00  0.00    +0.000 NA
ATOM     24  C   UNL     1      -0.266  11.565  21.318  0.00  0.00    +0.000 A 
ATOM     25  C   UNL     1      -1.500  11.793  20.729  0.00  0.00    +0.000 A 
ATOM     26  C   UNL     1      -1.655  11.348  19.406  0.00  0.00    +0.000 A 
ATOM     27  C   UNL     1      -0.574  10.728  18.786  0.00  0.00    +0.000 A 
ATOM     28  N   UNL     1      -0.980  10.401  17.512  0.00  0.00    +0.000 N 
ATOM     29  C   UNL     1      -2.282  10.780  17.293  0.00  0.00    +0.000 A 
ATOM     30  C   UNL     1      -3.079  10.632  16.152  0.00  0.00    +0.000 A 
ATOM     31  C   UNL     1      -4.381  11.129  16.204  0.00  0.00    +0.000 A 
ATOM     32  C   UNL     1      -4.864  11.754  17.352  0.00  0.00    +0.000 A 
ATOM     33  C   UNL     1      -4.053  11.892  18.485  0.00  0.00    +0.000 A 
ATOM     34  C   UNL     1      -2.733  11.391  18.461  0.00  0.00    +0.000 A 
ATOM     35  H   UNL     1      -0.403   9.938  16.822  0.00  0.00    +0.000 HD
ENDBRANCH  21  22
BRANCH  21  36
ATOM     36  O   UNL     1       2.128  10.573  17.501  0.00  0.00    +0.000 OA
ATOM     37  H   UNL     1       1.679  11.440  17.572  0.00  0.00    +0.000 HD
ENDBRANCH  21  36
ENDBRANCH  20  21
ENDBRANCH   1  20
TORSDOF 7
ENDMDL
MODEL 2
REMARK VINA RESULT:      -9.0      1.927      9.406
REMARK  Name = 
REMARK  9 active torsions:
REMARK  status: ('A' for Active; 'I' for Inactive)
REMARK    1  A    between atoms: C_1  and  O_2
REMARK    2  A    between atoms: O_2  and  C_3
REMARK    3  A    between atoms: C_11  and  C_12
REMARK    4  A    between atoms: C_12  and  C_13
REMARK    5  A    between atoms: C_13  and  C_14
REMARK    6  A    between atoms: C_14  and  O_15
REMARK    7  A    between atoms: C_14  and  C_16
REMARK    8  A    between atoms: C_31  and  O_32
REMARK    9  A    between atoms: O_32  and  C_33
REMARK                            x       y       z     vdW  Elec       q    Type
REMARK                         _______ _______ _______ _____ _____    ______ ____
ROOT
ATOM      1  C   UNL     1       1.908   9.593  18.300  0.00  0.00    +0.000 C 
ENDROOT
BRANCH   1  10
ATOM      2  C   UNL     1      -3.154  10.648  16.138  0.00  0.00    +0.000 A 
ATOM      3  C   UNL     1      -4.446  11.158  16.285  0.00  0.00    +0.000 A 
ATOM      4  C   UNL     1      -4.834  11.760  17.470  0.00  0.00    +0.000 A 
ATOM      5  C   UNL     1      -3.944  11.850  18.544  0.00  0.00    +0.000 A 
ATOM      6  C   UNL     1      -2.633  11.316  18.473  0.00  0.00    +0.000 A 
ATOM      7  C   UNL     1      -2.293  10.732  17.249  0.00  0.00    +0.000 A 
ATOM      8  N   UNL     1      -1.000  10.291  17.360  0.00  0.00    +0.000 N 
ATOM      9  C   UNL     1      -0.482  10.542  18.607  0.00  0.00    +0.000 A 
ATOM     10  C   UNL     1       0.803  10.231  19.094  0.00  0.00    +0.000 A 
ATOM     11  N   UNL     1       1.114  10.586  20.357  0.00  0.00    +0.000 NA
ATOM     12  C   UNL     1       0.183  11.202  21.104  0.00  0.00    +0.000 A 
ATOM     13  C   UNL     1      -1.112  11.539  20.699  0.00  0.00    +0.000 A 
ATOM     14  C   UNL     1      -1.479  11.197  19.365  0.00  0.00    +0.000 A 
ATOM     15  H   UNL     1      -0.507   9.832  16.608  0.00  0.00    +0.000 HD
BRANCH   2  17
ATOM     16  C   UNL     1      -3.579  10.075  13.888  0.00  0.00    +0.000 C 
ATOM     17  O   UNL     1      -2.690  10.039  15.001  0.00  0.00    +0.000 OA
ENDBRANCH   2  17
BRANCH  13  18
ATOM     18  O   UNL     1      -1.795  12.164  21.736  0.00  0.00    +0.000 OA
ATOM     19  C   UNL     1      -1.661  11.666  23.042  0.00  0.00    +0.000 C 
ENDBRANCH  13  18
ENDBRANCH   1  10
BRANCH   1  20
ATOM     20  C   UNL     1       1.726   8.074  18.279  0.00  0.00    +0.000 C 
BRANCH  20  21
ATOM     21  C   UNL     1       2.524   7.386  19.388  0.00  0.00    +0.000 C 
BRANCH  21  22
ATOM     22  C   UNL     1       2.845   5.966  18.978  0.00  0.00    +0.000 A 
ATOM     23  N   UNL     1       2.202   4.953  19.633  0.00  0.00    +0.000 NA
ATOM     24  C   UNL     1       2.410   3.671  19.252  0.00  0.00    +0.000 A 
ATOM     25  C   UNL     1       3.245   3.277  18.218  0.00  0.00    +0.000 A 
ATOM     26  C   UNL     1       3.925   4.298  17.535  0.00  0.00    +0.000 A 
ATOM     27  C   UNL     1       3.710   5.615  17.932  0.00  0.00    +0.000 A 
ATOM     28  N   UNL     1       4.477   6.409  17.110  0.00  0.00    +0.000 N 
ATOM     29  C   UNL     1       5.182   5.652  16.205  0.00  0.00    +0.000 A 
ATOM     30  C   UNL     1       6.077   6.052  15.206  0.00  0.00    +0.000 A 
ATOM     31  C   UNL     1       6.645   5.056  14.412  0.00  0.00    +0.000 A 
ATOM     32  C   UNL     1       6.328   3.714  14.609  0.00  0.00    +0.000 A 
ATOM     33  C   UNL     1       5.433   3.332  15.616  0.00  0.00    +0.000 A 
ATOM     34  C   UNL     1       4.848   4.320  16.437  0.00  0.00    +0.000 A 
ATOM     35  H   UNL     1       4.525   7.418  17.160  0.00  0.00    +0.000 HD
ENDBRANCH  21  22
BRANCH  21  36
ATOM     36  O   UNL     1       1.732   7.392  20.581  0.00  0.00    +0.000 OA
ATOM     37  H   UNL     1       2.215   7.981  21.196  0.00  0.00    +0.000 HD
ENDBRANCH  21  36
ENDBRANCH  20  21
ENDBRANCH   1  20
TORSDOF 7
ENDMDL
MODEL 3
REMARK VINA RESULT:      -8.6      1.269      3.529
REMARK  Name = 
REMARK  9 active torsions:
REMARK  status: ('A' for Active; 'I' for Inactive)
REMARK    1  A    between atoms: C_1  and  O_2
REMARK    2  A    between atoms: O_2  and  C_3
REMARK    3  A    between atoms: C_11  and  C_12
REMARK    4  A    between atoms: C_12  and  C_13
REMARK    5  A    between atoms: C_13  and  C_14
REMARK    6  A    between atoms: C_14  and  O_15
REMARK    7  A    between atoms: C_14  and  C_16
REMARK    8  A    between atoms: C_31  and  O_32
REMARK    9  A    between atoms: O_32  and  C_33
REMARK                            x       y       z     vdW  Elec       q    Type
REMARK                         _______ _______ _______ _____ _____    ______ ____
ROOT
ATOM      1  C   UNL     1       2.110   8.215  18.698  0.00  0.00    +0.000 C 
ENDROOT
BRANCH   1  10
ATOM      2  C   UNL     1       1.997   2.663  19.457  0.00  0.00    +0.000 A 
ATOM      3  C   UNL     1       2.502   1.396  19.163  0.00  0.00    +0.000 A 
ATOM      4  C   UNL     1       3.576   1.249  18.301  0.00  0.00    +0.000 A 
ATOM      5  C   UNL     1       4.160   2.367  17.698  0.00  0.00    +0.000 A 
ATOM      6  C   UNL     1       3.667   3.677  17.924  0.00  0.00    +0.000 A 
ATOM      7  C   UNL     1       2.592   3.765  18.812  0.00  0.00    +0.000 A 
ATOM      8  N   UNL     1       2.266   5.092  18.917  0.00  0.00    +0.000 N 
ATOM      9  C   UNL     1       3.066   5.878  18.125  0.00  0.00    +0.000 A 
ATOM     10  C   UNL     1       3.029   7.277  17.966  0.00  0.00    +0.000 A 
ATOM     11  N   UNL     1       3.927   7.853  17.142  0.00  0.00    +0.000 NA
ATOM     12  C   UNL     1       4.806   7.072  16.494  0.00  0.00    +0.000 A 
ATOM     13  C   UNL     1       4.904   5.681  16.592  0.00  0.00    +0.000 A 
ATOM     14  C   UNL     1       3.985   5.030  17.465  0.00  0.00    +0.000 A 
ATOM     15  H   UNL     1       1.518   5.431  19.506  0.00  0.00    +0.000 HD
BRANCH   2  17
ATOM     16  C   UNL     1       1.270   2.959  21.683  0.00  0.00    +0.000 C 
ATOM     17  O   UNL     1       0.940   2.897  20.298  0.00  0.00    +0.000 OA
ENDBRANCH   2  17
BRANCH  13  18
ATOM     18  O   UNL     1       5.927   5.211  15.776  0.00  0.00    +0.000 OA
ATOM     19  C   UNL     1       5.624   4.294  14.757  0.00  0.00    +0.000 C 
ENDBRANCH  13  18
ENDBRANCH   1  10
BRANCH   1  20
ATOM     20  C   UNL     1       1.749   9.399  17.799  0.00  0.00    +0.000 C 
BRANCH  20  21
ATOM     21  C   UNL     1       2.002  10.741  18.489  0.00  0.00    +0.000 C 
BRANCH  21  22
ATOM     22  C   UNL     1       0.788  11.130  19.304  0.00  0.00    +0.000 A 
ATOM     23  N   UNL     1       0.983  11.478  20.612  0.00  0.00    +0.000 NA
ATOM     24  C   UNL     1      -0.066  11.897  21.356  0.00  0.00    +0.000 A 
ATOM     25  C   UNL     1      -1.370  12.012  20.896  0.00  0.00    +0.000 A 
ATOM     26  C   UNL     1      -1.598  11.651  19.559  0.00  0.00    +0.000 A 
ATOM     27  C   UNL     1      -0.516  11.218  18.797  0.00  0.00    +0.000 A 
ATOM     28  N   UNL     1      -1.001  10.939  17.540  0.00  0.00    +0.000 N 
ATOM     29  C   UNL     1      -2.354  11.168  17.467  0.00  0.00    +0.000 A 
ATOM     30  C   UNL     1      -3.234  11.006  16.391  0.00  0.00    +0.000 A 
ATOM     31  C   UNL     1      -4.574  11.333  16.598  0.00  0.00    +0.000 A 
ATOM     32  C   UNL     1      -5.014  11.805  17.832  0.00  0.00    +0.000 A 
ATOM     33  C   UNL     1      -4.120  11.959  18.899  0.00  0.00    +0.000 A 
ATOM     34  C   UNL     1      -2.759  11.629  18.717  0.00  0.00    +0.000 A 
ATOM     35  H   UNL     1      -0.443  10.604  16.766  0.00  0.00    +0.000 HD
ENDBRANCH  21  22
BRANCH  21  36
ATOM     36  O   UNL     1       2.260  11.723  17.481  0.00  0.00    +0.000 OA
ATOM     37  H   UNL     1       2.587  11.211  16.713  0.00  0.00    +0.000 HD
ENDBRANCH  21  36
ENDBRANCH  20  21
ENDBRANCH   1  20
TORSDOF 7
ENDMDL
MODEL 4
REMARK VINA RESULT:      -8.5      0.963      1.094
REMARK  Name = 
REMARK  9 active torsions:
REMARK  status: ('A' for Active; 'I' for Inactive)
REMARK    1  A    between atoms: C_1  and  O_2
REMARK    2  A    between atoms: O_2  and  C_3
REMARK    3  A    between atoms: C_11  and  C_12
REMARK    4  A    between atoms: C_12  and  C_13
REMARK    5  A    between atoms: C_13  and  C_14
REMARK    6  A    between atoms: C_14  and  O_15
REMARK    7  A    between atoms: C_14  and  C_16
REMARK    8  A    between atoms: C_31  and  O_32
REMARK    9  A    between atoms: O_32  and  C_33
REMARK                            x       y       z     vdW  Elec       q    Type
REMARK                         _______ _______ _______ _____ _____    ______ ____
ROOT
ATOM      1  C   UNL     1       2.180   7.707  20.650  0.00  0.00    +0.000 C 
ENDROOT
BRANCH   1  10
ATOM      2  C   UNL     1       5.839   6.294  16.646  0.00  0.00    +0.000 A 
ATOM      3  C   UNL     1       6.341   5.348  15.751  0.00  0.00    +0.000 A 
ATOM      4  C   UNL     1       5.753   4.098  15.645  0.00  0.00    +0.000 A 
ATOM      5  C   UNL     1       4.659   3.759  16.446  0.00  0.00    +0.000 A 
ATOM      6  C   UNL     1       4.128   4.660  17.403  0.00  0.00    +0.000 A 
ATOM      7  C   UNL     1       4.752   5.910  17.456  0.00  0.00    +0.000 A 
ATOM      8  N   UNL     1       4.102   6.643  18.414  0.00  0.00    +0.000 N 
ATOM      9  C   UNL     1       3.091   5.926  19.005  0.00  0.00    +0.000 A 
ATOM     10  C   UNL     1       2.214   6.339  20.027  0.00  0.00    +0.000 A 
ATOM     11  N   UNL     1       1.273   5.473  20.454  0.00  0.00    +0.000 NA
ATOM     12  C   UNL     1       1.222   4.249  19.904  0.00  0.00    +0.000 A 
ATOM     13  C   UNL     1       2.058   3.761  18.894  0.00  0.00    +0.000 A 
ATOM     14  C   UNL     1       3.057   4.649  18.400  0.00  0.00    +0.000 A 
ATOM     15  H   UNL     1       4.356   7.592  18.648  0.00  0.00    +0.000 HD
BRANCH   2  17
ATOM     16  C   UNL     1       7.556   7.613  17.584  0.00  0.00    +0.000 C 
ATOM     17  O   UNL     1       6.359   7.551  16.813  0.00  0.00    +0.000 OA
ENDBRANCH   2  17
BRANCH  13  18
ATOM     18  O   UNL     1       1.716   2.452  18.575  0.00  0.00    +0.000 OA
ATOM     19  C   UNL     1       2.709   1.460  18.598  0.00  0.00    +0.000 C 
ENDBRANCH  13  18
ENDBRANCH   1  10
BRANCH   1  20
ATOM     20  C   UNL     1       0.877   8.418  20.277  0.00  0.00    +0.000 C 
BRANCH  20  21
ATOM     21  C   UNL     1       1.121   9.857  19.820  0.00  0.00    +0.000 C 
BRANCH  21  22
ATOM     22  C   UNL     1      -0.188  10.616  19.809  0.00  0.00    +0.000 A 
ATOM     23  N   UNL     1      -0.478  11.402  20.890  0.00  0.00    +0.000 NA
ATOM     24  C   UNL     1      -1.606  12.148  20.890  0.00  0.00    +0.000 A 
ATOM     25  C   UNL     1      -2.529  12.193  19.856  0.00  0.00    +0.000 A 
ATOM     26  C   UNL     1      -2.259  11.387  18.739  0.00  0.00    +0.000 A 
ATOM     27  C   UNL     1      -1.099  10.618  18.744  0.00  0.00    +0.000 A 
ATOM     28  N   UNL     1      -1.068   9.937  17.547  0.00  0.00    +0.000 N 
ATOM     29  C   UNL     1      -2.167  10.233  16.779  0.00  0.00    +0.000 A 
ATOM     30  C   UNL     1      -2.529   9.761  15.512  0.00  0.00    +0.000 A 
ATOM     31  C   UNL     1      -3.711  10.248  14.954  0.00  0.00    +0.000 A 
ATOM     32  C   UNL     1      -4.497  11.175  15.636  0.00  0.00    +0.000 A 
ATOM     33  C   UNL     1      -4.120  11.635  16.904  0.00  0.00    +0.000 A 
ATOM     34  C   UNL     1      -2.932  11.153  17.494  0.00  0.00    +0.000 A 
ATOM     35  H   UNL     1      -0.336   9.298  17.265  0.00  0.00    +0.000 HD
ENDBRANCH  21  22
BRANCH  21  36
ATOM     36  O   UNL     1       1.685   9.821  18.505  0.00  0.00    +0.000 OA
ATOM     37  H   UNL     1       2.200  10.650  18.433  0.00  0.00    +0.000 HD
ENDBRANCH  21  36
ENDBRANCH  20  21
ENDBRANCH   1  20
TORSDOF 7
ENDMDL
MODEL 5
REMARK VINA RESULT:      -8.4      3.096     10.006
REMARK  Name = 
REMARK  9 active torsions:
REMARK  status: ('A' for Active; 'I' for Inactive)
REMARK    1  A    between atoms: C_1  and  O_2
REMARK    2  A    between atoms: O_2  and  C_3
REMARK    3  A    between atoms: C_11  and  C_12
REMARK    4  A    between atoms: C_12  and  C_13
REMARK    5  A    between atoms: C_13  and  C_14
REMARK    6  A    between atoms: C_14  and  O_15
REMARK    7  A    between atoms: C_14  and  C_16
REMARK    8  A    between atoms: C_31  and  O_32
REMARK    9  A    between atoms: O_32  and  C_33
REMARK                            x       y       z     vdW  Elec       q    Type
REMARK                         _______ _______ _______ _____ _____    ______ ____
ROOT
ATOM      1  C   UNL     1      -0.536  11.122  19.550  0.00  0.00    +0.000 C 
ENDROOT
BRANCH   1  10
ATOM      2  C   UNL     1      -5.650  13.384  19.939  0.00  0.00    +0.000 A 
ATOM      3  C   UNL     1      -6.917  13.601  19.394  0.00  0.00    +0.000 A 
ATOM      4  C   UNL     1      -7.268  13.032  18.182  0.00  0.00    +0.000 A 
ATOM      5  C   UNL     1      -6.353  12.246  17.475  0.00  0.00    +0.000 A 
ATOM      6  C   UNL     1      -5.038  12.022  17.954  0.00  0.00    +0.000 A 
ATOM      7  C   UNL     1      -4.744  12.609  19.188  0.00  0.00    +0.000 A 
ATOM      8  N   UNL     1      -3.451  12.275  19.494  0.00  0.00    +0.000 N 
ATOM      9  C   UNL     1      -2.875  11.510  18.509  0.00  0.00    +0.000 A 
ATOM     10  C   UNL     1      -1.569  10.986  18.466  0.00  0.00    +0.000 A 
ATOM     11  N   UNL     1      -1.212  10.239  17.402  0.00  0.00    +0.000 NA
ATOM     12  C   UNL     1      -2.106  10.042  16.420  0.00  0.00    +0.000 A 
ATOM     13  C   UNL     1      -3.415  10.532  16.383  0.00  0.00    +0.000 A 
ATOM     14  C   UNL     1      -3.842  11.313  17.497  0.00  0.00    +0.000 A 
ATOM     15  H   UNL     1      -2.991  12.573  20.343  0.00  0.00    +0.000 HD
BRANCH   2  17
ATOM     16  C   UNL     1      -5.724  13.255  22.294  0.00  0.00    +0.000 C 
ATOM     17  O   UNL     1      -5.222  13.908  21.131  0.00  0.00    +0.000 OA
ENDBRANCH   2  17
BRANCH  13  18
ATOM     18  O   UNL     1      -4.048  10.131  15.212  0.00  0.00    +0.000 OA
ATOM     19  C   UNL     1      -3.296  10.015  14.033  0.00  0.00    +0.000 C 
ENDBRANCH  13  18
ENDBRANCH   1  10
BRANCH   1  20
ATOM     20  C   UNL     1      -0.440   9.820  20.347  0.00  0.00    +0.000 C 
BRANCH  20  21
ATOM     21  C   UNL     1       1.000   9.502  20.754  0.00  0.00    +0.000 C 
BRANCH  21  22
ATOM     22  C   UNL     1       1.644   8.625  19.703  0.00  0.00    +0.000 A 
ATOM     23  N   UNL     1       2.023   9.212  18.528  0.00  0.00    +0.000 NA
ATOM     24  C   UNL     1       2.662   8.477  17.589  0.00  0.00    +0.000 A 
ATOM     25  C   UNL     1       2.982   7.134  17.714  0.00  0.00    +0.000 A 
ATOM     26  C   UNL     1       2.594   6.505  18.908  0.00  0.00    +0.000 A 
ATOM     27  C   UNL     1       1.934   7.264  19.871  0.00  0.00    +0.000 A 
ATOM     28  N   UNL     1       1.676   6.424  20.931  0.00  0.00    +0.000 N 
ATOM     29  C   UNL     1       2.138   5.155  20.683  0.00  0.00    +0.000 A 
ATOM     30  C   UNL     1       2.077   4.006  21.481  0.00  0.00    +0.000 A 
ATOM     31  C   UNL     1       2.647   2.838  20.977  0.00  0.00    +0.000 A 
ATOM     32  C   UNL     1       3.258   2.821  19.725  0.00  0.00    +0.000 A 
ATOM     33  C   UNL     1       3.309   3.979  18.939  0.00  0.00    +0.000 A 
ATOM     34  C   UNL     1       2.733   5.173  19.423  0.00  0.00    +0.000 A 
ATOM     35  H   UNL     1       1.206   6.698  21.784  0.00  0.00    +0.000 HD
ENDBRANCH  21  22
BRANCH  21  36
ATOM     36  O   UNL     1       0.971   8.826  22.016  0.00  0.00    +0.000 OA
ATOM     37  H   UNL     1       0.348   9.348  22.562  0.00  0.00    +0.000 HD
ENDBRANCH  21  36
ENDBRANCH  20  21
ENDBRANCH   1  20
TORSDOF 7
ENDMDL
MODEL 6
REMARK VINA RESULT:      -8.4      3.002      5.220
REMARK  Name = 
REMARK  9 active torsions:
REMARK  status: ('A' for Active; 'I' for Inactive)
REMARK    1  A    between atoms: C_1  and  O_2
REMARK    2  A    between atoms: O_2  and  C_3
REMARK    3  A    between atoms: C_11  and  C_12
REMARK    4  A    between atoms: C_12  and  C_13
REMARK    5  A    between atoms: C_13  and  C_14
REMARK    6  A    between atoms: C_14  and  O_15
REMARK    7  A    between atoms: C_14  and  C_16
REMARK    8  A    between atoms: C_31  and  O_32
REMARK    9  A    between atoms: O_32  and  C_33
REMARK                            x       y       z     vdW  Elec       q    Type
REMARK                         _______ _______ _______ _____ _____    ______ ____
ROOT
ATOM      1  C   UNL     1       3.840   4.049  18.032  0.00  0.00    +0.000 C 
ENDROOT
BRANCH   1  10
ATOM      2  C   UNL     1       6.044   3.690  12.890  0.00  0.00    +0.000 A 
ATOM      3  C   UNL     1       6.980   4.117  11.948  0.00  0.00    +0.000 A 
ATOM      4  C   UNL     1       7.924   5.075  12.278  0.00  0.00    +0.000 A 
ATOM      5  C   UNL     1       7.943   5.642  13.555  0.00  0.00    +0.000 A 
ATOM      6  C   UNL     1       6.994   5.280  14.545  0.00  0.00    +0.000 A 
ATOM      7  C   UNL     1       6.074   4.301  14.159  0.00  0.00    +0.000 A 
ATOM      8  N   UNL     1       5.257   4.072  15.235  0.00  0.00    +0.000 N 
ATOM      9  C   UNL     1       5.586   4.869  16.304  0.00  0.00    +0.000 A 
ATOM     10  C   UNL     1       4.974   4.922  17.572  0.00  0.00    +0.000 A 
ATOM     11  N   UNL     1       5.472   5.775  18.490  0.00  0.00    +0.000 NA
ATOM     12  C   UNL     1       6.516   6.549  18.154  0.00  0.00    +0.000 A 
ATOM     13  C   UNL     1       7.174   6.563  16.920  0.00  0.00    +0.000 A 
ATOM     14  C   UNL     1       6.691   5.665  15.924  0.00  0.00    +0.000 A 
ATOM     15  H   UNL     1       4.503   3.399  15.222  0.00  0.00    +0.000 HD
BRANCH   2  17
ATOM     16  C   UNL     1       4.270   2.993  11.498  0.00  0.00    +0.000 C 
ATOM     17  O   UNL     1       5.078   2.748  12.647  0.00  0.00    +0.000 OA
ENDBRANCH   2  17
BRANCH  13  18
ATOM     18  O   UNL     1       8.206   7.493  16.933  0.00  0.00    +0.000 OA
ATOM     19  C   UNL     1       8.179   8.533  17.876  0.00  0.00    +0.000 C 
ENDBRANCH  13  18
ENDBRANCH   1  10
BRANCH   1  20
ATOM     20  C   UNL     1       2.528   4.834  17.992  0.00  0.00    +0.000 C 
BRANCH  20  21
ATOM     21  C   UNL     1       2.253   5.557  19.312  0.00  0.00    +0.000 C 
BRANCH  21  22
ATOM     22  C   UNL     1       2.106   7.042  19.058  0.00  0.00    +0.000 A 
ATOM     23  N   UNL     1       2.578   7.535  17.873  0.00  0.00    +0.000 NA
ATOM     24  C   UNL     1       2.406   8.844  17.578  0.00  0.00    +0.000 A 
ATOM     25  C   UNL     1       1.769   9.765  18.396  0.00  0.00    +0.000 A 
ATOM     26  C   UNL     1       1.283   9.285  19.622  0.00  0.00    +0.000 A 
ATOM     27  C   UNL     1       1.465   7.939  19.924  0.00  0.00    +0.000 A 
ATOM     28  N   UNL     1       0.899   7.728  21.161  0.00  0.00    +0.000 N 
ATOM     29  C   UNL     1       0.368   8.889  21.668  0.00  0.00    +0.000 A 
ATOM     30  C   UNL     1      -0.283   9.120  22.885  0.00  0.00    +0.000 A 
ATOM     31  C   UNL     1      -0.738  10.414  23.139  0.00  0.00    +0.000 A 
ATOM     32  C   UNL     1      -0.550  11.435  22.210  0.00  0.00    +0.000 A 
ATOM     33  C   UNL     1       0.107  11.186  20.998  0.00  0.00    +0.000 A 
ATOM     34  C   UNL     1       0.582   9.886  20.720  0.00  0.00    +0.000 A 
ATOM     35  H   UNL     1       0.876   6.839  21.642  0.00  0.00    +0.000 HD
ENDBRANCH  21  22
BRANCH  21  36
ATOM     36  O   UNL     1       3.352   5.312  20.196  0.00  0.00    +0.000 OA
ATOM     37  H   UNL     1       4.100   5.088  19.605  0.00  0.00    +0.000 HD
ENDBRANCH  21  36
ENDBRANCH  20  21
ENDBRANCH   1  20
TORSDOF 7
ENDMDL
MODEL 7
REMARK VINA RESULT:      -8.3      5.600      9.919
REMARK  Name = 
REMARK  9 active torsions:
REMARK  status: ('A' for Active; 'I' for Inactive)
REMARK    1  A    between atoms: C_1  and  O_2
REMARK    2  A    between atoms: O_2  and  C_3
REMARK    3  A    between atoms: C_11  and  C_12
REMARK    4  A    between atoms: C_12  and  C_13
REMARK    5  A    between atoms: C_13  and  C_14
REMARK    6  A    between atoms: C_14  and  O_15
REMARK    7  A    between atoms: C_14  and  C_16
REMARK    8  A    between atoms: C_31  and  O_32
REMARK    9  A    between atoms: O_32  and  C_33
REMARK                            x       y       z     vdW  Elec       q    Type
REMARK                         _______ _______ _______ _____ _____    ______ ____
ROOT
ATOM      1  C   UNL     1       8.811   8.828  19.416  0.00  0.00    +0.000 C 
ENDROOT
BRANCH   1  10
ATOM      2  C   UNL     1       8.647  12.682  23.482  0.00  0.00    +0.000 A 
ATOM      3  C   UNL     1       8.812  14.005  23.897  0.00  0.00    +0.000 A 
ATOM      4  C   UNL     1       9.157  14.990  22.987  0.00  0.00    +0.000 A 
ATOM      5  C   UNL     1       9.364  14.671  21.642  0.00  0.00    +0.000 A 
ATOM      6  C   UNL     1       9.253  13.341  21.165  0.00  0.00    +0.000 A 
ATOM      7  C   UNL     1       8.889  12.392  22.125  0.00  0.00    +0.000 A 
ATOM      8  N   UNL     1       8.815  11.182  21.486  0.00  0.00    +0.000 N 
ATOM      9  C   UNL     1       9.132  11.290  20.154  0.00  0.00    +0.000 A 
ATOM     10  C   UNL     1       9.171  10.269  19.184  0.00  0.00    +0.000 A 
ATOM     11  N   UNL     1       9.494  10.600  17.917  0.00  0.00    +0.000 NA
ATOM     12  C   UNL     1       9.781  11.881  17.636  0.00  0.00    +0.000 A 
ATOM     13  C   UNL     1       9.772  12.948  18.539  0.00  0.00    +0.000 A 
ATOM     14  C   UNL     1       9.420  12.648  19.887  0.00  0.00    +0.000 A 
ATOM     15  H   UNL     1       8.565  10.324  21.957  0.00  0.00    +0.000 HD
BRANCH   2  17
ATOM     16  C   UNL     1       6.913  11.525  24.588  0.00  0.00    +0.000 C 
ATOM     17  O   UNL     1       8.306  11.648  24.316  0.00  0.00    +0.000 OA
ENDBRANCH   2  17
BRANCH  13  18
ATOM     18  O   UNL     1      10.124  14.129  17.896  0.00  0.00    +0.000 OA
ATOM     19  C   UNL     1       9.244  15.221  17.940  0.00  0.00    +0.000 C 
ENDBRANCH  13  18
ENDBRANCH   1  10
BRANCH   1  20
ATOM     20  C   UNL     1       8.160   8.244  18.161  0.00  0.00    +0.000 C 
BRANCH  20  21
ATOM     21  C   UNL     1       8.186   6.714  18.161  0.00  0.00    +0.000 C 
BRANCH  21  22
ATOM     22  C   UNL     1       7.073   6.187  17.283  0.00  0.00    +0.000 A 
ATOM     23  N   UNL     1       7.326   6.054  15.945  0.00  0.00    +0.000 NA
ATOM     24  C   UNL     1       6.380   5.523  15.136  0.00  0.00    +0.000 A 
ATOM     25  C   UNL     1       5.133   5.084  15.554  0.00  0.00    +0.000 A 
ATOM     26  C   UNL     1       4.846   5.219  16.921  0.00  0.00    +0.000 A 
ATOM     27  C   UNL     1       5.820   5.768  17.750  0.00  0.00    +0.000 A 
ATOM     28  N   UNL     1       5.297   5.781  19.023  0.00  0.00    +0.000 N 
ATOM     29  C   UNL     1       4.022   5.269  19.043  0.00  0.00    +0.000 A 
ATOM     30  C   UNL     1       3.136   5.109  20.114  0.00  0.00    +0.000 A 
ATOM     31  C   UNL     1       1.892   4.540  19.843  0.00  0.00    +0.000 A 
ATOM     32  C   UNL     1       1.549   4.145  18.552  0.00  0.00    +0.000 A 
ATOM     33  C   UNL     1       2.448   4.315  17.491  0.00  0.00    +0.000 A 
ATOM     34  C   UNL     1       3.712   4.894  17.737  0.00  0.00    +0.000 A 
ATOM     35  H   UNL     1       5.780   6.124  19.843  0.00  0.00    +0.000 HD
ENDBRANCH  21  22
BRANCH  21  36
ATOM     36  O   UNL     1       8.012   6.263  19.508  0.00  0.00    +0.000 OA
ATOM     37  H   UNL     1       8.365   5.350  19.511  0.00  0.00    +0.000 HD
ENDBRANCH  21  36
ENDBRANCH  20  21
ENDBRANCH   1  20
TORSDOF 7
ENDMDL
MODEL 8
REMARK VINA RESULT:      -8.3      2.291      9.497
REMARK  Name = 
REMARK  9 active torsions:
REMARK  status: ('A' for Active; 'I' for Inactive)
REMARK    1  A    between atoms: C_1  and  O_2
REMARK    2  A    between atoms: O_2  and  C_3
REMARK    3  A    between atoms: C_11  and  C_12
REMARK    4  A    between atoms: C_12  and  C_13
REMARK    5  A    between atoms: C_13  and  C_14
REMARK    6  A    between atoms: C_14  and  O_15
REMARK    7  A    between atoms: C_14  and  C_16
REMARK    8  A    between atoms: C_31  and  O_32
REMARK    9  A    between atoms: O_32  and  C_33
REMARK                            x       y       z     vdW  Elec       q    Type
REMARK                         _______ _______ _______ _____ _____    ______ ____
ROOT
ATOM      1  C   UNL     1       1.500  10.215  19.157  0.00  0.00    +0.000 C 
ENDROOT
BRANCH   1  10
ATOM      2  C   UNL     1      -3.717  10.760  17.182  0.00  0.00    +0.000 A 
ATOM      3  C   UNL     1      -5.006  11.282  17.309  0.00  0.00    +0.000 A 
ATOM      4  C   UNL     1      -5.325  12.121  18.364  0.00  0.00    +0.000 A 
ATOM      5  C   UNL     1      -4.367  12.441  19.330  0.00  0.00    +0.000 A 
ATOM      6  C   UNL     1      -3.053  11.911  19.281  0.00  0.00    +0.000 A 
ATOM      7  C   UNL     1      -2.784  11.083  18.187  0.00  0.00    +0.000 A 
ATOM      8  N   UNL     1      -1.478  10.683  18.298  0.00  0.00    +0.000 N 
ATOM      9  C   UNL     1      -0.882  11.195  19.424  0.00  0.00    +0.000 A 
ATOM     10  C   UNL     1       0.439  11.002  19.874  0.00  0.00    +0.000 A 
ATOM     11  N   UNL     1       0.827  11.618  21.009  0.00  0.00    +0.000 NA
ATOM     12  C   UNL     1      -0.063  12.374  21.672  0.00  0.00    +0.000 A 
ATOM     13  C   UNL     1      -1.390  12.609  21.298  0.00  0.00    +0.000 A 
ATOM     14  C   UNL     1      -1.839  11.991  20.095  0.00  0.00    +0.000 A 
ATOM     15  H   UNL     1      -1.028  10.077  17.627  0.00  0.00    +0.000 HD
BRANCH   2  17
ATOM     16  C   UNL     1      -3.362  10.495  14.864  0.00  0.00    +0.000 C 
ATOM     17  O   UNL     1      -3.318   9.926  16.171  0.00  0.00    +0.000 OA
ENDBRANCH   2  17
BRANCH  13  18
ATOM     18  O   UNL     1      -2.014  13.437  22.225  0.00  0.00    +0.000 OA
ATOM     19  C   UNL     1      -1.326  13.792  23.396  0.00  0.00    +0.000 C 
ENDBRANCH  13  18
ENDBRANCH   1  10
BRANCH   1  20
ATOM     20  C   UNL     1       1.190   8.720  19.243  0.00  0.00    +0.000 C 
BRANCH  20  21
ATOM     21  C   UNL     1       1.997   8.030  20.344  0.00  0.00    +0.000 C 
BRANCH  21  22
ATOM     22  C   UNL     1       2.260   6.591  19.956  0.00  0.00    +0.000 A 
ATOM     23  N   UNL     1       1.646   5.612  20.686  0.00  0.00    +0.000 NA
ATOM     24  C   UNL     1       1.801   4.316  20.330  0.00  0.00    +0.000 A 
ATOM     25  C   UNL     1       2.553   3.873  19.252  0.00  0.00    +0.000 A 
ATOM     26  C   UNL     1       3.202   4.859  18.493  0.00  0.00    +0.000 A 
ATOM     27  C   UNL     1       3.042   6.191  18.863  0.00  0.00    +0.000 A 
ATOM     28  N   UNL     1       3.764   6.944  17.965  0.00  0.00    +0.000 N 
ATOM     29  C   UNL     1       4.387   6.146  17.036  0.00  0.00    +0.000 A 
ATOM     30  C   UNL     1       5.216   6.496  15.965  0.00  0.00    +0.000 A 
ATOM     31  C   UNL     1       5.707   5.466  15.164  0.00  0.00    +0.000 A 
ATOM     32  C   UNL     1       5.379   4.137  15.424  0.00  0.00    +0.000 A 
ATOM     33  C   UNL     1       4.550   3.804  16.502  0.00  0.00    +0.000 A 
ATOM     34  C   UNL     1       4.044   4.828  17.332  0.00  0.00    +0.000 A 
ATOM     35  H   UNL     1       3.834   7.953  17.980  0.00  0.00    +0.000 HD
ENDBRANCH  21  22
BRANCH  21  36
ATOM     36  O   UNL     1       1.241   8.086  21.558  0.00  0.00    +0.000 OA
ATOM     37  H   UNL     1       0.306   8.073  21.268  0.00  0.00    +0.000 HD
ENDBRANCH  21  36
ENDBRANCH  20  21
ENDBRANCH   1  20
TORSDOF 7
ENDMDL
MODEL 9
REMARK VINA RESULT:      -8.3      2.818      3.154
REMARK  Name = 
REMARK  9 active torsions:
REMARK  status: ('A' for Active; 'I' for Inactive)
REMARK    1  A    between atoms: C_1  and  O_2
REMARK    2  A    between atoms: O_2  and  C_3
REMARK    3  A    between atoms: C_11  and  C_12
REMARK    4  A    between atoms: C_12  and  C_13
REMARK    5  A    between atoms: C_13  and  C_14
REMARK    6  A    between atoms: C_14  and  O_15
REMARK    7  A    between atoms: C_14  and  C_16
REMARK    8  A    between atoms: C_31  and  O_32
REMARK    9  A    between atoms: O_32  and  C_33
REMARK                            x       y       z     vdW  Elec       q    Type
REMARK                         _______ _______ _______ _____ _____    ______ ____
ROOT
ATOM      1  C   UNL     1       1.972   7.918  20.468  0.00  0.00    +0.000 C 
ENDROOT
BRANCH   1  10
ATOM      2  C   UNL     1       5.739   6.255  16.665  0.00  0.00    +0.000 A 
ATOM      3  C   UNL     1       6.298   5.241  15.885  0.00  0.00    +0.000 A 
ATOM      4  C   UNL     1       5.775   3.959  15.918  0.00  0.00    +0.000 A 
ATOM      5  C   UNL     1       4.691   3.656  16.747  0.00  0.00    +0.000 A 
ATOM      6  C   UNL     1       4.105   4.630  17.593  0.00  0.00    +0.000 A 
ATOM      7  C   UNL     1       4.665   5.908  17.508  0.00  0.00    +0.000 A 
ATOM      8  N   UNL     1       3.969   6.710  18.375  0.00  0.00    +0.000 N 
ATOM      9  C   UNL     1       2.989   6.013  19.039  0.00  0.00    +0.000 A 
ATOM     10  C   UNL     1       2.082   6.492  20.003  0.00  0.00    +0.000 A 
ATOM     11  N   UNL     1       1.181   5.632  20.521  0.00  0.00    +0.000 NA
ATOM     12  C   UNL     1       1.198   4.354  20.111  0.00  0.00    +0.000 A 
ATOM     13  C   UNL     1       2.068   3.799  19.167  0.00  0.00    +0.000 A 
ATOM     14  C   UNL     1       3.026   4.676  18.581  0.00  0.00    +0.000 A 
ATOM     15  H   UNL     1       4.172   7.691  18.502  0.00  0.00    +0.000 HD
BRANCH   2  17
ATOM     16  C   UNL     1       7.408   7.748  17.410  0.00  0.00    +0.000 C 
ATOM     17  O   UNL     1       6.193   7.548  16.692  0.00  0.00    +0.000 OA
ENDBRANCH   2  17
BRANCH  13  18
ATOM     18  O   UNL     1       1.796   2.446  18.996  0.00  0.00    +0.000 OA
ATOM     19  C   UNL     1       2.861   1.554  18.794  0.00  0.00    +0.000 C 
ENDBRANCH  13  18
ENDBRANCH   1  10
BRANCH   1  20
ATOM     20  C   UNL     1       0.652   8.124  21.213  0.00  0.00    +0.000 C 
BRANCH  20  21
ATOM     21  C   UNL     1       0.832   8.973  22.472  0.00  0.00    +0.000 C 
BRANCH  21  22
ATOM     22  C   UNL     1       0.006  10.236  22.356  0.00  0.00    +0.000 A 
ATOM     23  N   UNL     1      -1.085  10.361  23.171  0.00  0.00    +0.000 NA
ATOM     24  C   UNL     1      -1.810  11.503  23.146  0.00  0.00    +0.000 A 
ATOM     25  C   UNL     1      -1.538  12.599  22.341  0.00  0.00    +0.000 A 
ATOM     26  C   UNL     1      -0.428  12.491  21.488  0.00  0.00    +0.000 A 
ATOM     27  C   UNL     1       0.314  11.314  21.515  0.00  0.00    +0.000 A 
ATOM     28  N   UNL     1       1.335  11.467  20.605  0.00  0.00    +0.000 N 
ATOM     29  C   UNL     1       1.273  12.694  19.989  0.00  0.00    +0.000 A 
ATOM     30  C   UNL     1       2.101  13.248  19.006  0.00  0.00    +0.000 A 
ATOM     31  C   UNL     1       1.808  14.538  18.566  0.00  0.00    +0.000 A 
ATOM     32  C   UNL     1       0.730  15.247  19.091  0.00  0.00    +0.000 A 
ATOM     33  C   UNL     1      -0.090  14.676  20.073  0.00  0.00    +0.000 A 
ATOM     34  C   UNL     1       0.181  13.369  20.531  0.00  0.00    +0.000 A 
ATOM     35  H   UNL     1       2.042  10.771  20.406  0.00  0.00    +0.000 HD
ENDBRANCH  21  22
BRANCH  21  36
ATOM     36  O   UNL     1       2.220   9.298  22.601  0.00  0.00    +0.000 OA
ATOM     37  H   UNL     1       2.362   9.403  23.564  0.00  0.00    +0.000 HD
ENDBRANCH  21  36
ENDBRANCH  20  21
ENDBRANCH   1  20
TORSDOF 7
ENDMDL
