MODEL 1
REMARK VINA RESULT:      -7.9      0.000      0.000
REMARK  Name = 
REMARK  9 active torsions:
REMARK  status: ('A' for Active; 'I' for Inactive)
REMARK    1  A    between atoms: C_1  and  C_2
REMARK    2  A    between atoms: C_7  and  O_8
REMARK    3  A    between atoms: O_8  and  C_9
REMARK    4  A    between atoms: C_9  and  C_10
REMARK    5  A    between atoms: N_12  and  C_13
REMARK    6  A    between atoms: C_13  and  C_14
REMARK    7  A    between atoms: C_14  and  N_15
REMARK    8  A    between atoms: C_16  and  N_17
REMARK    9  A    between atoms: C_22  and  C_23
REMARK                            x       y       z     vdW  Elec       q    Type
REMARK                         _______ _______ _______ _____ _____    ______ ____
ROOT
ATOM      1  C   UNL     1       6.455   4.981  17.714  0.00  0.00    +0.000 A 
ATOM      2  C   UNL     1       5.160   5.440  17.603  0.00  0.00    +0.000 A 
ATOM      3  N   UNL     1       4.742   5.575  18.891  0.00  0.00    +0.000 N 
ATOM      4  N   UNL     1       5.716   5.248  19.754  0.00  0.00    +0.000 NA
ATOM      5  N   UNL     1       6.770   4.869  19.044  0.00  0.00    +0.000 NA
ENDROOT
BRANCH   1   6
ATOM      6  C   UNL     1       7.384   4.550  16.633  0.00  0.00    +0.000 C 
BRANCH   6   7
ATOM      7  O   UNL     1       7.300   5.390  15.488  0.00  0.00    +0.000 OA
BRANCH   7  14
ATOM      8  C   UNL     1       8.831   5.968  12.839  0.00  0.00    +0.000 C 
ATOM      9  C   UNL     1       7.666   5.043  13.045  0.00  0.00    +0.000 A 
ATOM     10  C   UNL     1       7.150   4.406  11.898  0.00  0.00    +0.000 A 
ATOM     11  C   UNL     1       6.037   3.568  11.964  0.00  0.00    +0.000 A 
ATOM     12  C   UNL     1       5.418   3.342  13.185  0.00  0.00    +0.000 A 
ATOM     13  C   UNL     1       5.913   3.963  14.331  0.00  0.00    +0.000 A 
ATOM     14  C   UNL     1       7.033   4.808  14.278  0.00  0.00    +0.000 A 
ENDBRANCH   7  14
ENDBRANCH   6   7
ENDBRANCH   1   6
BRANCH   3  15
ATOM     15  C   UNL     1       3.452   5.985  19.405  0.00  0.00    +0.000 C 
BRANCH  15  16
ATOM     16  C   UNL     1       2.665   4.848  20.044  0.00  0.00    +0.000 C 
BRANCH  16  17
ATOM     17  N   UNL     1       2.673   3.628  19.255  0.00  0.00    +0.000 N 
ATOM     18  C   UNL     1       3.314   2.442  19.520  0.00  0.00    +0.000 A 
ATOM     19  C   UNL     1       3.110   1.644  18.423  0.00  0.00    +0.000 A 
ATOM     20  N   UNL     1       2.348   2.304  17.498  0.00  0.00    +0.000 NA
ATOM     21  C   UNL     1       2.092   3.492  18.005  0.00  0.00    +0.000 A 
ATOM     22  C   UNL     1       1.297   4.552  17.326  0.00  0.00    +0.000 C 
BRANCH  18  23
ATOM     23  N   UNL     1       4.045   2.122  20.699  0.00  0.00    +0.000 N 
ATOM     24  O   UNL     1       3.436   2.143  21.775  0.00  0.00    +0.000 OA
ATOM     25  O   UNL     1       5.238   1.840  20.551  0.00  0.00    +0.000 OA
ENDBRANCH  18  23
ENDBRANCH  16  17
ENDBRANCH  15  16
ENDBRANCH   3  15
TORSDOF 7
ENDMDL
MODEL 2
REMARK VINA RESULT:      -7.7      4.758      5.996
REMARK  Name = 
REMARK  9 active torsions:
REMARK  status: ('A' for Active; 'I' for Inactive)
REMARK    1  A    between atoms: C_1  and  C_2
REMARK    2  A    between atoms: C_7  and  O_8
REMARK    3  A    between atoms: O_8  and  C_9
REMARK    4  A    between atoms: C_9  and  C_10
REMARK    5  A    between atoms: N_12  and  C_13
REMARK    6  A    between atoms: C_13  and  C_14
REMARK    7  A    between atoms: C_14  and  N_15
REMARK    8  A    between atoms: C_16  and  N_17
REMARK    9  A    between atoms: C_22  and  C_23
REMARK                            x       y       z     vdW  Elec       q    Type
REMARK                         _______ _______ _______ _____ _____    ______ ____
ROOT
ATOM      1  C   UNL     1       8.072   7.699  18.148  0.00  0.00    +0.000 A 
ATOM      2  C   UNL     1       7.850   6.429  18.635  0.00  0.00    +0.000 A 
ATOM      3  N   UNL     1       7.038   5.853  17.706  0.00  0.00    +0.000 N 
ATOM      4  N   UNL     1       6.788   6.695  16.692  0.00  0.00    +0.000 NA
ATOM      5  N   UNL     1       7.407   7.837  16.957  0.00  0.00    +0.000 NA
ENDROOT
BRANCH   1   6
ATOM      6  C   UNL     1       8.803   8.826  18.793  0.00  0.00    +0.000 C 
BRANCH   6   7
ATOM      7  O   UNL     1       8.275  10.092  18.415  0.00  0.00    +0.000 OA
BRANCH   7  14
ATOM      8  C   UNL     1       7.597  12.839  17.116  0.00  0.00    +0.000 C 
ATOM      9  C   UNL     1       8.910  12.394  17.694  0.00  0.00    +0.000 A 
ATOM     10  C   UNL     1       9.991  13.292  17.580  0.00  0.00    +0.000 A 
ATOM     11  C   UNL     1      11.268  12.961  18.034  0.00  0.00    +0.000 A 
ATOM     12  C   UNL     1      11.490  11.724  18.621  0.00  0.00    +0.000 A 
ATOM     13  C   UNL     1      10.434  10.822  18.742  0.00  0.00    +0.000 A 
ATOM     14  C   UNL     1       9.144  11.143  18.290  0.00  0.00    +0.000 A 
ENDBRANCH   7  14
ENDBRANCH   6   7
ENDBRANCH   1   6
BRANCH   3  15
ATOM     15  C   UNL     1       6.440   4.535  17.693  0.00  0.00    +0.000 C 
BRANCH  15  16
ATOM     16  C   UNL     1       4.994   4.531  17.211  0.00  0.00    +0.000 C 
BRANCH  16  17
ATOM     17  N   UNL     1       4.028   4.672  18.287  0.00  0.00    +0.000 N 
ATOM     18  C   UNL     1       3.588   3.719  19.172  0.00  0.00    +0.000 A 
ATOM     19  C   UNL     1       2.598   4.312  19.912  0.00  0.00    +0.000 A 
ATOM     20  N   UNL     1       2.428   5.610  19.515  0.00  0.00    +0.000 NA
ATOM     21  C   UNL     1       3.290   5.817  18.539  0.00  0.00    +0.000 A 
ATOM     22  C   UNL     1       3.443   7.099  17.799  0.00  0.00    +0.000 C 
BRANCH  18  23
ATOM     23  N   UNL     1       4.070   2.383  19.283  0.00  0.00    +0.000 N 
ATOM     24  O   UNL     1       3.589   1.535  18.523  0.00  0.00    +0.000 OA
ATOM     25  O   UNL     1       4.942   2.179  20.133  0.00  0.00    +0.000 OA
ENDBRANCH  18  23
ENDBRANCH  16  17
ENDBRANCH  15  16
ENDBRANCH   3  15
TORSDOF 7
ENDMDL
MODEL 3
REMARK VINA RESULT:      -7.5      4.867      6.386
REMARK  Name = 
REMARK  9 active torsions:
REMARK  status: ('A' for Active; 'I' for Inactive)
REMARK    1  A    between atoms: C_1  and  C_2
REMARK    2  A    between atoms: C_7  and  O_8
REMARK    3  A    between atoms: O_8  and  C_9
REMARK    4  A    between atoms: C_9  and  C_10
REMARK    5  A    between atoms: N_12  and  C_13
REMARK    6  A    between atoms: C_13  and  C_14
REMARK    7  A    between atoms: C_14  and  N_15
REMARK    8  A    between atoms: C_16  and  N_17
REMARK    9  A    between atoms: C_22  and  C_23
REMARK                            x       y       z     vdW  Elec       q    Type
REMARK                         _______ _______ _______ _____ _____    ______ ____
ROOT
ATOM      1  C   UNL     1       8.012   7.729  18.179  0.00  0.00    +0.000 A 
ATOM      2  C   UNL     1       7.722   6.407  18.440  0.00  0.00    +0.000 A 
ATOM      3  N   UNL     1       6.862   6.052  17.447  0.00  0.00    +0.000 N 
ATOM      4  N   UNL     1       6.645   7.073  16.604  0.00  0.00    +0.000 NA
ATOM      5  N   UNL     1       7.336   8.113  17.049  0.00  0.00    +0.000 NA
ENDROOT
BRANCH   1   6
ATOM      6  C   UNL     1       8.819   8.681  18.992  0.00  0.00    +0.000 C 
BRANCH   6   7
ATOM      7  O   UNL     1       8.717  10.016  18.511  0.00  0.00    +0.000 OA
BRANCH   7  14
ATOM      8  C   UNL     1       9.078  11.310  21.320  0.00  0.00    +0.000 C 
ATOM      9  C   UNL     1       9.906  11.540  20.088  0.00  0.00    +0.000 A 
ATOM     10  C   UNL     1      10.929  12.505  20.181  0.00  0.00    +0.000 A 
ATOM     11  C   UNL     1      11.723  12.838  19.084  0.00  0.00    +0.000 A 
ATOM     12  C   UNL     1      11.516  12.204  17.867  0.00  0.00    +0.000 A 
ATOM     13  C   UNL     1      10.509  11.247  17.755  0.00  0.00    +0.000 A 
ATOM     14  C   UNL     1       9.703  10.902  18.852  0.00  0.00    +0.000 A 
ENDBRANCH   7  14
ENDBRANCH   6   7
ENDBRANCH   1   6
BRANCH   3  15
ATOM     15  C   UNL     1       6.185   4.792  17.218  0.00  0.00    +0.000 C 
BRANCH  15  16
ATOM     16  C   UNL     1       4.689   4.944  16.974  0.00  0.00    +0.000 C 
BRANCH  16  17
ATOM     17  N   UNL     1       3.922   5.122  18.195  0.00  0.00    +0.000 N 
ATOM     18  C   UNL     1       3.619   4.191  19.159  0.00  0.00    +0.000 A 
ATOM     19  C   UNL     1       2.781   4.816  20.045  0.00  0.00    +0.000 A 
ATOM     20  N   UNL     1       2.572   6.112  19.659  0.00  0.00    +0.000 NA
ATOM     21  C   UNL     1       3.259   6.286  18.549  0.00  0.00    +0.000 A 
ATOM     22  C   UNL     1       3.310   7.554  17.771  0.00  0.00    +0.000 C 
BRANCH  18  23
ATOM     23  N   UNL     1       4.086   2.846  19.210  0.00  0.00    +0.000 N 
ATOM     24  O   UNL     1       3.499   2.008  18.517  0.00  0.00    +0.000 OA
ATOM     25  O   UNL     1       5.055   2.626  19.943  0.00  0.00    +0.000 OA
ENDBRANCH  18  23
ENDBRANCH  16  17
ENDBRANCH  15  16
ENDBRANCH   3  15
TORSDOF 7
ENDMDL
MODEL 4
REMARK VINA RESULT:      -7.4      4.800      6.340
REMARK  Name = 
REMARK  9 active torsions:
REMARK  status: ('A' for Active; 'I' for Inactive)
REMARK    1  A    between atoms: C_1  and  C_2
REMARK    2  A    between atoms: C_7  and  O_8
REMARK    3  A    between atoms: O_8  and  C_9
REMARK    4  A    between atoms: C_9  and  C_10
REMARK    5  A    between atoms: N_12  and  C_13
REMARK    6  A    between atoms: C_13  and  C_14
REMARK    7  A    between atoms: C_14  and  N_15
REMARK    8  A    between atoms: C_16  and  N_17
REMARK    9  A    between atoms: C_22  and  C_23
REMARK                            x       y       z     vdW  Elec       q    Type
REMARK                         _______ _______ _______ _____ _____    ______ ____
ROOT
ATOM      1  C   UNL     1       7.893   7.888  17.753  0.00  0.00    +0.000 A 
ATOM      2  C   UNL     1       7.528   6.845  18.577  0.00  0.00    +0.000 A 
ATOM      3  N   UNL     1       7.254   5.823  17.721  0.00  0.00    +0.000 N 
ATOM      4  N   UNL     1       7.458   6.190  16.446  0.00  0.00    +0.000 NA
ATOM      5  N   UNL     1       7.839   7.460  16.451  0.00  0.00    +0.000 NA
ENDROOT
BRANCH   1   6
ATOM      6  C   UNL     1       8.200   9.298  18.120  0.00  0.00    +0.000 C 
BRANCH   6   7
ATOM      7  O   UNL     1       9.266   9.388  19.057  0.00  0.00    +0.000 OA
BRANCH   7  14
ATOM      8  C   UNL     1      11.011  11.521  17.607  0.00  0.00    +0.000 C 
ATOM      9  C   UNL     1      10.385  11.616  18.969  0.00  0.00    +0.000 A 
ATOM     10  C   UNL     1      10.669  12.775  19.719  0.00  0.00    +0.000 A 
ATOM     11  C   UNL     1      10.185  12.944  21.017  0.00  0.00    +0.000 A 
ATOM     12  C   UNL     1       9.396  11.957  21.590  0.00  0.00    +0.000 A 
ATOM     13  C   UNL     1       9.104  10.804  20.865  0.00  0.00    +0.000 A 
ATOM     14  C   UNL     1       9.585  10.622  19.558  0.00  0.00    +0.000 A 
ENDBRANCH   7  14
ENDBRANCH   6   7
ENDBRANCH   1   6
BRANCH   3  15
ATOM     15  C   UNL     1       6.784   4.483  18.002  0.00  0.00    +0.000 C 
BRANCH  15  16
ATOM     16  C   UNL     1       5.404   4.192  17.428  0.00  0.00    +0.000 C 
BRANCH  16  17
ATOM     17  N   UNL     1       4.328   4.404  18.381  0.00  0.00    +0.000 N 
ATOM     18  C   UNL     1       3.773   3.506  19.260  0.00  0.00    +0.000 A 
ATOM     19  C   UNL     1       2.719   4.152  19.853  0.00  0.00    +0.000 A 
ATOM     20  N   UNL     1       2.621   5.428  19.373  0.00  0.00    +0.000 NA
ATOM     21  C   UNL     1       3.588   5.571  18.490  0.00  0.00    +0.000 A 
ATOM     22  C   UNL     1       3.848   6.809  17.706  0.00  0.00    +0.000 C 
BRANCH  18  23
ATOM     23  N   UNL     1       4.213   2.171  19.493  0.00  0.00    +0.000 N 
ATOM     24  O   UNL     1       5.002   1.982  20.425  0.00  0.00    +0.000 OA
ATOM     25  O   UNL     1       3.761   1.301  18.742  0.00  0.00    +0.000 OA
ENDBRANCH  18  23
ENDBRANCH  16  17
ENDBRANCH  15  16
ENDBRANCH   3  15
TORSDOF 7
ENDMDL
MODEL 5
REMARK VINA RESULT:      -7.0      5.167      7.890
REMARK  Name = 
REMARK  9 active torsions:
REMARK  status: ('A' for Active; 'I' for Inactive)
REMARK    1  A    between atoms: C_1  and  C_2
REMARK    2  A    between atoms: C_7  and  O_8
REMARK    3  A    between atoms: O_8  and  C_9
REMARK    4  A    between atoms: C_9  and  C_10
REMARK    5  A    between atoms: N_12  and  C_13
REMARK    6  A    between atoms: C_13  and  C_14
REMARK    7  A    between atoms: C_14  and  N_15
REMARK    8  A    between atoms: C_16  and  N_17
REMARK    9  A    between atoms: C_22  and  C_23
REMARK                            x       y       z     vdW  Elec       q    Type
REMARK                         _______ _______ _______ _____ _____    ______ ____
ROOT
ATOM      1  C   UNL     1       1.177   9.316  18.901  0.00  0.00    +0.000 A 
ATOM      2  C   UNL     1       1.896   8.734  17.879  0.00  0.00    +0.000 A 
ATOM      3  N   UNL     1       2.546   7.698  18.477  0.00  0.00    +0.000 N 
ATOM      4  N   UNL     1       2.237   7.618  19.780  0.00  0.00    +0.000 NA
ATOM      5  N   UNL     1       1.406   8.615  20.057  0.00  0.00    +0.000 NA
ENDROOT
BRANCH   1   6
ATOM      6  C   UNL     1       0.356  10.559  18.868  0.00  0.00    +0.000 C 
BRANCH   6   7
ATOM      7  O   UNL     1      -1.006  10.310  19.192  0.00  0.00    +0.000 OA
BRANCH   7  14
ATOM      8  C   UNL     1      -3.320  12.349  19.617  0.00  0.00    +0.000 C 
ATOM      9  C   UNL     1      -3.041  11.515  18.399  0.00  0.00    +0.000 A 
ATOM     10  C   UNL     1      -3.968  11.606  17.341  0.00  0.00    +0.000 A 
ATOM     11  C   UNL     1      -3.836  10.837  16.185  0.00  0.00    +0.000 A 
ATOM     12  C   UNL     1      -2.766   9.963  16.059  0.00  0.00    +0.000 A 
ATOM     13  C   UNL     1      -1.839   9.859  17.094  0.00  0.00    +0.000 A 
ATOM     14  C   UNL     1      -1.960  10.628  18.263  0.00  0.00    +0.000 A 
ENDBRANCH   7  14
ENDBRANCH   6   7
ENDBRANCH   1   6
BRANCH   3  15
ATOM     15  C   UNL     1       3.482   6.747  17.915  0.00  0.00    +0.000 C 
BRANCH  15  16
ATOM     16  C   UNL     1       3.989   5.727  18.926  0.00  0.00    +0.000 C 
BRANCH  16  17
ATOM     17  N   UNL     1       3.523   4.376  18.664  0.00  0.00    +0.000 N 
ATOM     18  C   UNL     1       2.602   3.638  19.367  0.00  0.00    +0.000 A 
ATOM     19  C   UNL     1       2.595   2.392  18.794  0.00  0.00    +0.000 A 
ATOM     20  N   UNL     1       3.476   2.349  17.749  0.00  0.00    +0.000 NA
ATOM     21  C   UNL     1       4.028   3.543  17.679  0.00  0.00    +0.000 A 
ATOM     22  C   UNL     1       5.063   3.943  16.686  0.00  0.00    +0.000 C 
BRANCH  18  23
ATOM     23  N   UNL     1       1.823   4.089  20.470  0.00  0.00    +0.000 N 
ATOM     24  O   UNL     1       2.418   4.357  21.521  0.00  0.00    +0.000 OA
ATOM     25  O   UNL     1       0.606   4.183  20.286  0.00  0.00    +0.000 OA
ENDBRANCH  18  23
ENDBRANCH  16  17
ENDBRANCH  15  16
ENDBRANCH   3  15
TORSDOF 7
ENDMDL
MODEL 6
REMARK VINA RESULT:      -7.0      5.043      7.788
REMARK  Name = 
REMARK  9 active torsions:
REMARK  status: ('A' for Active; 'I' for Inactive)
REMARK    1  A    between atoms: C_1  and  C_2
REMARK    2  A    between atoms: C_7  and  O_8
REMARK    3  A    between atoms: O_8  and  C_9
REMARK    4  A    between atoms: C_9  and  C_10
REMARK    5  A    between atoms: N_12  and  C_13
REMARK    6  A    between atoms: C_13  and  C_14
REMARK    7  A    between atoms: C_14  and  N_15
REMARK    8  A    between atoms: C_16  and  N_17
REMARK    9  A    between atoms: C_22  and  C_23
REMARK                            x       y       z     vdW  Elec       q    Type
REMARK                         _______ _______ _______ _____ _____    ______ ____
ROOT
ATOM      1  C   UNL     1       1.448   9.155  18.723  0.00  0.00    +0.000 A 
ATOM      2  C   UNL     1       2.368   8.715  17.795  0.00  0.00    +0.000 A 
ATOM      3  N   UNL     1       2.931   7.621  18.376  0.00  0.00    +0.000 N 
ATOM      4  N   UNL     1       2.386   7.374  19.577  0.00  0.00    +0.000 NA
ATOM      5  N   UNL     1       1.482   8.317  19.808  0.00  0.00    +0.000 NA
ENDROOT
BRANCH   1   6
ATOM      6  C   UNL     1       0.604  10.381  18.684  0.00  0.00    +0.000 C 
BRANCH   6   7
ATOM      7  O   UNL     1      -0.736  10.122  19.086  0.00  0.00    +0.000 OA
BRANCH   7  14
ATOM      8  C   UNL     1      -2.850  12.311  19.742  0.00  0.00    +0.000 C 
ATOM      9  C   UNL     1      -2.747  11.476  18.498  0.00  0.00    +0.000 A 
ATOM     10  C   UNL     1      -3.761  11.645  17.534  0.00  0.00    +0.000 A 
ATOM     11  C   UNL     1      -3.794  10.883  16.366  0.00  0.00    +0.000 A 
ATOM     12  C   UNL     1      -2.805   9.939  16.133  0.00  0.00    +0.000 A 
ATOM     13  C   UNL     1      -1.794   9.757  17.074  0.00  0.00    +0.000 A 
ATOM     14  C   UNL     1      -1.749  10.517  18.254  0.00  0.00    +0.000 A 
ENDBRANCH   7  14
ENDBRANCH   6   7
ENDBRANCH   1   6
BRANCH   3  15
ATOM     15  C   UNL     1       3.990   6.760  17.892  0.00  0.00    +0.000 C 
BRANCH  15  16
ATOM     16  C   UNL     1       3.498   5.394  17.431  0.00  0.00    +0.000 C 
BRANCH  16  17
ATOM     17  N   UNL     1       3.673   4.353  18.428  0.00  0.00    +0.000 N 
ATOM     18  C   UNL     1       4.830   3.947  19.048  0.00  0.00    +0.000 A 
ATOM     19  C   UNL     1       4.493   2.861  19.814  0.00  0.00    +0.000 A 
ATOM     20  N   UNL     1       3.157   2.597  19.692  0.00  0.00    +0.000 NA
ATOM     21  C   UNL     1       2.673   3.496  18.859  0.00  0.00    +0.000 A 
ATOM     22  C   UNL     1       1.251   3.576  18.427  0.00  0.00    +0.000 C 
BRANCH  18  23
ATOM     23  N   UNL     1       6.116   4.543  18.909  0.00  0.00    +0.000 N 
ATOM     24  O   UNL     1       6.499   5.299  19.809  0.00  0.00    +0.000 OA
ATOM     25  O   UNL     1       6.755   4.248  17.894  0.00  0.00    +0.000 OA
ENDBRANCH  18  23
ENDBRANCH  16  17
ENDBRANCH  15  16
ENDBRANCH   3  15
TORSDOF 7
ENDMDL
MODEL 7
REMARK VINA RESULT:      -7.0      5.223      8.715
REMARK  Name = 
REMARK  9 active torsions:
REMARK  status: ('A' for Active; 'I' for Inactive)
REMARK    1  A    between atoms: C_1  and  C_2
REMARK    2  A    between atoms: C_7  and  O_8
REMARK    3  A    between atoms: O_8  and  C_9
REMARK    4  A    between atoms: C_9  and  C_10
REMARK    5  A    between atoms: N_12  and  C_13
REMARK    6  A    between atoms: C_13  and  C_14
REMARK    7  A    between atoms: C_14  and  N_15
REMARK    8  A    between atoms: C_16  and  N_17
REMARK    9  A    between atoms: C_22  and  C_23
REMARK                            x       y       z     vdW  Elec       q    Type
REMARK                         _______ _______ _______ _____ _____    ______ ____
ROOT
ATOM      1  C   UNL     1       1.516   9.788  18.846  0.00  0.00    +0.000 A 
ATOM      2  C   UNL     1       1.714   8.526  19.362  0.00  0.00    +0.000 A 
ATOM      3  N   UNL     1       2.266   7.827  18.332  0.00  0.00    +0.000 N 
ATOM      4  N   UNL     1       2.427   8.604  17.250  0.00  0.00    +0.000 NA
ATOM      5  N   UNL     1       1.959   9.808  17.548  0.00  0.00    +0.000 NA
ENDROOT
BRANCH   1   6
ATOM      6  C   UNL     1       0.842  10.956  19.480  0.00  0.00    +0.000 C 
BRANCH   6   7
ATOM      7  O   UNL     1       0.941  10.925  20.899  0.00  0.00    +0.000 OA
BRANCH   7  14
ATOM      8  C   UNL     1      -0.218   9.537  23.433  0.00  0.00    +0.000 C 
ATOM      9  C   UNL     1      -0.710  10.788  22.764  0.00  0.00    +0.000 A 
ATOM     10  C   UNL     1      -1.875  11.377  23.295  0.00  0.00    +0.000 A 
ATOM     11  C   UNL     1      -2.451  12.510  22.720  0.00  0.00    +0.000 A 
ATOM     12  C   UNL     1      -1.865  13.086  21.602  0.00  0.00    +0.000 A 
ATOM     13  C   UNL     1      -0.713  12.518  21.061  0.00  0.00    +0.000 A 
ATOM     14  C   UNL     1      -0.123  11.378  21.631  0.00  0.00    +0.000 A 
ENDBRANCH   7  14
ENDBRANCH   6   7
ENDBRANCH   1   6
BRANCH   3  15
ATOM     15  C   UNL     1       2.656   6.435  18.265  0.00  0.00    +0.000 C 
BRANCH  15  16
ATOM     16  C   UNL     1       3.120   5.871  19.603  0.00  0.00    +0.000 C 
BRANCH  16  17
ATOM     17  N   UNL     1       3.319   4.432  19.583  0.00  0.00    +0.000 N 
ATOM     18  C   UNL     1       4.392   3.723  19.099  0.00  0.00    +0.000 A 
ATOM     19  C   UNL     1       4.053   2.399  19.202  0.00  0.00    +0.000 A 
ATOM     20  N   UNL     1       2.807   2.275  19.751  0.00  0.00    +0.000 NA
ATOM     21  C   UNL     1       2.374   3.499  19.975  0.00  0.00    +0.000 A 
ATOM     22  C   UNL     1       1.047   3.837  20.558  0.00  0.00    +0.000 C 
BRANCH  18  23
ATOM     23  N   UNL     1       5.605   4.270  18.589  0.00  0.00    +0.000 N 
ATOM     24  O   UNL     1       5.740   4.321  17.362  0.00  0.00    +0.000 OA
ATOM     25  O   UNL     1       6.428   4.660  19.423  0.00  0.00    +0.000 OA
ENDBRANCH  18  23
ENDBRANCH  16  17
ENDBRANCH  15  16
ENDBRANCH   3  15
TORSDOF 7
ENDMDL
MODEL 8
REMARK VINA RESULT:      -7.0      5.230      8.714
REMARK  Name = 
REMARK  9 active torsions:
REMARK  status: ('A' for Active; 'I' for Inactive)
REMARK    1  A    between atoms: C_1  and  C_2
REMARK    2  A    between atoms: C_7  and  O_8
REMARK    3  A    between atoms: O_8  and  C_9
REMARK    4  A    between atoms: C_9  and  C_10
REMARK    5  A    between atoms: N_12  and  C_13
REMARK    6  A    between atoms: C_13  and  C_14
REMARK    7  A    between atoms: C_14  and  N_15
REMARK    8  A    between atoms: C_16  and  N_17
REMARK    9  A    between atoms: C_22  and  C_23
REMARK                            x       y       z     vdW  Elec       q    Type
REMARK                         _______ _______ _______ _____ _____    ______ ____
ROOT
ATOM      1  C   UNL     1       1.495   9.780  18.854  0.00  0.00    +0.000 A 
ATOM      2  C   UNL     1       1.641   8.541  19.440  0.00  0.00    +0.000 A 
ATOM      3  N   UNL     1       2.195   7.773  18.462  0.00  0.00    +0.000 N 
ATOM      4  N   UNL     1       2.407   8.487  17.346  0.00  0.00    +0.000 NA
ATOM      5  N   UNL     1       1.970   9.719  17.569  0.00  0.00    +0.000 NA
ENDROOT
BRANCH   1   6
ATOM      6  C   UNL     1       0.844  10.999  19.410  0.00  0.00    +0.000 C 
BRANCH   6   7
ATOM      7  O   UNL     1       0.987  11.086  20.823  0.00  0.00    +0.000 OA
BRANCH   7  14
ATOM      8  C   UNL     1      -0.125   9.602  23.324  0.00  0.00    +0.000 C 
ATOM      9  C   UNL     1      -0.664  10.846  22.678  0.00  0.00    +0.000 A 
ATOM     10  C   UNL     1      -1.853  11.377  23.216  0.00  0.00    +0.000 A 
ATOM     11  C   UNL     1      -2.471  12.498  22.661  0.00  0.00    +0.000 A 
ATOM     12  C   UNL     1      -1.905  13.119  21.557  0.00  0.00    +0.000 A 
ATOM     13  C   UNL     1      -0.729  12.609  21.010  0.00  0.00    +0.000 A 
ATOM     14  C   UNL     1      -0.097  11.482  21.559  0.00  0.00    +0.000 A 
ENDBRANCH   7  14
ENDBRANCH   6   7
ENDBRANCH   1   6
BRANCH   3  15
ATOM     15  C   UNL     1       2.543   6.368  18.477  0.00  0.00    +0.000 C 
BRANCH  15  16
ATOM     16  C   UNL     1       3.109   5.898  19.811  0.00  0.00    +0.000 C 
BRANCH  16  17
ATOM     17  N   UNL     1       3.636   4.546  19.768  0.00  0.00    +0.000 N 
ATOM     18  C   UNL     1       3.064   3.389  20.240  0.00  0.00    +0.000 A 
ATOM     19  C   UNL     1       4.001   2.402  20.069  0.00  0.00    +0.000 A 
ATOM     20  N   UNL     1       5.128   2.919  19.491  0.00  0.00    +0.000 NA
ATOM     21  C   UNL     1       4.900   4.205  19.315  0.00  0.00    +0.000 A 
ATOM     22  C   UNL     1       5.871   5.166  18.723  0.00  0.00    +0.000 C 
BRANCH  18  23
ATOM     23  N   UNL     1       1.760   3.258  20.797  0.00  0.00    +0.000 N 
ATOM     24  O   UNL     1       1.675   3.010  22.006  0.00  0.00    +0.000 OA
ATOM     25  O   UNL     1       0.811   3.412  20.024  0.00  0.00    +0.000 OA
ENDBRANCH  18  23
ENDBRANCH  16  17
ENDBRANCH  15  16
ENDBRANCH   3  15
TORSDOF 7
ENDMDL
MODEL 9
REMARK VINA RESULT:      -7.0      4.820      6.268
REMARK  Name = 
REMARK  9 active torsions:
REMARK  status: ('A' for Active; 'I' for Inactive)
REMARK    1  A    between atoms: C_1  and  C_2
REMARK    2  A    between atoms: C_7  and  O_8
REMARK    3  A    between atoms: O_8  and  C_9
REMARK    4  A    between atoms: C_9  and  C_10
REMARK    5  A    between atoms: N_12  and  C_13
REMARK    6  A    between atoms: C_13  and  C_14
REMARK    7  A    between atoms: C_14  and  N_15
REMARK    8  A    between atoms: C_16  and  N_17
REMARK    9  A    between atoms: C_22  and  C_23
REMARK                            x       y       z     vdW  Elec       q    Type
REMARK                         _______ _______ _______ _____ _____    ______ ____
ROOT
ATOM      1  C   UNL     1       7.731   7.986  17.644  0.00  0.00    +0.000 A 
ATOM      2  C   UNL     1       7.623   6.976  18.575  0.00  0.00    +0.000 A 
ATOM      3  N   UNL     1       6.822   6.053  17.975  0.00  0.00    +0.000 N 
ATOM      4  N   UNL     1       6.471   6.444  16.741  0.00  0.00    +0.000 NA
ATOM      5  N   UNL     1       7.012   7.637  16.529  0.00  0.00    +0.000 NA
ENDROOT
BRANCH   1   6
ATOM      6  C   UNL     1       8.398   9.311  17.784  0.00  0.00    +0.000 C 
BRANCH   6   7
ATOM      7  O   UNL     1       8.703   9.616  19.139  0.00  0.00    +0.000 OA
BRANCH   7  14
ATOM      8  C   UNL     1       8.863  11.281  21.765  0.00  0.00    +0.000 C 
ATOM      9  C   UNL     1       9.716  11.417  20.537  0.00  0.00    +0.000 A 
ATOM     10  C   UNL     1      10.661  12.463  20.533  0.00  0.00    +0.000 A 
ATOM     11  C   UNL     1      11.468  12.716  19.423  0.00  0.00    +0.000 A 
ATOM     12  C   UNL     1      11.354  11.918  18.294  0.00  0.00    +0.000 A 
ATOM     13  C   UNL     1      10.426  10.878  18.279  0.00  0.00    +0.000 A 
ATOM     14  C   UNL     1       9.607  10.614  19.389  0.00  0.00    +0.000 A 
ENDBRANCH   7  14
ENDBRANCH   6   7
ENDBRANCH   1   6
BRANCH   3  15
ATOM     15  C   UNL     1       6.324   4.792  18.483  0.00  0.00    +0.000 C 
BRANCH  15  16
ATOM     16  C   UNL     1       5.167   4.948  19.461  0.00  0.00    +0.000 C 
BRANCH  16  17
ATOM     17  N   UNL     1       3.880   4.584  18.894  0.00  0.00    +0.000 N 
ATOM     18  C   UNL     1       3.331   3.332  18.753  0.00  0.00    +0.000 A 
ATOM     19  C   UNL     1       2.161   3.504  18.059  0.00  0.00    +0.000 A 
ATOM     20  N   UNL     1       1.970   4.830  17.781  0.00  0.00    +0.000 NA
ATOM     21  C   UNL     1       3.006   5.469  18.285  0.00  0.00    +0.000 A 
ATOM     22  C   UNL     1       3.218   6.940  18.203  0.00  0.00    +0.000 C 
BRANCH  18  23
ATOM     23  N   UNL     1       3.881   2.110  19.234  0.00  0.00    +0.000 N 
ATOM     24  O   UNL     1       4.343   2.100  20.381  0.00  0.00    +0.000 OA
ATOM     25  O   UNL     1       3.845   1.147  18.462  0.00  0.00    +0.000 OA
ENDBRANCH  18  23
ENDBRANCH  16  17
ENDBRANCH  15  16
ENDBRANCH   3  15
TORSDOF 7
ENDMDL
