MODEL 1
REMARK VINA RESULT:      -8.0      0.000      0.000
REMARK  Name = 
REMARK  8 active torsions:
REMARK  status: ('A' for Active; 'I' for Inactive)
REMARK    1  A    between atoms: C_1  and  C_2
REMARK    2  A    between atoms: C_6  and  N_7
REMARK    3  A    between atoms: N_10  and  S_11
REMARK    4  A    between atoms: S_11  and  C_14
REMARK    5  A    between atoms: C_20  and  C_21
REMARK    6  A    between atoms: C_20  and  C_22
REMARK    7  A    between atoms: N_25  and  C_26
REMARK    8  A    between atoms: C_28  and  C_29
REMARK                            x       y       z     vdW  Elec       q    Type
REMARK                         _______ _______ _______ _____ _____    ______ ____
ROOT
ATOM      1  S   UNL     1       0.729   8.677  21.287  0.00  0.00    +0.000 S 
ATOM      2  O   UNL     1       1.541   8.954  22.453  0.00  0.00    +0.000 OA
ATOM      3  O   UNL     1      -0.630   8.196  21.396  0.00  0.00    +0.000 OA
ENDROOT
BRANCH   1   4
ATOM      4  C   UNL     1       1.634   7.490  20.318  0.00  0.00    +0.000 A 
ATOM      5  C   UNL     1       2.359   7.847  19.163  0.00  0.00    +0.000 A 
ATOM      6  C   UNL     1       2.966   6.853  18.365  0.00  0.00    +0.000 A 
ATOM      7  C   UNL     1       2.819   5.526  18.747  0.00  0.00    +0.000 A 
ATOM      8  C   UNL     1       2.118   5.207  19.908  0.00  0.00    +0.000 A 
ATOM      9  C   UNL     1       1.528   6.164  20.711  0.00  0.00    +0.000 A 
ATOM     10  C   UNL     1       2.040   3.713  20.080  0.00  0.00    +0.000 C 
ATOM     11  C   UNL     1       2.724   3.285  21.374  0.00  0.00    +0.000 C 
ATOM     12  C   UNL     1       0.582   3.272  19.982  0.00  0.00    +0.000 C 
ATOM     13  C   UNL     1       2.830   3.214  18.863  0.00  0.00    +0.000 C 
ATOM     14  O   UNL     1       3.044   2.043  18.571  0.00  0.00    +0.000 OA
ATOM     15  N   UNL     1       3.244   4.335  18.140  0.00  0.00    +0.000 N 
ATOM     16  C   UNL     1       3.951   4.197  16.895  0.00  0.00    +0.000 C 
ENDBRANCH   1   4
BRANCH   1  20
ATOM     17  N   UNL     1      -1.368  12.007  20.396  0.00  0.00    +0.000 N 
ATOM     18  C   UNL     1      -1.614  10.690  19.779  0.00  0.00    +0.000 C 
ATOM     19  C   UNL     1      -0.299  10.111  19.224  0.00  0.00    +0.000 C 
ATOM     20  N   UNL     1       0.754  10.041  20.276  0.00  0.00    +0.000 NA
ATOM     21  C   UNL     1       0.976  11.383  20.906  0.00  0.00    +0.000 C 
ATOM     22  C   UNL     1      -0.314  12.054  21.440  0.00  0.00    +0.000 C 
ATOM     23  C   UNL     1      -0.793  11.459  22.766  0.00  0.00    +0.000 C 
BRANCH  17  29
ATOM     24  C   UNL     1      -2.957  16.588  21.404  0.00  0.00    +0.000 C 
ATOM     25  C   UNL     1      -3.246  15.188  20.953  0.00  0.00    +0.000 A 
ATOM     26  C   UNL     1      -4.546  14.770  20.665  0.00  0.00    +0.000 A 
ATOM     27  C   UNL     1      -4.779  13.461  20.255  0.00  0.00    +0.000 A 
ATOM     28  C   UNL     1      -3.713  12.563  20.139  0.00  0.00    +0.000 A 
ATOM     29  C   UNL     1      -2.396  12.943  20.435  0.00  0.00    +0.000 A 
ATOM     30  C   UNL     1      -2.189  14.272  20.830  0.00  0.00    +0.000 A 
ENDBRANCH  17  29
ENDBRANCH   1  20
TORSDOF 3
ENDMDL
MODEL 2
REMARK VINA RESULT:      -7.8      0.293      1.271
REMARK  Name = 
REMARK  8 active torsions:
REMARK  status: ('A' for Active; 'I' for Inactive)
REMARK    1  A    between atoms: C_1  and  C_2
REMARK    2  A    between atoms: C_6  and  N_7
REMARK    3  A    between atoms: N_10  and  S_11
REMARK    4  A    between atoms: S_11  and  C_14
REMARK    5  A    between atoms: C_20  and  C_21
REMARK    6  A    between atoms: C_20  and  C_22
REMARK    7  A    between atoms: N_25  and  C_26
REMARK    8  A    between atoms: C_28  and  C_29
REMARK                            x       y       z     vdW  Elec       q    Type
REMARK                         _______ _______ _______ _____ _____    ______ ____
ROOT
ATOM      1  S   UNL     1       0.737   8.674  21.311  0.00  0.00    +0.000 S 
ATOM      2  O   UNL     1       1.566   8.952  22.464  0.00  0.00    +0.000 OA
ATOM      3  O   UNL     1      -0.612   8.172  21.440  0.00  0.00    +0.000 OA
ENDROOT
BRANCH   1   4
ATOM      4  C   UNL     1       1.641   7.511  20.313  0.00  0.00    +0.000 A 
ATOM      5  C   UNL     1       2.349   7.894  19.156  0.00  0.00    +0.000 A 
ATOM      6  C   UNL     1       2.957   6.919  18.334  0.00  0.00    +0.000 A 
ATOM      7  C   UNL     1       2.826   5.584  18.696  0.00  0.00    +0.000 A 
ATOM      8  C   UNL     1       2.140   5.240  19.860  0.00  0.00    +0.000 A 
ATOM      9  C   UNL     1       1.551   6.178  20.685  0.00  0.00    +0.000 A 
ATOM     10  C   UNL     1       2.078   3.742  20.008  0.00  0.00    +0.000 C 
ATOM     11  C   UNL     1       2.779   3.300  21.286  0.00  0.00    +0.000 C 
ATOM     12  C   UNL     1       0.622   3.290  19.919  0.00  0.00    +0.000 C 
ATOM     13  C   UNL     1       2.858   3.271  18.774  0.00  0.00    +0.000 C 
ATOM     14  O   UNL     1       3.078   2.107  18.461  0.00  0.00    +0.000 OA
ATOM     15  N   UNL     1       3.254   4.407  18.065  0.00  0.00    +0.000 N 
ATOM     16  C   UNL     1       3.947   4.296  16.810  0.00  0.00    +0.000 C 
ENDBRANCH   1   4
BRANCH   1  20
ATOM     17  N   UNL     1      -1.426  11.983  20.498  0.00  0.00    +0.000 N 
ATOM     18  C   UNL     1      -1.665  10.668  19.871  0.00  0.00    +0.000 C 
ATOM     19  C   UNL     1      -0.353  10.114  19.284  0.00  0.00    +0.000 C 
ATOM     20  N   UNL     1       0.722  10.049  20.315  0.00  0.00    +0.000 NA
ATOM     21  C   UNL     1       0.937  11.388  20.955  0.00  0.00    +0.000 C 
ATOM     22  C   UNL     1      -0.352  12.034  21.521  0.00  0.00    +0.000 C 
ATOM     23  C   UNL     1      -0.796  11.418  22.849  0.00  0.00    +0.000 C 
BRANCH  17  29
ATOM     24  C   UNL     1      -6.196  13.115  19.799  0.00  0.00    +0.000 C 
ATOM     25  C   UNL     1      -4.813  13.530  20.204  0.00  0.00    +0.000 A 
ATOM     26  C   UNL     1      -4.522  14.848  20.554  0.00  0.00    +0.000 A 
ATOM     27  C   UNL     1      -3.226  15.199  20.918  0.00  0.00    +0.000 A 
ATOM     28  C   UNL     1      -2.215  14.234  20.926  0.00  0.00    +0.000 A 
ATOM     29  C   UNL     1      -2.467  12.903  20.566  0.00  0.00    +0.000 A 
ATOM     30  C   UNL     1      -3.785  12.574  20.219  0.00  0.00    +0.000 A 
ENDBRANCH  17  29
ENDBRANCH   1  20
TORSDOF 3
ENDMDL
MODEL 3
REMARK VINA RESULT:      -7.1      1.550      1.912
REMARK  Name = 
REMARK  8 active torsions:
REMARK  status: ('A' for Active; 'I' for Inactive)
REMARK    1  A    between atoms: C_1  and  C_2
REMARK    2  A    between atoms: C_6  and  N_7
REMARK    3  A    between atoms: N_10  and  S_11
REMARK    4  A    between atoms: S_11  and  C_14
REMARK    5  A    between atoms: C_20  and  C_21
REMARK    6  A    between atoms: C_20  and  C_22
REMARK    7  A    between atoms: N_25  and  C_26
REMARK    8  A    between atoms: C_28  and  C_29
REMARK                            x       y       z     vdW  Elec       q    Type
REMARK                         _______ _______ _______ _____ _____    ______ ____
ROOT
ATOM      1  S   UNL     1       0.790   9.359  20.531  0.00  0.00    +0.000 S 
ATOM      2  O   UNL     1       1.705  10.085  21.385  0.00  0.00    +0.000 OA
ATOM      3  O   UNL     1      -0.434   8.780  21.036  0.00  0.00    +0.000 OA
ENDROOT
BRANCH   1   4
ATOM      4  C   UNL     1       1.733   8.042  19.794  0.00  0.00    +0.000 A 
ATOM      5  C   UNL     1       2.512   8.224  18.634  0.00  0.00    +0.000 A 
ATOM      6  C   UNL     1       3.151   7.122  18.023  0.00  0.00    +0.000 A 
ATOM      7  C   UNL     1       2.980   5.867  18.592  0.00  0.00    +0.000 A 
ATOM      8  C   UNL     1       2.225   5.724  19.754  0.00  0.00    +0.000 A 
ATOM      9  C   UNL     1       1.603   6.789  20.376  0.00  0.00    +0.000 A 
ATOM     10  C   UNL     1       2.132   4.272  20.145  0.00  0.00    +0.000 C 
ATOM     11  C   UNL     1       2.752   4.045  21.518  0.00  0.00    +0.000 C 
ATOM     12  C   UNL     1       0.677   3.819  20.046  0.00  0.00    +0.000 C 
ATOM     13  C   UNL     1       2.975   3.598  19.054  0.00  0.00    +0.000 C 
ATOM     14  O   UNL     1       3.195   2.397  18.951  0.00  0.00    +0.000 OA
ATOM     15  N   UNL     1       3.427   4.599  18.191  0.00  0.00    +0.000 N 
ATOM     16  C   UNL     1       4.190   4.278  17.015  0.00  0.00    +0.000 C 
ENDBRANCH   1   4
BRANCH   1  20
ATOM     17  N   UNL     1      -2.236  11.385  18.793  0.00  0.00    +0.000 N 
ATOM     18  C   UNL     1      -1.970   9.951  18.570  0.00  0.00    +0.000 C 
ATOM     19  C   UNL     1      -0.497   9.740  18.171  0.00  0.00    +0.000 C 
ATOM     20  N   UNL     1       0.430  10.324  19.182  0.00  0.00    +0.000 NA
ATOM     21  C   UNL     1       0.133  11.776  19.411  0.00  0.00    +0.000 C 
ATOM     22  C   UNL     1      -1.346  12.072  19.763  0.00  0.00    +0.000 C 
ATOM     23  C   UNL     1      -1.699  11.723  21.211  0.00  0.00    +0.000 C 
BRANCH  17  29
ATOM     24  C   UNL     1      -6.323  13.548  20.565  0.00  0.00    +0.000 C 
ATOM     25  C   UNL     1      -5.585  12.913  19.424  0.00  0.00    +0.000 A 
ATOM     26  C   UNL     1      -6.195  12.713  18.185  0.00  0.00    +0.000 A 
ATOM     27  C   UNL     1      -5.482  12.115  17.151  0.00  0.00    +0.000 A 
ATOM     28  C   UNL     1      -4.160  11.707  17.355  0.00  0.00    +0.000 A 
ATOM     29  C   UNL     1      -3.521  11.878  18.591  0.00  0.00    +0.000 A 
ATOM     30  C   UNL     1      -4.257  12.498  19.610  0.00  0.00    +0.000 A 
ENDBRANCH  17  29
ENDBRANCH   1  20
TORSDOF 3
ENDMDL
MODEL 4
REMARK VINA RESULT:      -7.1      1.498      1.916
REMARK  Name = 
REMARK  8 active torsions:
REMARK  status: ('A' for Active; 'I' for Inactive)
REMARK    1  A    between atoms: C_1  and  C_2
REMARK    2  A    between atoms: C_6  and  N_7
REMARK    3  A    between atoms: N_10  and  S_11
REMARK    4  A    between atoms: S_11  and  C_14
REMARK    5  A    between atoms: C_20  and  C_21
REMARK    6  A    between atoms: C_20  and  C_22
REMARK    7  A    between atoms: N_25  and  C_26
REMARK    8  A    between atoms: C_28  and  C_29
REMARK                            x       y       z     vdW  Elec       q    Type
REMARK                         _______ _______ _______ _____ _____    ______ ____
ROOT
ATOM      1  S   UNL     1       0.770   9.066  20.645  0.00  0.00    +0.000 S 
ATOM      2  O   UNL     1       1.717   9.853  21.406  0.00  0.00    +0.000 OA
ATOM      3  O   UNL     1      -0.417   8.503  21.248  0.00  0.00    +0.000 OA
ENDROOT
BRANCH   1   4
ATOM      4  C   UNL     1       1.693   7.720  19.937  0.00  0.00    +0.000 A 
ATOM      5  C   UNL     1       2.514   7.877  18.801  0.00  0.00    +0.000 A 
ATOM      6  C   UNL     1       3.136   6.756  18.209  0.00  0.00    +0.000 A 
ATOM      7  C   UNL     1       2.908   5.507  18.772  0.00  0.00    +0.000 A 
ATOM      8  C   UNL     1       2.112   5.388  19.909  0.00  0.00    +0.000 A 
ATOM      9  C   UNL     1       1.505   6.472  20.513  0.00  0.00    +0.000 A 
ATOM     10  C   UNL     1       1.961   3.940  20.295  0.00  0.00    +0.000 C 
ATOM     11  C   UNL     1       2.531   3.693  21.686  0.00  0.00    +0.000 C 
ATOM     12  C   UNL     1       0.496   3.533  20.150  0.00  0.00    +0.000 C 
ATOM     13  C   UNL     1       2.816   3.240  19.230  0.00  0.00    +0.000 C 
ATOM     14  O   UNL     1       3.001   2.032  19.133  0.00  0.00    +0.000 OA
ATOM     15  N   UNL     1       3.326   4.226  18.383  0.00  0.00    +0.000 N 
ATOM     16  C   UNL     1       4.115   3.881  17.231  0.00  0.00    +0.000 C 
ENDBRANCH   1   4
BRANCH   1  20
ATOM     17  N   UNL     1      -0.450  12.729  19.471  0.00  0.00    +0.000 N 
ATOM     18  C   UNL     1      -1.362  11.670  19.944  0.00  0.00    +0.000 C 
ATOM     19  C   UNL     1      -1.104  10.363  19.170  0.00  0.00    +0.000 C 
ATOM     20  N   UNL     1       0.324   9.946  19.264  0.00  0.00    +0.000 NA
ATOM     21  C   UNL     1       1.237  11.042  18.799  0.00  0.00    +0.000 C 
ATOM     22  C   UNL     1       0.998  12.404  19.496  0.00  0.00    +0.000 C 
ATOM     23  C   UNL     1       1.575  12.461  20.912  0.00  0.00    +0.000 C 
BRANCH  17  29
ATOM     24  C   UNL     1       0.006  17.448  18.040  0.00  0.00    +0.000 C 
ATOM     25  C   UNL     1      -0.634  16.419  18.924  0.00  0.00    +0.000 A 
ATOM     26  C   UNL     1      -1.546  16.779  19.916  0.00  0.00    +0.000 A 
ATOM     27  C   UNL     1      -2.116  15.799  20.723  0.00  0.00    +0.000 A 
ATOM     28  C   UNL     1      -1.768  14.456  20.545  0.00  0.00    +0.000 A 
ATOM     29  C   UNL     1      -0.844  14.059  19.569  0.00  0.00    +0.000 A 
ATOM     30  C   UNL     1      -0.298  15.066  18.760  0.00  0.00    +0.000 A 
ENDBRANCH  17  29
ENDBRANCH   1  20
TORSDOF 3
ENDMDL
MODEL 5
REMARK VINA RESULT:      -7.1      2.906      9.713
REMARK  Name = 
REMARK  8 active torsions:
REMARK  status: ('A' for Active; 'I' for Inactive)
REMARK    1  A    between atoms: C_1  and  C_2
REMARK    2  A    between atoms: C_6  and  N_7
REMARK    3  A    between atoms: N_10  and  S_11
REMARK    4  A    between atoms: S_11  and  C_14
REMARK    5  A    between atoms: C_20  and  C_21
REMARK    6  A    between atoms: C_20  and  C_22
REMARK    7  A    between atoms: N_25  and  C_26
REMARK    8  A    between atoms: C_28  and  C_29
REMARK                            x       y       z     vdW  Elec       q    Type
REMARK                         _______ _______ _______ _____ _____    ______ ____
ROOT
ATOM      1  S   UNL     1      -0.247  11.312  21.540  0.00  0.00    +0.000 S 
ATOM      2  O   UNL     1      -0.015  10.901  22.908  0.00  0.00    +0.000 OA
ATOM      3  O   UNL     1       0.708  12.112  20.807  0.00  0.00    +0.000 OA
ENDROOT
BRANCH   1   4
ATOM      4  C   UNL     1      -1.791  12.197  21.538  0.00  0.00    +0.000 A 
ATOM      5  C   UNL     1      -2.346  12.753  20.368  0.00  0.00    +0.000 A 
ATOM      6  C   UNL     1      -3.514  13.543  20.437  0.00  0.00    +0.000 A 
ATOM      7  C   UNL     1      -4.086  13.760  21.684  0.00  0.00    +0.000 A 
ATOM      8  C   UNL     1      -3.527  13.176  22.819  0.00  0.00    +0.000 A 
ATOM      9  C   UNL     1      -2.394  12.388  22.773  0.00  0.00    +0.000 A 
ATOM     10  C   UNL     1      -4.279  13.603  24.052  0.00  0.00    +0.000 C 
ATOM     11  C   UNL     1      -4.891  12.395  24.753  0.00  0.00    +0.000 C 
ATOM     12  C   UNL     1      -3.353  14.426  24.945  0.00  0.00    +0.000 C 
ATOM     13  C   UNL     1      -5.378  14.494  23.459  0.00  0.00    +0.000 C 
ATOM     14  O   UNL     1      -6.252  15.079  24.088  0.00  0.00    +0.000 OA
ATOM     15  N   UNL     1      -5.188  14.534  22.075  0.00  0.00    +0.000 N 
ATOM     16  C   UNL     1      -6.020  15.351  21.234  0.00  0.00    +0.000 C 
ENDBRANCH   1   4
BRANCH   1  20
ATOM     17  N   UNL     1       1.441   8.140  19.704  0.00  0.00    +0.000 N 
ATOM     18  C   UNL     1       1.275   9.463  19.074  0.00  0.00    +0.000 C 
ATOM     19  C   UNL     1      -0.186   9.933  19.202  0.00  0.00    +0.000 C 
ATOM     20  N   UNL     1      -0.635   9.936  20.624  0.00  0.00    +0.000 NA
ATOM     21  C   UNL     1      -0.441   8.589  21.254  0.00  0.00    +0.000 C 
ATOM     22  C   UNL     1       0.996   8.027  21.115  0.00  0.00    +0.000 C 
ATOM     23  C   UNL     1       1.988   8.675  22.083  0.00  0.00    +0.000 C 
BRANCH  17  29
ATOM     24  C   UNL     1       4.806   6.945  16.272  0.00  0.00    +0.000 C 
ATOM     25  C   UNL     1       4.093   6.626  17.552  0.00  0.00    +0.000 A 
ATOM     26  C   UNL     1       4.334   5.438  18.242  0.00  0.00    +0.000 A 
ATOM     27  C   UNL     1       3.649   5.171  19.424  0.00  0.00    +0.000 A 
ATOM     28  C   UNL     1       2.715   6.089  19.915  0.00  0.00    +0.000 A 
ATOM     29  C   UNL     1       2.437   7.286  19.241  0.00  0.00    +0.000 A 
ATOM     30  C   UNL     1       3.153   7.536  18.061  0.00  0.00    +0.000 A 
ENDBRANCH  17  29
ENDBRANCH   1  20
TORSDOF 3
ENDMDL
MODEL 6
REMARK VINA RESULT:      -7.1      2.905      9.799
REMARK  Name = 
REMARK  8 active torsions:
REMARK  status: ('A' for Active; 'I' for Inactive)
REMARK    1  A    between atoms: C_1  and  C_2
REMARK    2  A    between atoms: C_6  and  N_7
REMARK    3  A    between atoms: N_10  and  S_11
REMARK    4  A    between atoms: S_11  and  C_14
REMARK    5  A    between atoms: C_20  and  C_21
REMARK    6  A    between atoms: C_20  and  C_22
REMARK    7  A    between atoms: N_25  and  C_26
REMARK    8  A    between atoms: C_28  and  C_29
REMARK                            x       y       z     vdW  Elec       q    Type
REMARK                         _______ _______ _______ _____ _____    ______ ____
ROOT
ATOM      1  S   UNL     1      -0.203  11.331  21.839  0.00  0.00    +0.000 S 
ATOM      2  O   UNL     1      -0.102  10.852  23.201  0.00  0.00    +0.000 OA
ATOM      3  O   UNL     1       0.871  12.059  21.201  0.00  0.00    +0.000 OA
ENDROOT
BRANCH   1   4
ATOM      4  C   UNL     1      -1.651  12.363  21.778  0.00  0.00    +0.000 A 
ATOM      5  C   UNL     1      -2.037  13.060  20.615  0.00  0.00    +0.000 A 
ATOM      6  C   UNL     1      -3.129  13.955  20.648  0.00  0.00    +0.000 A 
ATOM      7  C   UNL     1      -3.797  14.129  21.854  0.00  0.00    +0.000 A 
ATOM      8  C   UNL     1      -3.407  13.406  22.979  0.00  0.00    +0.000 A 
ATOM      9  C   UNL     1      -2.351  12.516  22.966  0.00  0.00    +0.000 A 
ATOM     10  C   UNL     1      -4.232  13.808  24.173  0.00  0.00    +0.000 C 
ATOM     11  C   UNL     1      -5.016  12.616  24.709  0.00  0.00    +0.000 C 
ATOM     12  C   UNL     1      -3.325  14.464  25.212  0.00  0.00    +0.000 C 
ATOM     13  C   UNL     1      -5.181  14.848  23.564  0.00  0.00    +0.000 C 
ATOM     14  O   UNL     1      -6.055  15.466  24.162  0.00  0.00    +0.000 OA
ATOM     15  N   UNL     1      -4.856  14.976  22.212  0.00  0.00    +0.000 N 
ATOM     16  C   UNL     1      -5.524  15.935  21.374  0.00  0.00    +0.000 C 
ENDBRANCH   1   4
BRANCH   1  20
ATOM     17  N   UNL     1       1.343   8.332  19.625  0.00  0.00    +0.000 N 
ATOM     18  C   UNL     1       1.129   9.701  19.121  0.00  0.00    +0.000 C 
ATOM     19  C   UNL     1      -0.319  10.149  19.398  0.00  0.00    +0.000 C 
ATOM     20  N   UNL     1      -0.659  10.033  20.845  0.00  0.00    +0.000 NA
ATOM     21  C   UNL     1      -0.416   8.640  21.345  0.00  0.00    +0.000 C 
ATOM     22  C   UNL     1       1.006   8.100  21.053  0.00  0.00    +0.000 C 
ATOM     23  C   UNL     1       2.069   8.673  21.992  0.00  0.00    +0.000 C 
BRANCH  17  29
ATOM     24  C   UNL     1       4.002   4.155  19.553  0.00  0.00    +0.000 C 
ATOM     25  C   UNL     1       3.672   5.490  18.955  0.00  0.00    +0.000 A 
ATOM     26  C   UNL     1       4.376   5.990  17.859  0.00  0.00    +0.000 A 
ATOM     27  C   UNL     1       4.048   7.236  17.335  0.00  0.00    +0.000 A 
ATOM     28  C   UNL     1       3.019   7.990  17.909  0.00  0.00    +0.000 A 
ATOM     29  C   UNL     1       2.300   7.526  19.020  0.00  0.00    +0.000 A 
ATOM     30  C   UNL     1       2.642   6.260  19.518  0.00  0.00    +0.000 A 
ENDBRANCH  17  29
ENDBRANCH   1  20
TORSDOF 3
ENDMDL
MODEL 7
REMARK VINA RESULT:      -7.0      2.883      9.551
REMARK  Name = 
REMARK  8 active torsions:
REMARK  status: ('A' for Active; 'I' for Inactive)
REMARK    1  A    between atoms: C_1  and  C_2
REMARK    2  A    between atoms: C_6  and  N_7
REMARK    3  A    between atoms: N_10  and  S_11
REMARK    4  A    between atoms: S_11  and  C_14
REMARK    5  A    between atoms: C_20  and  C_21
REMARK    6  A    between atoms: C_20  and  C_22
REMARK    7  A    between atoms: N_25  and  C_26
REMARK    8  A    between atoms: C_28  and  C_29
REMARK                            x       y       z     vdW  Elec       q    Type
REMARK                         _______ _______ _______ _____ _____    ______ ____
ROOT
ATOM      1  S   UNL     1      -0.332  11.921  20.867  0.00  0.00    +0.000 S 
ATOM      2  O   UNL     1       0.598  11.587  21.924  0.00  0.00    +0.000 OA
ATOM      3  O   UNL     1      -0.065  12.975  19.915  0.00  0.00    +0.000 OA
ENDROOT
BRANCH   1   4
ATOM      4  C   UNL     1      -1.876  12.307  21.663  0.00  0.00    +0.000 A 
ATOM      5  C   UNL     1      -2.086  12.116  23.044  0.00  0.00    +0.000 A 
ATOM      6  C   UNL     1      -3.363  12.331  23.609  0.00  0.00    +0.000 A 
ATOM      7  C   UNL     1      -4.395  12.723  22.765  0.00  0.00    +0.000 A 
ATOM      8  C   UNL     1      -4.149  12.927  21.409  0.00  0.00    +0.000 A 
ATOM      9  C   UNL     1      -2.905  12.737  20.839  0.00  0.00    +0.000 A 
ATOM     10  C   UNL     1      -5.425  13.284  20.693  0.00  0.00    +0.000 C 
ATOM     11  C   UNL     1      -5.318  14.670  20.067  0.00  0.00    +0.000 C 
ATOM     12  C   UNL     1      -5.763  12.182  19.692  0.00  0.00    +0.000 C 
ATOM     13  C   UNL     1      -6.441  13.289  21.843  0.00  0.00    +0.000 C 
ATOM     14  O   UNL     1      -7.638  13.532  21.747  0.00  0.00    +0.000 OA
ATOM     15  N   UNL     1      -5.757  12.948  23.012  0.00  0.00    +0.000 N 
ATOM     16  C   UNL     1      -6.452  12.795  24.261  0.00  0.00    +0.000 C 
ENDBRANCH   1   4
BRANCH   1  20
ATOM     17  N   UNL     1       1.307   8.514  19.456  0.00  0.00    +0.000 N 
ATOM     18  C   UNL     1       1.290   9.788  18.713  0.00  0.00    +0.000 C 
ATOM     19  C   UNL     1      -0.142  10.352  18.659  0.00  0.00    +0.000 C 
ATOM     20  N   UNL     1      -0.723  10.500  20.024  0.00  0.00    +0.000 NA
ATOM     21  C   UNL     1      -0.680   9.200  20.771  0.00  0.00    +0.000 C 
ATOM     22  C   UNL     1       0.723   8.544  20.821  0.00  0.00    +0.000 C 
ATOM     23  C   UNL     1       1.660   9.210  21.830  0.00  0.00    +0.000 C 
BRANCH  17  29
ATOM     24  C   UNL     1       4.831   6.793  16.433  0.00  0.00    +0.000 C 
ATOM     25  C   UNL     1       4.013   6.649  17.681  0.00  0.00    +0.000 A 
ATOM     26  C   UNL     1       4.137   5.532  18.507  0.00  0.00    +0.000 A 
ATOM     27  C   UNL     1       3.357   5.428  19.655  0.00  0.00    +0.000 A 
ATOM     28  C   UNL     1       2.444   6.438  19.976  0.00  0.00    +0.000 A 
ATOM     29  C   UNL     1       2.282   7.568  19.161  0.00  0.00    +0.000 A 
ATOM     30  C   UNL     1       3.092   7.653  18.020  0.00  0.00    +0.000 A 
ENDBRANCH  17  29
ENDBRANCH   1  20
TORSDOF 3
ENDMDL
MODEL 8
REMARK VINA RESULT:      -6.9      2.215      2.878
REMARK  Name = 
REMARK  8 active torsions:
REMARK  status: ('A' for Active; 'I' for Inactive)
REMARK    1  A    between atoms: C_1  and  C_2
REMARK    2  A    between atoms: C_6  and  N_7
REMARK    3  A    between atoms: N_10  and  S_11
REMARK    4  A    between atoms: S_11  and  C_14
REMARK    5  A    between atoms: C_20  and  C_21
REMARK    6  A    between atoms: C_20  and  C_22
REMARK    7  A    between atoms: N_25  and  C_26
REMARK    8  A    between atoms: C_28  and  C_29
REMARK                            x       y       z     vdW  Elec       q    Type
REMARK                         _______ _______ _______ _____ _____    ______ ____
ROOT
ATOM      1  S   UNL     1       1.404   9.429  18.420  0.00  0.00    +0.000 S 
ATOM      2  O   UNL     1       0.343   9.295  17.445  0.00  0.00    +0.000 OA
ATOM      3  O   UNL     1       2.235  10.609  18.491  0.00  0.00    +0.000 OA
ENDROOT
BRANCH   1   4
ATOM      4  C   UNL     1       2.484   8.036  18.177  0.00  0.00    +0.000 A 
ATOM      5  C   UNL     1       3.642   8.104  17.375  0.00  0.00    +0.000 A 
ATOM      6  C   UNL     1       4.405   6.943  17.122  0.00  0.00    +0.000 A 
ATOM      7  C   UNL     1       3.975   5.743  17.675  0.00  0.00    +0.000 A 
ATOM      8  C   UNL     1       2.840   5.713  18.483  0.00  0.00    +0.000 A 
ATOM      9  C   UNL     1       2.088   6.839  18.756  0.00  0.00    +0.000 A 
ATOM     10  C   UNL     1       2.539   4.302  18.913  0.00  0.00    +0.000 C 
ATOM     11  C   UNL     1       2.602   4.177  20.430  0.00  0.00    +0.000 C 
ATOM     12  C   UNL     1       1.201   3.871  18.316  0.00  0.00    +0.000 C 
ATOM     13  C   UNL     1       3.688   3.522  18.260  0.00  0.00    +0.000 C 
ATOM     14  O   UNL     1       3.871   2.312  18.330  0.00  0.00    +0.000 OA
ATOM     15  N   UNL     1       4.474   4.437  17.556  0.00  0.00    +0.000 N 
ATOM     16  C   UNL     1       5.597   4.003  16.770  0.00  0.00    +0.000 C 
ENDBRANCH   1   4
BRANCH   1  20
ATOM     17  N   UNL     1      -0.437  11.223  21.530  0.00  0.00    +0.000 N 
ATOM     18  C   UNL     1       1.028  11.167  21.361  0.00  0.00    +0.000 C 
ATOM     19  C   UNL     1       1.479   9.715  21.118  0.00  0.00    +0.000 C 
ATOM     20  N   UNL     1       0.765   9.108  19.959  0.00  0.00    +0.000 NA
ATOM     21  C   UNL     1      -0.722   9.191  20.139  0.00  0.00    +0.000 C 
ATOM     22  C   UNL     1      -1.244  10.618  20.442  0.00  0.00    +0.000 C 
ATOM     23  C   UNL     1      -1.296  11.512  19.201  0.00  0.00    +0.000 C 
BRANCH  17  29
ATOM     24  C   UNL     1      -4.064  12.874  24.470  0.00  0.00    +0.000 C 
ATOM     25  C   UNL     1      -2.784  13.123  23.728  0.00  0.00    +0.000 A 
ATOM     26  C   UNL     1      -2.189  14.385  23.707  0.00  0.00    +0.000 A 
ATOM     27  C   UNL     1      -1.005  14.581  23.003  0.00  0.00    +0.000 A 
ATOM     28  C   UNL     1      -0.417  13.518  22.311  0.00  0.00    +0.000 A 
ATOM     29  C   UNL     1      -0.994  12.240  22.298  0.00  0.00    +0.000 A 
ATOM     30  C   UNL     1      -2.179  12.067  23.028  0.00  0.00    +0.000 A 
ENDBRANCH  17  29
ENDBRANCH   1  20
TORSDOF 3
ENDMDL
MODEL 9
REMARK VINA RESULT:      -6.9      2.817      9.699
REMARK  Name = 
REMARK  8 active torsions:
REMARK  status: ('A' for Active; 'I' for Inactive)
REMARK    1  A    between atoms: C_1  and  C_2
REMARK    2  A    between atoms: C_6  and  N_7
REMARK    3  A    between atoms: N_10  and  S_11
REMARK    4  A    between atoms: S_11  and  C_14
REMARK    5  A    between atoms: C_20  and  C_21
REMARK    6  A    between atoms: C_20  and  C_22
REMARK    7  A    between atoms: N_25  and  C_26
REMARK    8  A    between atoms: C_28  and  C_29
REMARK                            x       y       z     vdW  Elec       q    Type
REMARK                         _______ _______ _______ _____ _____    ______ ____
ROOT
ATOM      1  S   UNL     1      -0.217  11.695  21.761  0.00  0.00    +0.000 S 
ATOM      2  O   UNL     1      -0.401  11.325  23.148  0.00  0.00    +0.000 OA
ATOM      3  O   UNL     1       1.043  12.201  21.264  0.00  0.00    +0.000 OA
ENDROOT
BRANCH   1   4
ATOM      4  C   UNL     1      -1.457  12.919  21.401  0.00  0.00    +0.000 A 
ATOM      5  C   UNL     1      -1.137  14.208  20.930  0.00  0.00    +0.000 A 
ATOM      6  C   UNL     1      -2.148  15.181  20.766  0.00  0.00    +0.000 A 
ATOM      7  C   UNL     1      -3.453  14.830  21.091  0.00  0.00    +0.000 A 
ATOM      8  C   UNL     1      -3.740  13.540  21.530  0.00  0.00    +0.000 A 
ATOM      9  C   UNL     1      -2.770  12.569  21.683  0.00  0.00    +0.000 A 
ATOM     10  C   UNL     1      -5.201  13.417  21.877  0.00  0.00    +0.000 C 
ATOM     11  C   UNL     1      -5.875  12.370  20.998  0.00  0.00    +0.000 C 
ATOM     12  C   UNL     1      -5.339  13.144  23.373  0.00  0.00    +0.000 C 
ATOM     13  C   UNL     1      -5.723  14.820  21.541  0.00  0.00    +0.000 C 
ATOM     14  O   UNL     1      -6.880  15.208  21.661  0.00  0.00    +0.000 OA
ATOM     15  N   UNL     1      -4.639  15.579  21.094  0.00  0.00    +0.000 N 
ATOM     16  C   UNL     1      -4.790  16.971  20.768  0.00  0.00    +0.000 C 
ENDBRANCH   1   4
BRANCH   1  20
ATOM     17  N   UNL     1       1.225   8.571  19.653  0.00  0.00    +0.000 N 
ATOM     18  C   UNL     1       1.091   9.937  19.112  0.00  0.00    +0.000 C 
ATOM     19  C   UNL     1      -0.338  10.462  19.345  0.00  0.00    +0.000 C 
ATOM     20  N   UNL     1      -0.715  10.398  20.786  0.00  0.00    +0.000 NA
ATOM     21  C   UNL     1      -0.554   9.007  21.324  0.00  0.00    +0.000 C 
ATOM     22  C   UNL     1       0.845   8.391  21.077  0.00  0.00    +0.000 C 
ATOM     23  C   UNL     1       1.915   8.933  22.028  0.00  0.00    +0.000 C 
BRANCH  17  29
ATOM     24  C   UNL     1       3.724   4.298  19.776  0.00  0.00    +0.000 C 
ATOM     25  C   UNL     1       3.448   5.618  19.119  0.00  0.00    +0.000 A 
ATOM     26  C   UNL     1       4.175   6.043  18.007  0.00  0.00    +0.000 A 
ATOM     27  C   UNL     1       3.897   7.277  17.428  0.00  0.00    +0.000 A 
ATOM     28  C   UNL     1       2.895   8.092  17.963  0.00  0.00    +0.000 A 
ATOM     29  C   UNL     1       2.154   7.704  19.088  0.00  0.00    +0.000 A 
ATOM     30  C   UNL     1       2.446   6.449  19.642  0.00  0.00    +0.000 A 
ENDBRANCH  17  29
ENDBRANCH   1  20
TORSDOF 3
ENDMDL
