MODEL 1
REMARK VINA RESULT:      -7.9      0.000      0.000
REMARK  Name = 
REMARK  3 active torsions:
REMARK  status: ('A' for Active; 'I' for Inactive)
REMARK    1  A    between atoms: C_1  and  S_2
REMARK    2  A    between atoms: S_2  and  N_5
REMARK    3  A    between atoms: N_5  and  C_6
REMARK                            x       y       z     vdW  Elec       q    Type
REMARK                         _______ _______ _______ _____ _____    ______ ____
ROOT
ATOM      1  C   UNL     1       5.618   4.462  17.388  0.00  0.00    +0.000 C 
ATOM      2  C   UNL     1       5.957   5.887  17.854  0.00  0.00    +0.000 C 
ATOM      3  C   UNL     1       4.859   6.413  18.770  0.00  0.00    +0.000 C 
ATOM      4  N   UNL     1       3.551   6.465  18.076  0.00  0.00    +0.000 NA
ATOM      5  C   UNL     1       2.514   7.041  18.947  0.00  0.00    +0.000 C 
ATOM      6  C   UNL     1       2.237   6.161  20.178  0.00  0.00    +0.000 C 
ATOM      7  C   UNL     1       1.990   4.736  19.771  0.00  0.00    +0.000 A 
ATOM      8  C   UNL     1       1.297   3.894  20.658  0.00  0.00    +0.000 A 
ATOM      9  C   UNL     1       0.952   2.597  20.278  0.00  0.00    +0.000 A 
ATOM     10  C   UNL     1       1.300   2.128  19.013  0.00  0.00    +0.000 A 
ATOM     11  C   UNL     1       2.007   2.947  18.129  0.00  0.00    +0.000 A 
ATOM     12  C   UNL     1       2.385   4.255  18.496  0.00  0.00    +0.000 A 
ATOM     13  C   UNL     1       3.108   5.166  17.492  0.00  0.00    +0.000 C 
ATOM     14  C   UNL     1       4.260   4.531  16.664  0.00  0.00    +0.000 C 
ENDROOT
BRANCH   1  15
ATOM     15  N   UNL     1       6.623   3.960  16.431  0.00  0.00    +0.000 NA
ATOM     16  H   UNL     1       7.580   4.149  16.809  0.00  0.00    +0.000 HD
BRANCH  15  18
ATOM     17  C   UNL     1       5.908   3.777  13.396  0.00  0.00    +0.000 C 
ATOM     18  S   UNL     1       6.565   4.701  14.813  0.00  0.00    +0.000 S 
ATOM     19  O   UNL     1       7.936   5.350  14.572  0.00  0.00    +0.000 OA
ATOM     20  O   UNL     1       5.712   5.957  15.043  0.00  0.00    +0.000 OA
ENDBRANCH  15  18
ENDBRANCH   1  15
TORSDOF 2
ENDMDL
MODEL 2
REMARK VINA RESULT:      -7.6      0.971      1.113
REMARK  Name = 
REMARK  3 active torsions:
REMARK  status: ('A' for Active; 'I' for Inactive)
REMARK    1  A    between atoms: C_1  and  S_2
REMARK    2  A    between atoms: S_2  and  N_5
REMARK    3  A    between atoms: N_5  and  C_6
REMARK                            x       y       z     vdW  Elec       q    Type
REMARK                         _______ _______ _______ _____ _____    ______ ____
ROOT
ATOM      1  C   UNL     1       5.413   4.323  17.568  0.00  0.00    +0.000 C 
ATOM      2  C   UNL     1       5.866   5.606  18.283  0.00  0.00    +0.000 C 
ATOM      3  C   UNL     1       4.803   6.053  19.278  0.00  0.00    +0.000 C 
ATOM      4  N   UNL     1       3.515   6.343  18.605  0.00  0.00    +0.000 NA
ATOM      5  C   UNL     1       2.518   6.843  19.565  0.00  0.00    +0.000 C 
ATOM      6  C   UNL     1       2.147   5.783  20.616  0.00  0.00    +0.000 C 
ATOM      7  C   UNL     1       1.784   4.481  19.960  0.00  0.00    +0.000 A 
ATOM      8  C   UNL     1       1.006   3.558  20.679  0.00  0.00    +0.000 A 
ATOM      9  C   UNL     1       0.558   2.386  20.072  0.00  0.00    +0.000 A 
ATOM     10  C   UNL     1       0.885   2.123  18.743  0.00  0.00    +0.000 A 
ATOM     11  C   UNL     1       1.674   3.022  18.021  0.00  0.00    +0.000 A 
ATOM     12  C   UNL     1       2.157   4.204  18.619  0.00  0.00    +0.000 A 
ATOM     13  C   UNL     1       2.972   5.214  17.796  0.00  0.00    +0.000 C 
ATOM     14  C   UNL     1       4.079   4.640  16.868  0.00  0.00    +0.000 C 
ENDROOT
BRANCH   1  15
ATOM     15  N   UNL     1       6.387   3.914  16.536  0.00  0.00    +0.000 NA
ATOM     16  H   UNL     1       7.354   4.000  16.926  0.00  0.00    +0.000 HD
BRANCH  15  18
ATOM     17  C   UNL     1       5.353   6.390  14.937  0.00  0.00    +0.000 C 
ATOM     18  S   UNL     1       6.359   4.883  15.043  0.00  0.00    +0.000 S 
ATOM     19  O   UNL     1       6.161   3.899  13.879  0.00  0.00    +0.000 OA
ATOM     20  O   UNL     1       7.838   5.241  14.840  0.00  0.00    +0.000 OA
ENDBRANCH  15  18
ENDBRANCH   1  15
TORSDOF 2
ENDMDL
MODEL 3
REMARK VINA RESULT:      -7.6      4.208      5.775
REMARK  Name = 
REMARK  3 active torsions:
REMARK  status: ('A' for Active; 'I' for Inactive)
REMARK    1  A    between atoms: C_1  and  S_2
REMARK    2  A    between atoms: S_2  and  N_5
REMARK    3  A    between atoms: N_5  and  C_6
REMARK                            x       y       z     vdW  Elec       q    Type
REMARK                         _______ _______ _______ _____ _____    ______ ____
ROOT
ATOM      1  C   UNL     1       1.321   8.300  19.267  0.00  0.00    +0.000 C 
ATOM      2  C   UNL     1       2.302   8.777  18.184  0.00  0.00    +0.000 C 
ATOM      3  C   UNL     1       2.974   7.580  17.523  0.00  0.00    +0.000 C 
ATOM      4  N   UNL     1       3.741   6.778  18.504  0.00  0.00    +0.000 NA
ATOM      5  C   UNL     1       4.444   5.667  17.842  0.00  0.00    +0.000 C 
ATOM      6  C   UNL     1       3.467   4.651  17.225  0.00  0.00    +0.000 C 
ATOM      7  C   UNL     1       2.433   4.226  18.228  0.00  0.00    +0.000 A 
ATOM      8  C   UNL     1       1.753   3.013  18.021  0.00  0.00    +0.000 A 
ATOM      9  C   UNL     1       0.864   2.529  18.979  0.00  0.00    +0.000 A 
ATOM     10  C   UNL     1       0.642   3.251  20.150  0.00  0.00    +0.000 A 
ATOM     11  C   UNL     1       1.296   4.468  20.361  0.00  0.00    +0.000 A 
ATOM     12  C   UNL     1       2.184   4.990  19.398  0.00  0.00    +0.000 A 
ATOM     13  C   UNL     1       2.944   6.297  19.669  0.00  0.00    +0.000 C 
ATOM     14  C   UNL     1       2.131   7.472  20.282  0.00  0.00    +0.000 C 
ENDROOT
BRANCH   1  15
ATOM     15  N   UNL     1       0.718   9.441  19.983  0.00  0.00    +0.000 NA
ATOM     16  H   UNL     1       0.086   9.079  20.733  0.00  0.00    +0.000 HD
BRANCH  15  18
ATOM     17  C   UNL     1      -1.209   9.889  17.566  0.00  0.00    +0.000 C 
ATOM     18  S   UNL     1      -0.266  10.532  18.978  0.00  0.00    +0.000 S 
ATOM     19  O   UNL     1       0.609  11.753  18.657  0.00  0.00    +0.000 OA
ATOM     20  O   UNL     1      -1.232  11.156  19.995  0.00  0.00    +0.000 OA
ENDBRANCH  15  18
ENDBRANCH   1  15
TORSDOF 2
ENDMDL
MODEL 4
REMARK VINA RESULT:      -7.5      4.401      6.571
REMARK  Name = 
REMARK  3 active torsions:
REMARK  status: ('A' for Active; 'I' for Inactive)
REMARK    1  A    between atoms: C_1  and  S_2
REMARK    2  A    between atoms: S_2  and  N_5
REMARK    3  A    between atoms: N_5  and  C_6
REMARK                            x       y       z     vdW  Elec       q    Type
REMARK                         _______ _______ _______ _____ _____    ______ ____
ROOT
ATOM      1  C   UNL     1       2.138   7.652  19.780  0.00  0.00    +0.000 C 
ATOM      2  C   UNL     1       1.501   6.471  20.529  0.00  0.00    +0.000 C 
ATOM      3  C   UNL     1       2.366   5.227  20.378  0.00  0.00    +0.000 C 
ATOM      4  N   UNL     1       2.509   4.833  18.956  0.00  0.00    +0.000 NA
ATOM      5  C   UNL     1       3.286   3.591  18.828  0.00  0.00    +0.000 C 
ATOM      6  C   UNL     1       4.738   3.765  19.304  0.00  0.00    +0.000 C 
ATOM      7  C   UNL     1       5.372   4.967  18.662  0.00  0.00    +0.000 A 
ATOM      8  C   UNL     1       6.774   5.040  18.607  0.00  0.00    +0.000 A 
ATOM      9  C   UNL     1       7.402   6.082  17.927  0.00  0.00    +0.000 A 
ATOM     10  C   UNL     1       6.636   7.063  17.299  0.00  0.00    +0.000 A 
ATOM     11  C   UNL     1       5.241   7.014  17.361  0.00  0.00    +0.000 A 
ATOM     12  C   UNL     1       4.583   5.981  18.061  0.00  0.00    +0.000 A 
ATOM     13  C   UNL     1       3.048   5.905  18.069  0.00  0.00    +0.000 C 
ATOM     14  C   UNL     1       2.276   7.233  18.304  0.00  0.00    +0.000 C 
ENDROOT
BRANCH   1  15
ATOM     15  N   UNL     1       1.278   8.850  19.838  0.00  0.00    +0.000 NA
ATOM     16  H   UNL     1       1.756   9.638  19.345  0.00  0.00    +0.000 HD
BRANCH  15  18
ATOM     17  C   UNL     1      -0.586   8.865  22.345  0.00  0.00    +0.000 C 
ATOM     18  S   UNL     1       0.904   9.434  21.478  0.00  0.00    +0.000 S 
ATOM     19  O   UNL     1       1.088  10.960  21.459  0.00  0.00    +0.000 OA
ATOM     20  O   UNL     1       2.148   9.025  22.279  0.00  0.00    +0.000 OA
ENDBRANCH  15  18
ENDBRANCH   1  15
TORSDOF 2
ENDMDL
MODEL 5
REMARK VINA RESULT:      -7.4      3.274      5.868
REMARK  Name = 
REMARK  3 active torsions:
REMARK  status: ('A' for Active; 'I' for Inactive)
REMARK    1  A    between atoms: C_1  and  S_2
REMARK    2  A    between atoms: S_2  and  N_5
REMARK    3  A    between atoms: N_5  and  C_6
REMARK                            x       y       z     vdW  Elec       q    Type
REMARK                         _______ _______ _______ _____ _____    ______ ____
ROOT
ATOM      1  C   UNL     1       2.764   4.589  17.682  0.00  0.00    +0.000 C 
ATOM      2  C   UNL     1       3.054   5.545  18.851  0.00  0.00    +0.000 C 
ATOM      3  C   UNL     1       4.461   6.116  18.722  0.00  0.00    +0.000 C 
ATOM      4  N   UNL     1       5.486   5.047  18.750  0.00  0.00    +0.000 NA
ATOM      5  C   UNL     1       6.843   5.615  18.698  0.00  0.00    +0.000 C 
ATOM      6  C   UNL     1       7.114   6.344  17.370  0.00  0.00    +0.000 C 
ATOM      7  C   UNL     1       6.756   5.474  16.199  0.00  0.00    +0.000 A 
ATOM      8  C   UNL     1       7.330   5.759  14.949  0.00  0.00    +0.000 A 
ATOM      9  C   UNL     1       7.110   4.916  13.861  0.00  0.00    +0.000 A 
ATOM     10  C   UNL     1       6.313   3.782  14.010  0.00  0.00    +0.000 A 
ATOM     11  C   UNL     1       5.720   3.497  15.242  0.00  0.00    +0.000 A 
ATOM     12  C   UNL     1       5.910   4.345  16.352  0.00  0.00    +0.000 A 
ATOM     13  C   UNL     1       5.303   3.986  17.718  0.00  0.00    +0.000 C 
ATOM     14  C   UNL     1       3.833   3.481  17.726  0.00  0.00    +0.000 C 
ENDROOT
BRANCH   1  15
ATOM     15  N   UNL     1       1.439   3.955  17.827  0.00  0.00    +0.000 NA
ATOM     16  H   UNL     1       0.722   4.697  18.000  0.00  0.00    +0.000 HD
BRANCH  15  18
ATOM     17  C   UNL     1       1.224   3.376  20.889  0.00  0.00    +0.000 C 
ATOM     18  S   UNL     1       1.298   2.796  19.171  0.00  0.00    +0.000 S 
ATOM     19  O   UNL     1       2.332   1.688  18.915  0.00  0.00    +0.000 OA
ATOM     20  O   UNL     1       0.006   2.037  18.833  0.00  0.00    +0.000 OA
ENDBRANCH  15  18
ENDBRANCH   1  15
TORSDOF 2
ENDMDL
MODEL 6
REMARK VINA RESULT:      -7.3      1.933      3.386
REMARK  Name = 
REMARK  3 active torsions:
REMARK  status: ('A' for Active; 'I' for Inactive)
REMARK    1  A    between atoms: C_1  and  S_2
REMARK    2  A    between atoms: S_2  and  N_5
REMARK    3  A    between atoms: N_5  and  C_6
REMARK                            x       y       z     vdW  Elec       q    Type
REMARK                         _______ _______ _______ _____ _____    ______ ____
ROOT
ATOM      1  C   UNL     1       4.802   6.011  17.245  0.00  0.00    +0.000 C 
ATOM      2  C   UNL     1       5.159   5.027  16.120  0.00  0.00    +0.000 C 
ATOM      3  C   UNL     1       4.412   3.714  16.318  0.00  0.00    +0.000 C 
ATOM      4  N   UNL     1       4.768   3.074  17.606  0.00  0.00    +0.000 NA
ATOM      5  C   UNL     1       4.096   1.773  17.753  0.00  0.00    +0.000 C 
ATOM      6  C   UNL     1       2.567   1.918  17.830  0.00  0.00    +0.000 C 
ATOM      7  C   UNL     1       2.177   2.942  18.858  0.00  0.00    +0.000 A 
ATOM      8  C   UNL     1       0.876   2.900  19.389  0.00  0.00    +0.000 A 
ATOM      9  C   UNL     1       0.506   3.762  20.421  0.00  0.00    +0.000 A 
ATOM     10  C   UNL     1       1.429   4.675  20.928  0.00  0.00    +0.000 A 
ATOM     11  C   UNL     1       2.719   4.741  20.396  0.00  0.00    +0.000 A 
ATOM     12  C   UNL     1       3.111   3.895  19.339  0.00  0.00    +0.000 A 
ATOM     13  C   UNL     1       4.552   3.935  18.805  0.00  0.00    +0.000 C 
ATOM     14  C   UNL     1       5.182   5.338  18.577  0.00  0.00    +0.000 C 
ENDROOT
BRANCH   1  15
ATOM     15  N   UNL     1       5.577   7.262  17.127  0.00  0.00    +0.000 NA
ATOM     16  H   UNL     1       5.487   7.629  16.151  0.00  0.00    +0.000 HD
BRANCH  15  18
ATOM     17  C   UNL     1       7.918   6.148  18.868  0.00  0.00    +0.000 C 
ATOM     18  S   UNL     1       7.321   7.106  17.446  0.00  0.00    +0.000 S 
ATOM     19  O   UNL     1       7.923   8.514  17.327  0.00  0.00    +0.000 OA
ATOM     20  O   UNL     1       7.852   6.478  16.149  0.00  0.00    +0.000 OA
ENDBRANCH  15  18
ENDBRANCH   1  15
TORSDOF 2
ENDMDL
MODEL 7
REMARK VINA RESULT:      -7.3      4.377      6.554
REMARK  Name = 
REMARK  3 active torsions:
REMARK  status: ('A' for Active; 'I' for Inactive)
REMARK    1  A    between atoms: C_1  and  S_2
REMARK    2  A    between atoms: S_2  and  N_5
REMARK    3  A    between atoms: N_5  and  C_6
REMARK                            x       y       z     vdW  Elec       q    Type
REMARK                         _______ _______ _______ _____ _____    ______ ____
ROOT
ATOM      1  C   UNL     1       2.146   7.523  19.586  0.00  0.00    +0.000 C 
ATOM      2  C   UNL     1       1.566   6.316  20.340  0.00  0.00    +0.000 C 
ATOM      3  C   UNL     1       2.533   5.140  20.267  0.00  0.00    +0.000 C 
ATOM      4  N   UNL     1       2.776   4.722  18.867  0.00  0.00    +0.000 NA
ATOM      5  C   UNL     1       3.653   3.542  18.813  0.00  0.00    +0.000 C 
ATOM      6  C   UNL     1       5.062   3.844  19.352  0.00  0.00    +0.000 C 
ATOM      7  C   UNL     1       5.631   5.074  18.704  0.00  0.00    +0.000 A 
ATOM      8  C   UNL     1       7.024   5.257  18.714  0.00  0.00    +0.000 A 
ATOM      9  C   UNL     1       7.601   6.328  18.032  0.00  0.00    +0.000 A 
ATOM     10  C   UNL     1       6.793   7.227  17.339  0.00  0.00    +0.000 A 
ATOM     11  C   UNL     1       5.405   7.069  17.337  0.00  0.00    +0.000 A 
ATOM     12  C   UNL     1       4.795   6.007  18.035  0.00  0.00    +0.000 A 
ATOM     13  C   UNL     1       3.273   5.808  17.974  0.00  0.00    +0.000 C 
ATOM     14  C   UNL     1       2.389   7.077  18.132  0.00  0.00    +0.000 C 
ENDROOT
BRANCH   1  15
ATOM     15  N   UNL     1       1.193   8.649  19.567  0.00  0.00    +0.000 NA
ATOM     16  H   UNL     1       1.602   9.435  19.010  0.00  0.00    +0.000 HD
BRANCH  15  18
ATOM     17  C   UNL     1       0.382  11.084  21.348  0.00  0.00    +0.000 C 
ATOM     18  S   UNL     1       0.785   9.324  21.163  0.00  0.00    +0.000 S 
ATOM     19  O   UNL     1       1.843   8.804  22.149  0.00  0.00    +0.000 OA
ATOM     20  O   UNL     1      -0.420   8.476  21.595  0.00  0.00    +0.000 OA
ENDBRANCH  15  18
ENDBRANCH   1  15
TORSDOF 2
ENDMDL
MODEL 8
REMARK VINA RESULT:      -7.2      3.987      5.684
REMARK  Name = 
REMARK  3 active torsions:
REMARK  status: ('A' for Active; 'I' for Inactive)
REMARK    1  A    between atoms: C_1  and  S_2
REMARK    2  A    between atoms: S_2  and  N_5
REMARK    3  A    between atoms: N_5  and  C_6
REMARK                            x       y       z     vdW  Elec       q    Type
REMARK                         _______ _______ _______ _____ _____    ______ ____
ROOT
ATOM      1  C   UNL     1       1.520   8.145  19.289  0.00  0.00    +0.000 C 
ATOM      2  C   UNL     1       2.548   8.629  18.254  0.00  0.00    +0.000 C 
ATOM      3  C   UNL     1       3.202   7.436  17.570  0.00  0.00    +0.000 C 
ATOM      4  N   UNL     1       3.914   6.575  18.542  0.00  0.00    +0.000 NA
ATOM      5  C   UNL     1       4.602   5.466  17.861  0.00  0.00    +0.000 C 
ATOM      6  C   UNL     1       3.613   4.504  17.179  0.00  0.00    +0.000 C 
ATOM      7  C   UNL     1       2.536   4.077  18.135  0.00  0.00    +0.000 A 
ATOM      8  C   UNL     1       1.825   2.896  17.863  0.00  0.00    +0.000 A 
ATOM      9  C   UNL     1       0.893   2.406  18.776  0.00  0.00    +0.000 A 
ATOM     10  C   UNL     1       0.658   3.093  19.966  0.00  0.00    +0.000 A 
ATOM     11  C   UNL     1       1.343   4.279  20.241  0.00  0.00    +0.000 A 
ATOM     12  C   UNL     1       2.276   4.806  19.324  0.00  0.00    +0.000 A 
ATOM     13  C   UNL     1       3.067   6.079  19.665  0.00  0.00    +0.000 C 
ATOM     14  C   UNL     1       2.273   7.256  20.296  0.00  0.00    +0.000 C 
ENDROOT
BRANCH   1  15
ATOM     15  N   UNL     1       0.931   9.279  20.029  0.00  0.00    +0.000 NA
ATOM     16  H   UNL     1       0.168   8.923  20.649  0.00  0.00    +0.000 HD
BRANCH  15  18
ATOM     17  C   UNL     1       1.176  11.995  18.506  0.00  0.00    +0.000 C 
ATOM     18  S   UNL     1       0.205  10.549  19.015  0.00  0.00    +0.000 S 
ATOM     19  O   UNL     1      -1.162  10.884  19.633  0.00  0.00    +0.000 OA
ATOM     20  O   UNL     1      -0.249   9.775  17.769  0.00  0.00    +0.000 OA
ENDBRANCH  15  18
ENDBRANCH   1  15
TORSDOF 2
ENDMDL
MODEL 9
REMARK VINA RESULT:      -7.2      3.966      5.685
REMARK  Name = 
REMARK  3 active torsions:
REMARK  status: ('A' for Active; 'I' for Inactive)
REMARK    1  A    between atoms: C_1  and  S_2
REMARK    2  A    between atoms: S_2  and  N_5
REMARK    3  A    between atoms: N_5  and  C_6
REMARK                            x       y       z     vdW  Elec       q    Type
REMARK                         _______ _______ _______ _____ _____    ______ ____
ROOT
ATOM      1  C   UNL     1       1.525   8.194  19.221  0.00  0.00    +0.000 C 
ATOM      2  C   UNL     1       2.549   8.648  18.170  0.00  0.00    +0.000 C 
ATOM      3  C   UNL     1       3.191   7.435  17.507  0.00  0.00    +0.000 C 
ATOM      4  N   UNL     1       3.903   6.590  18.494  0.00  0.00    +0.000 NA
ATOM      5  C   UNL     1       4.579   5.462  17.834  0.00  0.00    +0.000 C 
ATOM      6  C   UNL     1       3.579   4.493  17.179  0.00  0.00    +0.000 C 
ATOM      7  C   UNL     1       2.505   4.094  18.151  0.00  0.00    +0.000 A 
ATOM      8  C   UNL     1       1.785   2.912  17.911  0.00  0.00    +0.000 A 
ATOM      9  C   UNL     1       0.854   2.449  18.840  0.00  0.00    +0.000 A 
ATOM     10  C   UNL     1       0.632   3.164  20.016  0.00  0.00    +0.000 A 
ATOM     11  C   UNL     1       1.327   4.351  20.259  0.00  0.00    +0.000 A 
ATOM     12  C   UNL     1       2.258   4.852  19.325  0.00  0.00    +0.000 A 
ATOM     13  C   UNL     1       3.060   6.125  19.634  0.00  0.00    +0.000 C 
ATOM     14  C   UNL     1       2.278   7.322  20.243  0.00  0.00    +0.000 C 
ENDROOT
BRANCH   1  15
ATOM     15  N   UNL     1       0.949   9.348  19.939  0.00  0.00    +0.000 NA
ATOM     16  H   UNL     1       0.327   8.999  20.704  0.00  0.00    +0.000 HD
BRANCH  15  18
ATOM     17  C   UNL     1      -1.469  11.305  19.660  0.00  0.00    +0.000 C 
ATOM     18  S   UNL     1      -0.042  10.441  18.944  0.00  0.00    +0.000 S 
ATOM     19  O   UNL     1      -0.337   9.702  17.630  0.00  0.00    +0.000 OA
ATOM     20  O   UNL     1       0.980  11.473  18.445  0.00  0.00    +0.000 OA
ENDBRANCH  15  18
ENDBRANCH   1  15
TORSDOF 2
ENDMDL
