MODEL 1
REMARK VINA RESULT:      -7.4      0.000      0.000
REMARK  Name = 
REMARK  5 active torsions:
REMARK  status: ('A' for Active; 'I' for Inactive)
REMARK    1  A    between atoms: C_1  and  C_2
REMARK    2  A    between atoms: C_2  and  C_3
REMARK    3  A    between atoms: C_6  and  C_7
REMARK    4  A    between atoms: C_7  and  S_8
REMARK    5  A    between atoms: S_8  and  N_11
REMARK                            x       y       z     vdW  Elec       q    Type
REMARK                         _______ _______ _______ _____ _____    ______ ____
ROOT
ATOM      1  S   UNL     1       2.961   6.026  18.962  0.00  0.00    +0.000 S 
ATOM      2  O   UNL     1       1.858   5.196  18.518  0.00  0.00    +0.000 OA
ATOM      3  O   UNL     1       3.955   5.503  19.875  0.00  0.00    +0.000 OA
ENDROOT
BRANCH   1   4
ATOM      4  N   UNL     1       2.328   7.392  19.728  0.00  0.00    +0.000 NA
ATOM      5  C   UNL     1       2.244   8.691  18.962  0.00  0.00    +0.000 C 
ATOM      6  C   UNL     1       0.880   9.426  19.021  0.00  0.00    +0.000 C 
ATOM      7  C   UNL     1       0.295   9.352  20.438  0.00  0.00    +0.000 C 
ATOM      8  C   UNL     1       1.320   9.847  21.512  0.00  0.00    +0.000 C 
ATOM      9  C   UNL     1       0.562   9.633  22.827  0.00  0.00    +0.000 C 
ATOM     10  C   UNL     1      -0.666  10.376  22.392  0.00  0.00    +0.000 A 
ATOM     11  C   UNL     1      -1.188  11.378  23.199  0.00  0.00    +0.000 A 
ATOM     12  C   UNL     1      -1.729  12.476  22.560  0.00  0.00    +0.000 A 
ATOM     13  C   UNL     1      -1.845  12.483  21.158  0.00  0.00    +0.000 A 
ATOM     14  C   UNL     1      -1.423  11.389  20.358  0.00  0.00    +0.000 A 
ATOM     15  C   UNL     1      -0.799  10.309  20.974  0.00  0.00    +0.000 A 
ATOM     16  C   UNL     1       0.039   7.824  20.612  0.00  0.00    +0.000 C 
ATOM     17  C   UNL     1       1.381   7.127  20.843  0.00  0.00    +0.000 C 
ENDBRANCH   1   4
BRANCH   1  18
ATOM     18  C   UNL     1       3.800   6.700  17.499  0.00  0.00    +0.000 C 
BRANCH  18  24
ATOM     19  C   UNL     1       7.411   5.091  14.475  0.00  0.00    +0.000 C 
ATOM     20  C   UNL     1       6.047   4.745  15.068  0.00  0.00    +0.000 C 
ATOM     21  C   UNL     1       5.198   4.004  14.027  0.00  0.00    +0.000 C 
ATOM     22  C   UNL     1       5.327   6.005  15.556  0.00  0.00    +0.000 C 
ATOM     23  O   UNL     1       5.203   7.033  14.925  0.00  0.00    +0.000 OA
ATOM     24  C   UNL     1       4.954   5.822  17.028  0.00  0.00    +0.000 C 
ATOM     25  C   UNL     1       6.317   5.999  17.750  0.00  0.00    +0.000 C 
ATOM     26  C   UNL     1       7.062   4.671  17.440  0.00  0.00    +0.000 C 
ATOM     27  C   UNL     1       6.126   3.981  16.431  0.00  0.00    +0.000 C 
ATOM     28  C   UNL     1       4.772   4.301  17.085  0.00  0.00    +0.000 C 
ENDBRANCH  18  24
ENDBRANCH   1  18
TORSDOF 3
ENDMDL
MODEL 2
REMARK VINA RESULT:      -7.4      1.433      2.096
REMARK  Name = 
REMARK  5 active torsions:
REMARK  status: ('A' for Active; 'I' for Inactive)
REMARK    1  A    between atoms: C_1  and  C_2
REMARK    2  A    between atoms: C_2  and  C_3
REMARK    3  A    between atoms: C_6  and  C_7
REMARK    4  A    between atoms: C_7  and  S_8
REMARK    5  A    between atoms: S_8  and  N_11
REMARK                            x       y       z     vdW  Elec       q    Type
REMARK                         _______ _______ _______ _____ _____    ______ ____
ROOT
ATOM      1  S   UNL     1       2.101   5.584  19.589  0.00  0.00    +0.000 S 
ATOM      2  O   UNL     1       1.802   5.600  18.170  0.00  0.00    +0.000 OA
ATOM      3  O   UNL     1       1.466   4.621  20.463  0.00  0.00    +0.000 OA
ENDROOT
BRANCH   1   4
ATOM      4  N   UNL     1       1.713   7.096  20.235  0.00  0.00    +0.000 NA
ATOM      5  C   UNL     1       1.987   8.335  19.417  0.00  0.00    +0.000 C 
ATOM      6  C   UNL     1       0.818   9.348  19.307  0.00  0.00    +0.000 C 
ATOM      7  C   UNL     1       0.100   9.482  20.656  0.00  0.00    +0.000 C 
ATOM      8  C   UNL     1       1.103   9.808  21.813  0.00  0.00    +0.000 C 
ATOM      9  C   UNL     1       0.196   9.839  23.048  0.00  0.00    +0.000 C 
ATOM     10  C   UNL     1      -0.793  10.800  22.461  0.00  0.00    +0.000 A 
ATOM     11  C   UNL     1      -1.157  11.936  23.172  0.00  0.00    +0.000 A 
ATOM     12  C   UNL     1      -1.383  13.085  22.441  0.00  0.00    +0.000 A 
ATOM     13  C   UNL     1      -1.362  13.036  21.035  0.00  0.00    +0.000 A 
ATOM     14  C   UNL     1      -1.115  11.832  20.323  0.00  0.00    +0.000 A 
ATOM     15  C   UNL     1      -0.804  10.681  21.041  0.00  0.00    +0.000 A 
ATOM     16  C   UNL     1      -0.499   8.058  20.858  0.00  0.00    +0.000 C 
ATOM     17  C   UNL     1       0.630   7.104  21.253  0.00  0.00    +0.000 C 
ENDBRANCH   1   4
BRANCH   1  18
ATOM     18  C   UNL     1       3.902   5.472  19.797  0.00  0.00    +0.000 C 
BRANCH  18  24
ATOM     19  C   UNL     1       7.738   4.629  16.741  0.00  0.00    +0.000 C 
ATOM     20  C   UNL     1       6.782   5.700  17.261  0.00  0.00    +0.000 C 
ATOM     21  C   UNL     1       7.520   7.037  17.402  0.00  0.00    +0.000 C 
ATOM     22  C   UNL     1       6.161   5.279  18.596  0.00  0.00    +0.000 C 
ATOM     23  O   UNL     1       6.773   4.840  19.546  0.00  0.00    +0.000 OA
ATOM     24  C   UNL     1       4.638   5.327  18.470  0.00  0.00    +0.000 C 
ATOM     25  C   UNL     1       4.326   4.064  17.622  0.00  0.00    +0.000 C 
ATOM     26  C   UNL     1       4.778   4.471  16.193  0.00  0.00    +0.000 C 
ATOM     27  C   UNL     1       5.464   5.828  16.424  0.00  0.00    +0.000 C 
ATOM     28  C   UNL     1       4.476   6.441  17.430  0.00  0.00    +0.000 C 
ENDBRANCH  18  24
ENDBRANCH   1  18
TORSDOF 3
ENDMDL
MODEL 3
REMARK VINA RESULT:      -7.3      1.129      1.971
REMARK  Name = 
REMARK  5 active torsions:
REMARK  status: ('A' for Active; 'I' for Inactive)
REMARK    1  A    between atoms: C_1  and  C_2
REMARK    2  A    between atoms: C_2  and  C_3
REMARK    3  A    between atoms: C_6  and  C_7
REMARK    4  A    between atoms: C_7  and  S_8
REMARK    5  A    between atoms: S_8  and  N_11
REMARK                            x       y       z     vdW  Elec       q    Type
REMARK                         _______ _______ _______ _____ _____    ______ ____
ROOT
ATOM      1  S   UNL     1       2.921   6.156  18.615  0.00  0.00    +0.000 S 
ATOM      2  O   UNL     1       2.247   5.135  17.838  0.00  0.00    +0.000 OA
ATOM      3  O   UNL     1       3.578   5.819  19.860  0.00  0.00    +0.000 OA
ENDROOT
BRANCH   1   4
ATOM      4  N   UNL     1       1.797   7.353  19.016  0.00  0.00    +0.000 NA
ATOM      5  C   UNL     1       1.494   7.616  20.472  0.00  0.00    +0.000 C 
ATOM      6  C   UNL     1       1.530   9.101  20.914  0.00  0.00    +0.000 C 
ATOM      7  C   UNL     1       0.893   9.993  19.841  0.00  0.00    +0.000 C 
ATOM      8  C   UNL     1      -0.537   9.493  19.450  0.00  0.00    +0.000 C 
ATOM      9  C   UNL     1      -0.950  10.475  18.348  0.00  0.00    +0.000 C 
ATOM     10  C   UNL     1      -0.651  11.705  19.150  0.00  0.00    +0.000 A 
ATOM     11  C   UNL     1      -1.611  12.702  19.269  0.00  0.00    +0.000 A 
ATOM     12  C   UNL     1      -1.685  13.357  20.482  0.00  0.00    +0.000 A 
ATOM     13  C   UNL     1      -0.731  13.090  21.480  0.00  0.00    +0.000 A 
ATOM     14  C   UNL     1       0.324  12.158  21.290  0.00  0.00    +0.000 A 
ATOM     15  C   UNL     1       0.368  11.428  20.107  0.00  0.00    +0.000 A 
ATOM     16  C   UNL     1       1.866   9.814  18.637  0.00  0.00    +0.000 C 
ATOM     17  C   UNL     1       1.624   8.438  18.015  0.00  0.00    +0.000 C 
ENDBRANCH   1   4
BRANCH   1  18
ATOM     18  C   UNL     1       4.103   7.015  17.537  0.00  0.00    +0.000 C 
BRANCH  18  24
ATOM     19  C   UNL     1       7.391   5.070  14.346  0.00  0.00    +0.000 C 
ATOM     20  C   UNL     1       6.120   4.783  15.144  0.00  0.00    +0.000 C 
ATOM     21  C   UNL     1       5.184   3.883  14.328  0.00  0.00    +0.000 C 
ATOM     22  C   UNL     1       5.415   6.084  15.537  0.00  0.00    +0.000 C 
ATOM     23  O   UNL     1       5.178   7.008  14.789  0.00  0.00    +0.000 OA
ATOM     24  C   UNL     1       5.227   6.104  17.055  0.00  0.00    +0.000 C 
ATOM     25  C   UNL     1       6.658   6.411  17.572  0.00  0.00    +0.000 C 
ATOM     26  C   UNL     1       7.411   5.069  17.361  0.00  0.00    +0.000 C 
ATOM     27  C   UNL     1       6.390   4.223  16.580  0.00  0.00    +0.000 C 
ATOM     28  C   UNL     1       5.112   4.604  17.344  0.00  0.00    +0.000 C 
ENDBRANCH  18  24
ENDBRANCH   1  18
TORSDOF 3
ENDMDL
MODEL 4
REMARK VINA RESULT:      -7.2      2.767      3.583
REMARK  Name = 
REMARK  5 active torsions:
REMARK  status: ('A' for Active; 'I' for Inactive)
REMARK    1  A    between atoms: C_1  and  C_2
REMARK    2  A    between atoms: C_2  and  C_3
REMARK    3  A    between atoms: C_6  and  C_7
REMARK    4  A    between atoms: C_7  and  S_8
REMARK    5  A    between atoms: S_8  and  N_11
REMARK                            x       y       z     vdW  Elec       q    Type
REMARK                         _______ _______ _______ _____ _____    ______ ____
ROOT
ATOM      1  S   UNL     1       2.581   6.996  18.578  0.00  0.00    +0.000 S 
ATOM      2  O   UNL     1       3.919   7.214  18.064  0.00  0.00    +0.000 OA
ATOM      3  O   UNL     1       1.577   6.346  17.762  0.00  0.00    +0.000 OA
ENDROOT
BRANCH   1   4
ATOM      4  N   UNL     1       1.916   8.493  18.992  0.00  0.00    +0.000 NA
ATOM      5  C   UNL     1       1.268   9.331  17.916  0.00  0.00    +0.000 C 
ATOM      6  C   UNL     1      -0.139   9.892  18.248  0.00  0.00    +0.000 C 
ATOM      7  C   UNL     1      -0.191  10.370  19.705  0.00  0.00    +0.000 C 
ATOM      8  C   UNL     1       0.972  11.366  20.028  0.00  0.00    +0.000 C 
ATOM      9  C   UNL     1       0.762  11.661  21.517  0.00  0.00    +0.000 C 
ATOM     10  C   UNL     1      -0.683  12.031  21.376  0.00  0.00    +0.000 A 
ATOM     11  C   UNL     1      -1.144  13.228  21.909  0.00  0.00    +0.000 A 
ATOM     12  C   UNL     1      -2.118  13.896  21.195  0.00  0.00    +0.000 A 
ATOM     13  C   UNL     1      -2.684  13.299  20.054  0.00  0.00    +0.000 A 
ATOM     14  C   UNL     1      -2.289  12.013  19.598  0.00  0.00    +0.000 A 
ATOM     15  C   UNL     1      -1.251  11.359  20.255  0.00  0.00    +0.000 A 
ATOM     16  C   UNL     1       0.010   9.044  20.498  0.00  0.00    +0.000 C 
ATOM     17  C   UNL     1       1.482   8.638  20.406  0.00  0.00    +0.000 C 
ENDBRANCH   1   4
BRANCH   1  18
ATOM     18  C   UNL     1       2.708   6.124  20.165  0.00  0.00    +0.000 C 
BRANCH  18  24
ATOM     19  C   UNL     1       3.671   1.367  19.063  0.00  0.00    +0.000 C 
ATOM     20  C   UNL     1       2.838   2.585  18.670  0.00  0.00    +0.000 C 
ATOM     21  C   UNL     1       2.675   2.637  17.145  0.00  0.00    +0.000 C 
ATOM     22  C   UNL     1       3.474   3.876  19.193  0.00  0.00    +0.000 C 
ATOM     23  O   UNL     1       4.643   4.178  19.079  0.00  0.00    +0.000 OA
ATOM     24  C   UNL     1       2.444   4.628  20.036  0.00  0.00    +0.000 C 
ATOM     25  C   UNL     1       2.407   3.800  21.349  0.00  0.00    +0.000 C 
ATOM     26  C   UNL     1       1.620   2.523  20.945  0.00  0.00    +0.000 C 
ATOM     27  C   UNL     1       1.468   2.681  19.422  0.00  0.00    +0.000 C 
ATOM     28  C   UNL     1       1.144   4.182  19.357  0.00  0.00    +0.000 C 
ENDBRANCH  18  24
ENDBRANCH   1  18
TORSDOF 3
ENDMDL
MODEL 5
REMARK VINA RESULT:      -7.1      2.658      9.184
REMARK  Name = 
REMARK  5 active torsions:
REMARK  status: ('A' for Active; 'I' for Inactive)
REMARK    1  A    between atoms: C_1  and  C_2
REMARK    2  A    between atoms: C_2  and  C_3
REMARK    3  A    between atoms: C_6  and  C_7
REMARK    4  A    between atoms: C_7  and  S_8
REMARK    5  A    between atoms: S_8  and  N_11
REMARK                            x       y       z     vdW  Elec       q    Type
REMARK                         _______ _______ _______ _____ _____    ______ ____
ROOT
ATOM      1  S   UNL     1       0.480   9.160  20.991  0.00  0.00    +0.000 S 
ATOM      2  O   UNL     1       1.569   9.680  21.794  0.00  0.00    +0.000 OA
ATOM      3  O   UNL     1      -0.597   8.413  21.606  0.00  0.00    +0.000 OA
ENDROOT
BRANCH   1   4
ATOM      4  N   UNL     1       1.125   8.128  19.819  0.00  0.00    +0.000 NA
ATOM      5  C   UNL     1       1.409   8.672  18.439  0.00  0.00    +0.000 C 
ATOM      6  C   UNL     1       2.811   8.351  17.859  0.00  0.00    +0.000 C 
ATOM      7  C   UNL     1       3.210   6.908  18.194  0.00  0.00    +0.000 C 
ATOM      8  C   UNL     1       2.105   5.889  17.758  0.00  0.00    +0.000 C 
ATOM      9  C   UNL     1       2.676   4.548  18.232  0.00  0.00    +0.000 C 
ATOM     10  C   UNL     1       4.005   4.727  17.561  0.00  0.00    +0.000 A 
ATOM     11  C   UNL     1       4.505   3.723  16.742  0.00  0.00    +0.000 A 
ATOM     12  C   UNL     1       5.209   4.122  15.624  0.00  0.00    +0.000 A 
ATOM     13  C   UNL     1       5.497   5.485  15.428  0.00  0.00    +0.000 A 
ATOM     14  C   UNL     1       5.087   6.486  16.348  0.00  0.00    +0.000 A 
ATOM     15  C   UNL     1       4.305   6.114  17.438  0.00  0.00    +0.000 A 
ATOM     16  C   UNL     1       3.316   6.944  19.749  0.00  0.00    +0.000 C 
ATOM     17  C   UNL     1       1.903   6.971  20.334  0.00  0.00    +0.000 C 
ENDBRANCH   1   4
BRANCH   1  18
ATOM     18  C   UNL     1      -0.226  10.526  20.024  0.00  0.00    +0.000 C 
BRANCH  18  24
ATOM     19  C   UNL     1      -2.934  14.451  21.450  0.00  0.00    +0.000 C 
ATOM     20  C   UNL     1      -1.572  14.015  20.913  0.00  0.00    +0.000 C 
ATOM     21  C   UNL     1      -1.037  15.066  19.932  0.00  0.00    +0.000 C 
ATOM     22  C   UNL     1      -1.662  12.642  20.242  0.00  0.00    +0.000 C 
ATOM     23  O   UNL     1      -2.499  12.310  19.430  0.00  0.00    +0.000 OA
ATOM     24  C   UNL     1      -0.644  11.706  20.895  0.00  0.00    +0.000 C 
ATOM     25  C   UNL     1      -1.308  11.378  22.259  0.00  0.00    +0.000 C 
ATOM     26  C   UNL     1      -1.112  12.684  23.077  0.00  0.00    +0.000 C 
ATOM     27  C   UNL     1      -0.538  13.658  22.033  0.00  0.00    +0.000 C 
ATOM     28  C   UNL     1       0.435  12.710  21.313  0.00  0.00    +0.000 C 
ENDBRANCH  18  24
ENDBRANCH   1  18
TORSDOF 3
ENDMDL
MODEL 6
REMARK VINA RESULT:      -7.0      1.921      2.627
REMARK  Name = 
REMARK  5 active torsions:
REMARK  status: ('A' for Active; 'I' for Inactive)
REMARK    1  A    between atoms: C_1  and  C_2
REMARK    2  A    between atoms: C_2  and  C_3
REMARK    3  A    between atoms: C_6  and  C_7
REMARK    4  A    between atoms: C_7  and  S_8
REMARK    5  A    between atoms: S_8  and  N_11
REMARK                            x       y       z     vdW  Elec       q    Type
REMARK                         _______ _______ _______ _____ _____    ______ ____
ROOT
ATOM      1  S   UNL     1       2.056   6.068  19.495  0.00  0.00    +0.000 S 
ATOM      2  O   UNL     1       1.766   5.605  18.152  0.00  0.00    +0.000 OA
ATOM      3  O   UNL     1       1.286   5.585  20.622  0.00  0.00    +0.000 OA
ENDROOT
BRANCH   1   4
ATOM      4  N   UNL     1       1.891   7.749  19.530  0.00  0.00    +0.000 NA
ATOM      5  C   UNL     1       1.936   8.518  18.231  0.00  0.00    +0.000 C 
ATOM      6  C   UNL     1       0.799   9.548  18.012  0.00  0.00    +0.000 C 
ATOM      7  C   UNL     1       0.500  10.297  19.317  0.00  0.00    +0.000 C 
ATOM      8  C   UNL     1       1.796  10.918  19.936  0.00  0.00    +0.000 C 
ATOM      9  C   UNL     1       1.282  11.553  21.233  0.00  0.00    +0.000 C 
ATOM     10  C   UNL     1       0.179  12.325  20.573  0.00  0.00    +0.000 A 
ATOM     11  C   UNL     1       0.050  13.686  20.814  0.00  0.00    +0.000 A 
ATOM     12  C   UNL     1      -0.359  14.473  19.756  0.00  0.00    +0.000 A 
ATOM     13  C   UNL     1      -0.743  13.870  18.544  0.00  0.00    +0.000 A 
ATOM     14  C   UNL     1      -0.727  12.462  18.360  0.00  0.00    +0.000 A 
ATOM     15  C   UNL     1      -0.240  11.658  19.385  0.00  0.00    +0.000 A 
ATOM     16  C   UNL     1      -0.036   9.160  20.238  0.00  0.00    +0.000 C 
ATOM     17  C   UNL     1       1.145   8.301  20.691  0.00  0.00    +0.000 C 
ENDBRANCH   1   4
BRANCH   1  18
ATOM     18  C   UNL     1       3.821   5.799  19.828  0.00  0.00    +0.000 C 
BRANCH  18  24
ATOM     19  C   UNL     1       7.779   4.536  17.087  0.00  0.00    +0.000 C 
ATOM     20  C   UNL     1       6.811   5.671  17.414  0.00  0.00    +0.000 C 
ATOM     21  C   UNL     1       7.556   7.012  17.407  0.00  0.00    +0.000 C 
ATOM     22  C   UNL     1       6.129   5.436  18.765  0.00  0.00    +0.000 C 
ATOM     23  O   UNL     1       6.694   5.128  19.792  0.00  0.00    +0.000 OA
ATOM     24  C   UNL     1       4.614   5.473  18.566  0.00  0.00    +0.000 C 
ATOM     25  C   UNL     1       4.326   4.108  17.884  0.00  0.00    +0.000 C 
ATOM     26  C   UNL     1       4.844   4.316  16.434  0.00  0.00    +0.000 C 
ATOM     27  C   UNL     1       5.532   5.690  16.510  0.00  0.00    +0.000 C 
ATOM     28  C   UNL     1       4.508   6.437  17.380  0.00  0.00    +0.000 C 
ENDBRANCH  18  24
ENDBRANCH   1  18
TORSDOF 3
ENDMDL
MODEL 7
REMARK VINA RESULT:      -7.0      2.687      8.966
REMARK  Name = 
REMARK  5 active torsions:
REMARK  status: ('A' for Active; 'I' for Inactive)
REMARK    1  A    between atoms: C_1  and  C_2
REMARK    2  A    between atoms: C_2  and  C_3
REMARK    3  A    between atoms: C_6  and  C_7
REMARK    4  A    between atoms: C_7  and  S_8
REMARK    5  A    between atoms: S_8  and  N_11
REMARK                            x       y       z     vdW  Elec       q    Type
REMARK                         _______ _______ _______ _____ _____    ______ ____
ROOT
ATOM      1  S   UNL     1       0.564   8.789  21.350  0.00  0.00    +0.000 S 
ATOM      2  O   UNL     1       1.217   9.474  22.448  0.00  0.00    +0.000 OA
ATOM      3  O   UNL     1      -0.549   7.897  21.597  0.00  0.00    +0.000 OA
ENDROOT
BRANCH   1   4
ATOM      4  N   UNL     1       1.715   7.851  20.544  0.00  0.00    +0.000 NA
ATOM      5  C   UNL     1       1.893   6.405  20.943  0.00  0.00    +0.000 C 
ATOM      6  C   UNL     1       1.905   5.378  19.782  0.00  0.00    +0.000 C 
ATOM      7  C   UNL     1       2.696   5.930  18.590  0.00  0.00    +0.000 C 
ATOM      8  C   UNL     1       4.124   6.408  19.016  0.00  0.00    +0.000 C 
ATOM      9  C   UNL     1       4.700   6.962  17.708  0.00  0.00    +0.000 C 
ATOM     10  C   UNL     1       4.401   5.734  16.902  0.00  0.00    +0.000 A 
ATOM     11  C   UNL     1       5.404   5.145  16.144  0.00  0.00    +0.000 A 
ATOM     12  C   UNL     1       5.401   3.767  16.065  0.00  0.00    +0.000 A 
ATOM     13  C   UNL     1       4.341   3.036  16.632  0.00  0.00    +0.000 A 
ATOM     14  C   UNL     1       3.254   3.668  17.293  0.00  0.00    +0.000 A 
ATOM     15  C   UNL     1       3.280   5.049  17.455  0.00  0.00    +0.000 A 
ATOM     16  C   UNL     1       1.833   7.153  18.155  0.00  0.00    +0.000 C 
ATOM     17  C   UNL     1       2.049   8.285  19.162  0.00  0.00    +0.000 C 
ENDBRANCH   1   4
BRANCH   1  18
ATOM     18  C   UNL     1       0.068  10.023  20.113  0.00  0.00    +0.000 C 
BRANCH  18  24
ATOM     19  C   UNL     1      -2.485  14.261  20.659  0.00  0.00    +0.000 C 
ATOM     20  C   UNL     1      -1.120  13.675  20.304  0.00  0.00    +0.000 C 
ATOM     21  C   UNL     1      -0.460  14.515  19.203  0.00  0.00    +0.000 C 
ATOM     22  C   UNL     1      -1.249  12.213  19.868  0.00  0.00    +0.000 C 
ATOM     23  O   UNL     1      -2.051  11.788  19.063  0.00  0.00    +0.000 OA
ATOM     24  C   UNL     1      -0.333  11.354  20.741  0.00  0.00    +0.000 C 
ATOM     25  C   UNL     1      -1.103  11.297  22.088  0.00  0.00    +0.000 C 
ATOM     26  C   UNL     1      -0.881  12.713  22.688  0.00  0.00    +0.000 C 
ATOM     27  C   UNL     1      -0.183  13.465  21.541  0.00  0.00    +0.000 C 
ATOM     28  C   UNL     1       0.775  12.362  21.064  0.00  0.00    +0.000 C 
ENDBRANCH  18  24
ENDBRANCH   1  18
TORSDOF 3
ENDMDL
MODEL 8
REMARK VINA RESULT:      -7.0      2.704      3.834
REMARK  Name = 
REMARK  5 active torsions:
REMARK  status: ('A' for Active; 'I' for Inactive)
REMARK    1  A    between atoms: C_1  and  C_2
REMARK    2  A    between atoms: C_2  and  C_3
REMARK    3  A    between atoms: C_6  and  C_7
REMARK    4  A    between atoms: C_7  and  S_8
REMARK    5  A    between atoms: S_8  and  N_11
REMARK                            x       y       z     vdW  Elec       q    Type
REMARK                         _______ _______ _______ _____ _____    ______ ____
ROOT
ATOM      1  S   UNL     1       2.876   7.105  18.527  0.00  0.00    +0.000 S 
ATOM      2  O   UNL     1       3.711   6.755  19.659  0.00  0.00    +0.000 OA
ATOM      3  O   UNL     1       3.438   7.791  17.382  0.00  0.00    +0.000 OA
ENDROOT
BRANCH   1   4
ATOM      4  N   UNL     1       1.625   8.102  19.073  0.00  0.00    +0.000 NA
ATOM      5  C   UNL     1       1.343   8.180  20.554  0.00  0.00    +0.000 C 
ATOM      6  C   UNL     1       1.208   9.607  21.145  0.00  0.00    +0.000 C 
ATOM      7  C   UNL     1       0.425  10.510  20.183  0.00  0.00    +0.000 C 
ATOM      8  C   UNL     1      -0.943   9.870  19.776  0.00  0.00    +0.000 C 
ATOM      9  C   UNL     1      -1.515  10.894  18.788  0.00  0.00    +0.000 C 
ATOM     10  C   UNL     1      -1.345  12.068  19.704  0.00  0.00    +0.000 A 
ATOM     11  C   UNL     1      -2.418  12.916  19.946  0.00  0.00    +0.000 A 
ATOM     12  C   UNL     1      -2.531  13.435  21.220  0.00  0.00    +0.000 A 
ATOM     13  C   UNL     1      -1.516  13.196  22.165  0.00  0.00    +0.000 A 
ATOM     14  C   UNL     1      -0.360  12.432  21.857  0.00  0.00    +0.000 A 
ATOM     15  C   UNL     1      -0.266  11.832  20.605  0.00  0.00    +0.000 A 
ATOM     16  C   UNL     1       1.370  10.577  18.945  0.00  0.00    +0.000 C 
ATOM     17  C   UNL     1       1.282   9.249  18.192  0.00  0.00    +0.000 C 
ENDBRANCH   1   4
BRANCH   1  18
ATOM     18  C   UNL     1       2.020   5.608  17.957  0.00  0.00    +0.000 C 
BRANCH  18  24
ATOM     19  C   UNL     1       4.406   2.024  20.453  0.00  0.00    +0.000 C 
ATOM     20  C   UNL     1       3.387   2.296  19.349  0.00  0.00    +0.000 C 
ATOM     21  C   UNL     1       3.545   1.263  18.225  0.00  0.00    +0.000 C 
ATOM     22  C   UNL     1       3.536   3.718  18.804  0.00  0.00    +0.000 C 
ATOM     23  O   UNL     1       4.581   4.238  18.474  0.00  0.00    +0.000 OA
ATOM     24  C   UNL     1       2.190   4.434  18.916  0.00  0.00    +0.000 C 
ATOM     25  C   UNL     1       2.093   4.742  20.435  0.00  0.00    +0.000 C 
ATOM     26  C   UNL     1       1.771   3.357  21.061  0.00  0.00    +0.000 C 
ATOM     27  C   UNL     1       1.912   2.399  19.864  0.00  0.00    +0.000 C 
ATOM     28  C   UNL     1       1.228   3.249  18.781  0.00  0.00    +0.000 C 
ENDBRANCH  18  24
ENDBRANCH   1  18
TORSDOF 3
ENDMDL
MODEL 9
REMARK VINA RESULT:      -6.9      2.703      8.947
REMARK  Name = 
REMARK  5 active torsions:
REMARK  status: ('A' for Active; 'I' for Inactive)
REMARK    1  A    between atoms: C_1  and  C_2
REMARK    2  A    between atoms: C_2  and  C_3
REMARK    3  A    between atoms: C_6  and  C_7
REMARK    4  A    between atoms: C_7  and  S_8
REMARK    5  A    between atoms: S_8  and  N_11
REMARK                            x       y       z     vdW  Elec       q    Type
REMARK                         _______ _______ _______ _____ _____    ______ ____
ROOT
ATOM      1  S   UNL     1       0.569   9.212  20.977  0.00  0.00    +0.000 S 
ATOM      2  O   UNL     1       1.270  10.196  21.778  0.00  0.00    +0.000 OA
ATOM      3  O   UNL     1      -0.413   8.337  21.581  0.00  0.00    +0.000 OA
ENDROOT
BRANCH   1   4
ATOM      4  N   UNL     1       1.709   8.183  20.273  0.00  0.00    +0.000 NA
ATOM      5  C   UNL     1       1.885   6.792  20.832  0.00  0.00    +0.000 C 
ATOM      6  C   UNL     1       1.883   5.639  19.795  0.00  0.00    +0.000 C 
ATOM      7  C   UNL     1       2.665   6.048  18.541  0.00  0.00    +0.000 C 
ATOM      8  C   UNL     1       4.099   6.564  18.898  0.00  0.00    +0.000 C 
ATOM      9  C   UNL     1       4.665   6.964  17.531  0.00  0.00    +0.000 C 
ATOM     10  C   UNL     1       4.354   5.654  16.873  0.00  0.00    +0.000 A 
ATOM     11  C   UNL     1       5.348   4.978  16.178  0.00  0.00    +0.000 A 
ATOM     12  C   UNL     1       5.339   3.600  16.256  0.00  0.00    +0.000 A 
ATOM     13  C   UNL     1       4.281   2.943  16.911  0.00  0.00    +0.000 A 
ATOM     14  C   UNL     1       3.203   3.651  17.505  0.00  0.00    +0.000 A 
ATOM     15  C   UNL     1       3.236   5.042  17.509  0.00  0.00    +0.000 A 
ATOM     16  C   UNL     1       1.804   7.219  17.978  0.00  0.00    +0.000 C 
ATOM     17  C   UNL     1       2.033   8.456  18.848  0.00  0.00    +0.000 C 
ENDBRANCH   1   4
BRANCH   1  18
ATOM     18  C   UNL     1      -0.187  10.057  19.558  0.00  0.00    +0.000 C 
BRANCH  18  24
ATOM     19  C   UNL     1      -0.792  14.988  19.871  0.00  0.00    +0.000 C 
ATOM     20  C   UNL     1      -0.492  13.724  20.674  0.00  0.00    +0.000 C 
ATOM     21  C   UNL     1       0.522  14.036  21.782  0.00  0.00    +0.000 C 
ATOM     22  C   UNL     1       0.026  12.607  19.764  0.00  0.00    +0.000 C 
ATOM     23  O   UNL     1       0.899  12.729  18.930  0.00  0.00    +0.000 OA
ATOM     24  C   UNL     1      -0.856  11.372  19.946  0.00  0.00    +0.000 C 
ATOM     25  C   UNL     1      -2.149  11.760  19.180  0.00  0.00    +0.000 C 
ATOM     26  C   UNL     1      -2.834  12.784  20.126  0.00  0.00    +0.000 C 
ATOM     27  C   UNL     1      -1.772  13.003  21.218  0.00  0.00    +0.000 C 
ATOM     28  C   UNL     1      -1.297  11.553  21.402  0.00  0.00    +0.000 C 
ENDBRANCH  18  24
ENDBRANCH   1  18
TORSDOF 3
ENDMDL
