MODEL 1
REMARK VINA RESULT:      -7.8      0.000      0.000
REMARK  Name = 
REMARK  2 active torsions:
REMARK  status: ('A' for Active; 'I' for Inactive)
REMARK    1  A    between atoms: N_12  and  N_13
REMARK    2  A    between atoms: C_18  and  C_19
REMARK                            x       y       z     vdW  Elec       q    Type
REMARK                         _______ _______ _______ _____ _____    ______ ____
ROOT
ATOM      1  O   UNL     1       2.545   5.061  21.089  0.00  0.00    +0.000 OA
ATOM      2  C   UNL     1       2.064   6.020  20.513  0.00  0.00    +0.000 C 
ATOM      3  N   UNL     1       1.256   6.997  21.036  0.00  0.00    +0.000 N 
ATOM      4  C   UNL     1       1.312   8.132  20.239  0.00  0.00    +0.000 A 
ATOM      5  C   UNL     1       0.830   9.379  20.571  0.00  0.00    +0.000 A 
ATOM      6  C   UNL     1       1.186  10.439  19.733  0.00  0.00    +0.000 A 
ATOM      7  C   UNL     1       1.979  10.220  18.590  0.00  0.00    +0.000 A 
ATOM      8 CL   UNL     1       2.486  11.582  17.658  0.00  0.00    +0.000 Cl
ATOM      9  C   UNL     1       2.407   8.939  18.222  0.00  0.00    +0.000 A 
ATOM     10  C   UNL     1       2.059   7.909  19.075  0.00  0.00    +0.000 A 
ATOM     11  C   UNL     1       2.408   6.493  19.086  0.00  0.00    +0.000 C 
ATOM     12  N   UNL     1       2.892   5.804  18.098  0.00  0.00    +0.000 NA
ATOM     13  H   UNL     1       0.913   6.960  21.979  0.00  0.00    +0.000 HD
ENDROOT
BRANCH  12  14
ATOM     14  N   UNL     1       2.986   4.429  18.263  0.00  0.00    +0.000 N 
ATOM     15  C   UNL     1       1.931   3.551  17.984  0.00  0.00    +0.000 C 
ATOM     16  O   UNL     1       0.901   3.838  17.373  0.00  0.00    +0.000 OA
ATOM     17  C   UNL     1       2.157   2.206  18.635  0.00  0.00    +0.000 C 
ATOM     18  S   UNL     1       3.934   2.051  18.891  0.00  0.00    +0.000 S 
ATOM     19  C   UNL     1       4.207   3.840  18.787  0.00  0.00    +0.000 C 
BRANCH  19  20
ATOM     20  C   UNL     1       5.389   4.155  17.933  0.00  0.00    +0.000 A 
ATOM     21  C   UNL     1       5.608   4.244  16.571  0.00  0.00    +0.000 A 
ATOM     22  C   UNL     1       6.959   4.638  16.405  0.00  0.00    +0.000 A 
ATOM     23  C   UNL     1       7.487   4.740  17.669  0.00  0.00    +0.000 A 
ATOM     24  O   UNL     1       6.547   4.448  18.601  0.00  0.00    +0.000 OA
ENDBRANCH  19  20
ENDBRANCH  12  14
TORSDOF 2
ENDMDL
MODEL 2
REMARK VINA RESULT:      -7.4      3.135      5.760
REMARK  Name = 
REMARK  2 active torsions:
REMARK  status: ('A' for Active; 'I' for Inactive)
REMARK    1  A    between atoms: N_12  and  N_13
REMARK    2  A    between atoms: C_18  and  C_19
REMARK                            x       y       z     vdW  Elec       q    Type
REMARK                         _______ _______ _______ _____ _____    ______ ____
ROOT
ATOM      1  O   UNL     1       5.743   4.666  19.807  0.00  0.00    +0.000 OA
ATOM      2  C   UNL     1       5.626   4.833  18.606  0.00  0.00    +0.000 C 
ATOM      3  N   UNL     1       6.274   5.749  17.818  0.00  0.00    +0.000 N 
ATOM      4  C   UNL     1       6.254   5.330  16.495  0.00  0.00    +0.000 A 
ATOM      5  C   UNL     1       7.000   5.861  15.466  0.00  0.00    +0.000 A 
ATOM      6  C   UNL     1       7.007   5.153  14.260  0.00  0.00    +0.000 A 
ATOM      7  C   UNL     1       6.258   3.970  14.112  0.00  0.00    +0.000 A 
ATOM      8 CL   UNL     1       6.398   3.077  12.642  0.00  0.00    +0.000 Cl
ATOM      9  C   UNL     1       5.447   3.477  15.141  0.00  0.00    +0.000 A 
ATOM     10  C   UNL     1       5.470   4.180  16.330  0.00  0.00    +0.000 A 
ATOM     11  C   UNL     1       4.861   3.918  17.629  0.00  0.00    +0.000 C 
ATOM     12  N   UNL     1       3.887   3.098  17.880  0.00  0.00    +0.000 NA
ATOM     13  H   UNL     1       6.884   6.450  18.200  0.00  0.00    +0.000 HD
ENDROOT
BRANCH  12  14
ATOM     14  N   UNL     1       3.337   3.129  19.153  0.00  0.00    +0.000 N 
ATOM     15  C   UNL     1       3.890   2.443  20.243  0.00  0.00    +0.000 C 
ATOM     16  O   UNL     1       5.007   1.925  20.272  0.00  0.00    +0.000 OA
ATOM     17  C   UNL     1       2.887   2.308  21.365  0.00  0.00    +0.000 C 
ATOM     18  S   UNL     1       1.691   3.638  21.149  0.00  0.00    +0.000 S 
ATOM     19  C   UNL     1       2.106   3.863  19.398  0.00  0.00    +0.000 C 
BRANCH  19  20
ATOM     20  C   UNL     1       2.244   5.309  19.059  0.00  0.00    +0.000 A 
ATOM     21  C   UNL     1       2.249   6.036  17.883  0.00  0.00    +0.000 A 
ATOM     22  C   UNL     1       2.370   7.399  18.253  0.00  0.00    +0.000 A 
ATOM     23  C   UNL     1       2.457   7.418  19.624  0.00  0.00    +0.000 A 
ATOM     24  O   UNL     1       2.384   6.160  20.122  0.00  0.00    +0.000 OA
ENDBRANCH  19  20
ENDBRANCH  12  14
TORSDOF 2
ENDMDL
MODEL 3
REMARK VINA RESULT:      -7.2      1.875      3.408
REMARK  Name = 
REMARK  2 active torsions:
REMARK  status: ('A' for Active; 'I' for Inactive)
REMARK    1  A    between atoms: N_12  and  N_13
REMARK    2  A    between atoms: C_18  and  C_19
REMARK                            x       y       z     vdW  Elec       q    Type
REMARK                         _______ _______ _______ _____ _____    ______ ____
ROOT
ATOM      1  O   UNL     1       5.122   5.290  19.603  0.00  0.00    +0.000 OA
ATOM      2  C   UNL     1       4.047   5.844  19.457  0.00  0.00    +0.000 C 
ATOM      3  N   UNL     1       3.033   5.964  20.371  0.00  0.00    +0.000 N 
ATOM      4  C   UNL     1       2.214   7.032  20.031  0.00  0.00    +0.000 A 
ATOM      5  C   UNL     1       1.248   7.599  20.832  0.00  0.00    +0.000 A 
ATOM      6  C   UNL     1       0.693   8.807  20.396  0.00  0.00    +0.000 A 
ATOM      7  C   UNL     1       1.095   9.387  19.177  0.00  0.00    +0.000 A 
ATOM      8 CL   UNL     1       0.464  10.935  18.747  0.00  0.00    +0.000 Cl
ATOM      9  C   UNL     1       2.027   8.768  18.337  0.00  0.00    +0.000 A 
ATOM     10  C   UNL     1       2.577   7.586  18.796  0.00  0.00    +0.000 A 
ATOM     11  C   UNL     1       3.634   6.732  18.266  0.00  0.00    +0.000 C 
ATOM     12  N   UNL     1       4.099   6.733  17.055  0.00  0.00    +0.000 NA
ATOM     13  H   UNL     1       3.063   5.513  21.269  0.00  0.00    +0.000 HD
ENDROOT
BRANCH  12  14
ATOM     14  N   UNL     1       4.981   5.718  16.708  0.00  0.00    +0.000 N 
ATOM     15  C   UNL     1       6.370   5.829  16.855  0.00  0.00    +0.000 C 
ATOM     16  O   UNL     1       6.957   6.708  17.486  0.00  0.00    +0.000 OA
ATOM     17  C   UNL     1       7.088   4.784  16.033  0.00  0.00    +0.000 C 
ATOM     18  S   UNL     1       5.919   3.437  15.779  0.00  0.00    +0.000 S 
ATOM     19  C   UNL     1       4.480   4.485  16.124  0.00  0.00    +0.000 C 
BRANCH  19  20
ATOM     20  C   UNL     1       3.515   3.793  17.027  0.00  0.00    +0.000 A 
ATOM     21  C   UNL     1       2.153   3.886  17.249  0.00  0.00    +0.000 A 
ATOM     22  C   UNL     1       1.835   2.901  18.217  0.00  0.00    +0.000 A 
ATOM     23  C   UNL     1       3.020   2.288  18.544  0.00  0.00    +0.000 A 
ATOM     24  O   UNL     1       4.043   2.821  17.833  0.00  0.00    +0.000 OA
ENDBRANCH  19  20
ENDBRANCH  12  14
TORSDOF 2
ENDMDL
MODEL 4
REMARK VINA RESULT:      -6.7      3.597      6.855
REMARK  Name = 
REMARK  2 active torsions:
REMARK  status: ('A' for Active; 'I' for Inactive)
REMARK    1  A    between atoms: N_12  and  N_13
REMARK    2  A    between atoms: C_18  and  C_19
REMARK                            x       y       z     vdW  Elec       q    Type
REMARK                         _______ _______ _______ _____ _____    ______ ____
ROOT
ATOM      1  O   UNL     1       6.821   5.571  17.580  0.00  0.00    +0.000 OA
ATOM      2  C   UNL     1       6.588   5.453  16.391  0.00  0.00    +0.000 C 
ATOM      3  N   UNL     1       7.415   5.751  15.339  0.00  0.00    +0.000 N 
ATOM      4  C   UNL     1       7.010   5.055  14.208  0.00  0.00    +0.000 A 
ATOM      5  C   UNL     1       7.729   4.917  13.042  0.00  0.00    +0.000 A 
ATOM      6  C   UNL     1       7.251   3.990  12.110  0.00  0.00    +0.000 A 
ATOM      7  C   UNL     1       6.072   3.262  12.357  0.00  0.00    +0.000 A 
ATOM      8 CL   UNL     1       5.594   2.048  11.226  0.00  0.00    +0.000 Cl
ATOM      9  C   UNL     1       5.310   3.459  13.514  0.00  0.00    +0.000 A 
ATOM     10  C   UNL     1       5.811   4.365  14.430  0.00  0.00    +0.000 A 
ATOM     11  C   UNL     1       5.369   4.745  15.767  0.00  0.00    +0.000 C 
ATOM     12  N   UNL     1       4.200   4.530  16.289  0.00  0.00    +0.000 NA
ATOM     13  H   UNL     1       8.310   6.188  15.467  0.00  0.00    +0.000 HD
ENDROOT
BRANCH  12  14
ATOM     14  N   UNL     1       3.926   5.130  17.511  0.00  0.00    +0.000 N 
ATOM     15  C   UNL     1       3.719   6.508  17.657  0.00  0.00    +0.000 C 
ATOM     16  O   UNL     1       3.540   7.308  16.738  0.00  0.00    +0.000 OA
ATOM     17  C   UNL     1       3.861   6.928  19.101  0.00  0.00    +0.000 C 
ATOM     18  S   UNL     1       3.541   5.461  20.097  0.00  0.00    +0.000 S 
ATOM     19  C   UNL     1       3.885   4.329  18.723  0.00  0.00    +0.000 C 
BRANCH  19  20
ATOM     20  C   UNL     1       2.857   3.251  18.644  0.00  0.00    +0.000 A 
ATOM     21  C   UNL     1       2.897   1.882  18.451  0.00  0.00    +0.000 A 
ATOM     22  C   UNL     1       1.558   1.425  18.532  0.00  0.00    +0.000 A 
ATOM     23  C   UNL     1       0.784   2.541  18.743  0.00  0.00    +0.000 A 
ATOM     24  O   UNL     1       1.559   3.651  18.809  0.00  0.00    +0.000 OA
ENDBRANCH  19  20
ENDBRANCH  12  14
TORSDOF 2
ENDMDL
MODEL 5
REMARK VINA RESULT:      -6.6      3.073      6.067
REMARK  Name = 
REMARK  2 active torsions:
REMARK  status: ('A' for Active; 'I' for Inactive)
REMARK    1  A    between atoms: N_12  and  N_13
REMARK    2  A    between atoms: C_18  and  C_19
REMARK                            x       y       z     vdW  Elec       q    Type
REMARK                         _______ _______ _______ _____ _____    ______ ____
ROOT
ATOM      1  O   UNL     1       5.568   5.613  19.347  0.00  0.00    +0.000 OA
ATOM      2  C   UNL     1       5.696   5.694  18.138  0.00  0.00    +0.000 C 
ATOM      3  N   UNL     1       6.845   5.934  17.430  0.00  0.00    +0.000 N 
ATOM      4  C   UNL     1       6.698   5.484  16.125  0.00  0.00    +0.000 A 
ATOM      5  C   UNL     1       7.707   5.339  15.200  0.00  0.00    +0.000 A 
ATOM      6  C   UNL     1       7.391   4.657  14.020  0.00  0.00    +0.000 A 
ATOM      7  C   UNL     1       6.088   4.174  13.794  0.00  0.00    +0.000 A 
ATOM      8 CL   UNL     1       5.785   3.239  12.375  0.00  0.00    +0.000 Cl
ATOM      9  C   UNL     1       5.051   4.388  14.709  0.00  0.00    +0.000 A 
ATOM     10  C   UNL     1       5.390   5.047  15.876  0.00  0.00    +0.000 A 
ATOM     11  C   UNL     1       4.628   5.346  17.083  0.00  0.00    +0.000 C 
ATOM     12  N   UNL     1       3.337   5.325  17.211  0.00  0.00    +0.000 NA
ATOM     13  H   UNL     1       7.717   6.149  17.879  0.00  0.00    +0.000 HD
ENDROOT
BRANCH  12  14
ATOM     14  N   UNL     1       2.804   5.816  18.395  0.00  0.00    +0.000 N 
ATOM     15  C   UNL     1       2.323   7.125  18.533  0.00  0.00    +0.000 C 
ATOM     16  O   UNL     1       2.110   7.911  17.610  0.00  0.00    +0.000 OA
ATOM     17  C   UNL     1       2.202   7.509  19.989  0.00  0.00    +0.000 C 
ATOM     18  S   UNL     1       2.046   5.971  20.915  0.00  0.00    +0.000 S 
ATOM     19  C   UNL     1       2.766   4.977  19.581  0.00  0.00    +0.000 C 
BRANCH  19  20
ATOM     20  C   UNL     1       1.980   3.729  19.355  0.00  0.00    +0.000 A 
ATOM     21  C   UNL     1       0.641   3.397  19.433  0.00  0.00    +0.000 A 
ATOM     22  C   UNL     1       0.539   2.039  19.040  0.00  0.00    +0.000 A 
ATOM     23  C   UNL     1       1.820   1.620  18.774  0.00  0.00    +0.000 A 
ATOM     24  O   UNL     1       2.700   2.633  18.964  0.00  0.00    +0.000 OA
ENDBRANCH  19  20
ENDBRANCH  12  14
TORSDOF 2
ENDMDL
MODEL 6
REMARK VINA RESULT:      -6.4      3.736      5.194
REMARK  Name = 
REMARK  2 active torsions:
REMARK  status: ('A' for Active; 'I' for Inactive)
REMARK    1  A    between atoms: N_12  and  N_13
REMARK    2  A    between atoms: C_18  and  C_19
REMARK                            x       y       z     vdW  Elec       q    Type
REMARK                         _______ _______ _______ _____ _____    ______ ____
ROOT
ATOM      1  O   UNL     1       4.108   7.472  18.412  0.00  0.00    +0.000 OA
ATOM      2  C   UNL     1       3.698   6.482  18.989  0.00  0.00    +0.000 C 
ATOM      3  N   UNL     1       2.639   6.392  19.854  0.00  0.00    +0.000 N 
ATOM      4  C   UNL     1       2.193   5.079  19.920  0.00  0.00    +0.000 A 
ATOM      5  C   UNL     1       1.014   4.651  20.489  0.00  0.00    +0.000 A 
ATOM      6  C   UNL     1       0.641   3.325  20.250  0.00  0.00    +0.000 A 
ATOM      7  C   UNL     1       1.458   2.472  19.484  0.00  0.00    +0.000 A 
ATOM      8 CL   UNL     1       0.891   0.882  19.124  0.00  0.00    +0.000 Cl
ATOM      9  C   UNL     1       2.688   2.895  18.968  0.00  0.00    +0.000 A 
ATOM     10  C   UNL     1       3.028   4.214  19.200  0.00  0.00    +0.000 A 
ATOM     11  C   UNL     1       4.147   5.029  18.737  0.00  0.00    +0.000 C 
ATOM     12  N   UNL     1       5.264   4.600  18.235  0.00  0.00    +0.000 NA
ATOM     13  H   UNL     1       2.125   7.199  20.159  0.00  0.00    +0.000 HD
ENDROOT
BRANCH  12  14
ATOM     14  N   UNL     1       6.269   5.533  18.023  0.00  0.00    +0.000 N 
ATOM     15  C   UNL     1       7.274   5.802  18.963  0.00  0.00    +0.000 C 
ATOM     16  O   UNL     1       7.523   5.126  19.961  0.00  0.00    +0.000 OA
ATOM     17  C   UNL     1       7.958   7.116  18.664  0.00  0.00    +0.000 C 
ATOM     18  S   UNL     1       7.712   7.437  16.908  0.00  0.00    +0.000 S 
ATOM     19  C   UNL     1       6.290   6.317  16.800  0.00  0.00    +0.000 C 
BRANCH  19  20
ATOM     20  C   UNL     1       6.376   5.454  15.586  0.00  0.00    +0.000 A 
ATOM     21  C   UNL     1       5.537   4.534  14.986  0.00  0.00    +0.000 A 
ATOM     22  C   UNL     1       6.197   4.092  13.812  0.00  0.00    +0.000 A 
ATOM     23  C   UNL     1       7.404   4.748  13.782  0.00  0.00    +0.000 A 
ATOM     24  O   UNL     1       7.524   5.572  14.851  0.00  0.00    +0.000 OA
ENDBRANCH  19  20
ENDBRANCH  12  14
TORSDOF 2
ENDMDL
MODEL 7
REMARK VINA RESULT:      -6.2      6.920      9.138
REMARK  Name = 
REMARK  2 active torsions:
REMARK  status: ('A' for Active; 'I' for Inactive)
REMARK    1  A    between atoms: N_12  and  N_13
REMARK    2  A    between atoms: C_18  and  C_19
REMARK                            x       y       z     vdW  Elec       q    Type
REMARK                         _______ _______ _______ _____ _____    ______ ____
ROOT
ATOM      1  O   UNL     1      -2.078  10.809  16.978  0.00  0.00    +0.000 OA
ATOM      2  C   UNL     1      -2.997  11.474  17.424  0.00  0.00    +0.000 C 
ATOM      3  N   UNL     1      -4.155  11.838  16.789  0.00  0.00    +0.000 N 
ATOM      4  C   UNL     1      -5.129  12.153  17.727  0.00  0.00    +0.000 A 
ATOM      5  C   UNL     1      -6.471  12.328  17.474  0.00  0.00    +0.000 A 
ATOM      6  C   UNL     1      -7.318  12.414  18.583  0.00  0.00    +0.000 A 
ATOM      7  C   UNL     1      -6.802  12.351  19.892  0.00  0.00    +0.000 A 
ATOM      8 CL   UNL     1      -7.905  12.343  21.219  0.00  0.00    +0.000 Cl
ATOM      9  C   UNL     1      -5.429  12.243  20.140  0.00  0.00    +0.000 A 
ATOM     10  C   UNL     1      -4.612  12.141  19.029  0.00  0.00    +0.000 A 
ATOM     11  C   UNL     1      -3.179  11.907  18.892  0.00  0.00    +0.000 C 
ATOM     12  N   UNL     1      -2.277  12.049  19.814  0.00  0.00    +0.000 NA
ATOM     13  H   UNL     1      -4.322  11.636  15.819  0.00  0.00    +0.000 HD
ENDROOT
BRANCH  12  14
ATOM     14  N   UNL     1      -0.948  11.949  19.428  0.00  0.00    +0.000 N 
ATOM     15  C   UNL     1      -0.206  13.037  18.948  0.00  0.00    +0.000 C 
ATOM     16  O   UNL     1      -0.546  14.219  19.009  0.00  0.00    +0.000 OA
ATOM     17  C   UNL     1       1.037  12.570  18.226  0.00  0.00    +0.000 C 
ATOM     18  S   UNL     1       1.417  10.929  18.864  0.00  0.00    +0.000 S 
ATOM     19  C   UNL     1      -0.271  10.663  19.471  0.00  0.00    +0.000 C 
BRANCH  19  20
ATOM     20  C   UNL     1      -0.263  10.083  20.845  0.00  0.00    +0.000 A 
ATOM     21  C   UNL     1      -0.019   8.827  21.369  0.00  0.00    +0.000 A 
ATOM     22  C   UNL     1      -0.125   8.950  22.777  0.00  0.00    +0.000 A 
ATOM     23  C   UNL     1      -0.451  10.262  23.023  0.00  0.00    +0.000 A 
ATOM     24  O   UNL     1      -0.540  10.955  21.862  0.00  0.00    +0.000 OA
ENDBRANCH  19  20
ENDBRANCH  12  14
TORSDOF 2
ENDMDL
MODEL 8
REMARK VINA RESULT:      -6.1      2.142      4.025
REMARK  Name = 
REMARK  2 active torsions:
REMARK  status: ('A' for Active; 'I' for Inactive)
REMARK    1  A    between atoms: N_12  and  N_13
REMARK    2  A    between atoms: C_18  and  C_19
REMARK                            x       y       z     vdW  Elec       q    Type
REMARK                         _______ _______ _______ _____ _____    ______ ____
ROOT
ATOM      1  O   UNL     1       2.927   7.215  16.747  0.00  0.00    +0.000 OA
ATOM      2  C   UNL     1       2.731   7.800  17.797  0.00  0.00    +0.000 C 
ATOM      3  N   UNL     1       2.412   9.121  17.976  0.00  0.00    +0.000 N 
ATOM      4  C   UNL     1       1.810   9.298  19.214  0.00  0.00    +0.000 A 
ATOM      5  C   UNL     1       1.147  10.428  19.638  0.00  0.00    +0.000 A 
ATOM      6  C   UNL     1       0.415  10.324  20.825  0.00  0.00    +0.000 A 
ATOM      7  C   UNL     1       0.391   9.121  21.555  0.00  0.00    +0.000 A 
ATOM      8 CL   UNL     1      -0.623   9.015  22.948  0.00  0.00    +0.000 Cl
ATOM      9  C   UNL     1       1.124   7.999  21.154  0.00  0.00    +0.000 A 
ATOM     10  C   UNL     1       1.825   8.117  19.968  0.00  0.00    +0.000 A 
ATOM     11  C   UNL     1       2.594   7.152  19.190  0.00  0.00    +0.000 C 
ATOM     12  N   UNL     1       3.056   6.012  19.603  0.00  0.00    +0.000 NA
ATOM     13  H   UNL     1       2.384   9.774  17.214  0.00  0.00    +0.000 HD
ENDROOT
BRANCH  12  14
ATOM     14  N   UNL     1       3.914   5.326  18.756  0.00  0.00    +0.000 N 
ATOM     15  C   UNL     1       5.309   5.442  18.823  0.00  0.00    +0.000 C 
ATOM     16  O   UNL     1       5.942   5.968  19.738  0.00  0.00    +0.000 OA
ATOM     17  C   UNL     1       5.957   4.936  17.555  0.00  0.00    +0.000 C 
ATOM     18  S   UNL     1       4.791   3.786  16.804  0.00  0.00    +0.000 S 
ATOM     19  C   UNL     1       3.378   4.469  17.712  0.00  0.00    +0.000 C 
BRANCH  19  20
ATOM     20  C   UNL     1       2.520   3.383  18.268  0.00  0.00    +0.000 A 
ATOM     21  C   UNL     1       2.759   2.233  18.999  0.00  0.00    +0.000 A 
ATOM     22  C   UNL     1       1.493   1.651  19.259  0.00  0.00    +0.000 A 
ATOM     23  C   UNL     1       0.566   2.464  18.652  0.00  0.00    +0.000 A 
ATOM     24  O   UNL     1       1.176   3.512  18.048  0.00  0.00    +0.000 OA
ENDBRANCH  19  20
ENDBRANCH  12  14
TORSDOF 2
ENDMDL
MODEL 9
REMARK VINA RESULT:      -6.0      5.178      8.193
REMARK  Name = 
REMARK  2 active torsions:
REMARK  status: ('A' for Active; 'I' for Inactive)
REMARK    1  A    between atoms: N_12  and  N_13
REMARK    2  A    between atoms: C_18  and  C_19
REMARK                            x       y       z     vdW  Elec       q    Type
REMARK                         _______ _______ _______ _____ _____    ______ ____
ROOT
ATOM      1  O   UNL     1       1.530  12.082  18.643  0.00  0.00    +0.000 OA
ATOM      2  C   UNL     1       1.416  10.870  18.622  0.00  0.00    +0.000 C 
ATOM      3  N   UNL     1       1.835  10.004  17.646  0.00  0.00    +0.000 N 
ATOM      4  C   UNL     1       1.969   8.727  18.173  0.00  0.00    +0.000 A 
ATOM      5  C   UNL     1       2.590   7.660  17.564  0.00  0.00    +0.000 A 
ATOM      6  C   UNL     1       2.821   6.528  18.351  0.00  0.00    +0.000 A 
ATOM      7  C   UNL     1       2.406   6.488  19.696  0.00  0.00    +0.000 A 
ATOM      8 CL   UNL     1       2.822   5.112  20.652  0.00  0.00    +0.000 Cl
ATOM      9  C   UNL     1       1.714   7.550  20.287  0.00  0.00    +0.000 A 
ATOM     10  C   UNL     1       1.513   8.666  19.497  0.00  0.00    +0.000 A 
ATOM     11  C   UNL     1       0.947   9.978  19.788  0.00  0.00    +0.000 C 
ATOM     12  N   UNL     1       0.207  10.296  20.806  0.00  0.00    +0.000 NA
ATOM     13  H   UNL     1       2.231  10.323  16.779  0.00  0.00    +0.000 HD
ENDROOT
BRANCH  12  14
ATOM     14  N   UNL     1      -0.377  11.555  20.803  0.00  0.00    +0.000 N 
ATOM     15  C   UNL     1       0.280  12.705  21.262  0.00  0.00    +0.000 C 
ATOM     16  O   UNL     1       1.482  12.793  21.511  0.00  0.00    +0.000 OA
ATOM     17  C   UNL     1      -0.703  13.820  21.533  0.00  0.00    +0.000 C 
ATOM     18  S   UNL     1      -2.158  13.478  20.528  0.00  0.00    +0.000 S 
ATOM     19  C   UNL     1      -1.748  11.722  20.349  0.00  0.00    +0.000 C 
BRANCH  19  20
ATOM     20  C   UNL     1      -1.926  11.268  18.939  0.00  0.00    +0.000 A 
ATOM     21  C   UNL     1      -2.252  10.066  18.338  0.00  0.00    +0.000 A 
ATOM     22  C   UNL     1      -2.309  10.316  16.944  0.00  0.00    +0.000 A 
ATOM     23  C   UNL     1      -1.991  11.642  16.778  0.00  0.00    +0.000 A 
ATOM     24  O   UNL     1      -1.755  12.227  17.978  0.00  0.00    +0.000 OA
ENDBRANCH  19  20
ENDBRANCH  12  14
TORSDOF 2
ENDMDL
