MODEL 1
REMARK VINA RESULT:      -6.6      0.000      0.000
REMARK  Name = 
REMARK  15 active torsions:
REMARK  status: ('A' for Active; 'I' for Inactive)
REMARK    1  A    between atoms: C_1  and  O_2
REMARK    2  A    between atoms: O_2  and  C_3
REMARK    3  A    between atoms: N_13  and  C_14
REMARK    4  A    between atoms: C_14  and  C_15
REMARK    5  A    between atoms: C_15  and  C_16
REMARK    6  A    between atoms: C_16  and  N_17
REMARK    7  A    between atoms: N_17  and  C_18
REMARK    8  A    between atoms: C_18  and  C_19
REMARK    9  A    between atoms: C_19  and  C_20
REMARK   10  A    between atoms: C_20  and  C_21
REMARK   11  A    between atoms: C_21  and  N_22
REMARK   12  A    between atoms: N_22  and  C_23
REMARK   13  A    between atoms: C_23  and  C_24
REMARK   14  A    between atoms: C_24  and  C_25
REMARK   15  A    between atoms: C_25  and  N_26
REMARK                            x       y       z     vdW  Elec       q    Type
REMARK                         _______ _______ _______ _____ _____    ______ ____
ROOT
ATOM      1  C   UNL     1       7.914   8.857  17.949  0.00  0.00    +0.000 C 
ENDROOT
BRANCH   1  12
ATOM      2  C   UNL     1       9.347  15.807  17.724  0.00  0.00    +0.000 A 
ATOM      3  C   UNL     1       8.055  15.260  17.857  0.00  0.00    +0.000 A 
ATOM      4  C   UNL     1       7.880  13.875  17.936  0.00  0.00    +0.000 A 
ATOM      5  C   UNL     1       8.981  13.009  17.894  0.00  0.00    +0.000 A 
ATOM      6  C   UNL     1      10.282  13.548  17.750  0.00  0.00    +0.000 A 
ATOM      7  C   UNL     1      10.448  14.945  17.669  0.00  0.00    +0.000 A 
ATOM      8  C   UNL     1      11.464  12.633  17.572  0.00  0.00    +0.000 C 
ATOM      9  C   UNL     1      11.780  11.729  18.769  0.00  0.00    +0.000 C 
ATOM     10  C   UNL     1      10.563  11.206  19.537  0.00  0.00    +0.000 C 
ATOM     11  C   UNL     1       9.440  10.744  18.644  0.00  0.00    +0.000 C 
ATOM     12  N   UNL     1       9.045   9.372  18.691  0.00  0.00    +0.000 N 
ATOM     13  N   UNL     1       8.736  11.601  17.966  0.00  0.00    +0.000 NA
ATOM     14  H   UNL     1       9.491   8.750  19.382  0.00  0.00    +0.000 HD
BRANCH   2  16
ATOM     15  C   UNL     1      10.377  17.898  18.443  0.00  0.00    +0.000 C 
ATOM     16  O   UNL     1       9.571  17.144  17.618  0.00  0.00    +0.000 OA
ENDBRANCH   2  16
ENDBRANCH   1  12
BRANCH   1  17
ATOM     17  C   UNL     1       7.899   7.324  18.000  0.00  0.00    +0.000 C 
BRANCH  17  18
ATOM     18  C   UNL     1       6.808   6.748  17.092  0.00  0.00    +0.000 C 
BRANCH  18  19
ATOM     19  N   UNL     1       5.778   6.095  17.905  0.00  0.00    +0.000 NA
ATOM     20  H   UNL     1       4.849   6.232  17.439  0.00  0.00    +0.000 HD
BRANCH  19  21
ATOM     21  C   UNL     1       6.036   4.660  18.032  0.00  0.00    +0.000 C 
BRANCH  21  22
ATOM     22  C   UNL     1       4.737   3.938  18.392  0.00  0.00    +0.000 C 
BRANCH  22  23
ATOM     23  C   UNL     1       3.592   4.372  17.473  0.00  0.00    +0.000 C 
BRANCH  23  24
ATOM     24  C   UNL     1       2.570   3.244  17.315  0.00  0.00    +0.000 C 
BRANCH  24  25
ATOM     25  N   UNL     1       1.321   3.600  17.995  0.00  0.00    +0.000 NA
ATOM     26  H   UNL     1       0.581   3.761  17.271  0.00  0.00    +0.000 HD
BRANCH  25  27
ATOM     27  C   UNL     1       0.889   2.508  18.873  0.00  0.00    +0.000 C 
BRANCH  27  28
ATOM     28  C   UNL     1       1.194   2.854  20.332  0.00  0.00    +0.000 C 
BRANCH  28  29
ATOM     29  C   UNL     1       1.081   4.363  20.571  0.00  0.00    +0.000 C 
BRANCH  29  30
ATOM     30  N   UNL     1       2.367   4.901  21.003  0.00  0.00    +0.000 NA
ATOM     31  H   UNL     1       2.450   5.891  20.674  0.00  0.00    +0.000 HD
ATOM     32  H   UNL     1       3.128   4.346  20.545  0.00  0.00    +0.000 HD
ENDBRANCH  29  30
ENDBRANCH  28  29
ENDBRANCH  27  28
ENDBRANCH  25  27
ENDBRANCH  24  25
ENDBRANCH  23  24
ENDBRANCH  22  23
ENDBRANCH  21  22
ENDBRANCH  19  21
ENDBRANCH  18  19
ENDBRANCH  17  18
ENDBRANCH   1  17
TORSDOF 14
ENDMDL
MODEL 2
REMARK VINA RESULT:      -6.6      6.962     10.373
REMARK  Name = 
REMARK  15 active torsions:
REMARK  status: ('A' for Active; 'I' for Inactive)
REMARK    1  A    between atoms: C_1  and  O_2
REMARK    2  A    between atoms: O_2  and  C_3
REMARK    3  A    between atoms: N_13  and  C_14
REMARK    4  A    between atoms: C_14  and  C_15
REMARK    5  A    between atoms: C_15  and  C_16
REMARK    6  A    between atoms: C_16  and  N_17
REMARK    7  A    between atoms: N_17  and  C_18
REMARK    8  A    between atoms: C_18  and  C_19
REMARK    9  A    between atoms: C_19  and  C_20
REMARK   10  A    between atoms: C_20  and  C_21
REMARK   11  A    between atoms: C_21  and  N_22
REMARK   12  A    between atoms: N_22  and  C_23
REMARK   13  A    between atoms: C_23  and  C_24
REMARK   14  A    between atoms: C_24  and  C_25
REMARK   15  A    between atoms: C_25  and  N_26
REMARK                            x       y       z     vdW  Elec       q    Type
REMARK                         _______ _______ _______ _____ _____    ______ ____
ROOT
ATOM      1  C   UNL     1       1.072   8.563  20.806  0.00  0.00    +0.000 C 
ENDROOT
BRANCH   1  12
ATOM      2  C   UNL     1       4.881   4.595  16.316  0.00  0.00    +0.000 A 
ATOM      3  C   UNL     1       5.184   5.928  16.661  0.00  0.00    +0.000 A 
ATOM      4  C   UNL     1       4.396   6.612  17.590  0.00  0.00    +0.000 A 
ATOM      5  C   UNL     1       3.300   5.987  18.202  0.00  0.00    +0.000 A 
ATOM      6  C   UNL     1       2.981   4.652  17.853  0.00  0.00    +0.000 A 
ATOM      7  C   UNL     1       3.780   3.971  16.914  0.00  0.00    +0.000 A 
ATOM      8  C   UNL     1       1.735   4.006  18.397  0.00  0.00    +0.000 C 
ATOM      9  C   UNL     1       1.712   3.802  19.917  0.00  0.00    +0.000 C 
ATOM     10  C   UNL     1       2.377   4.909  20.739  0.00  0.00    +0.000 C 
ATOM     11  C   UNL     1       2.045   6.299  20.258  0.00  0.00    +0.000 C 
ATOM     12  N   UNL     1       1.346   7.181  21.137  0.00  0.00    +0.000 N 
ATOM     13  N   UNL     1       2.524   6.744  19.135  0.00  0.00    +0.000 NA
ATOM     14  H   UNL     1       1.147   6.869  22.100  0.00  0.00    +0.000 HD
BRANCH   2  16
ATOM     15  C   UNL     1       6.447   4.428  14.453  0.00  0.00    +0.000 C 
ATOM     16  O   UNL     1       5.600   3.893  15.400  0.00  0.00    +0.000 OA
ENDBRANCH   2  16
ENDBRANCH   1  12
BRANCH   1  17
ATOM     17  C   UNL     1      -0.249   9.011  21.443  0.00  0.00    +0.000 C 
BRANCH  17  18
ATOM     18  C   UNL     1      -0.035  10.194  22.392  0.00  0.00    +0.000 C 
BRANCH  18  19
ATOM     19  N   UNL     1       0.590  11.306  21.670  0.00  0.00    +0.000 NA
ATOM     20  H   UNL     1       0.657  11.048  20.656  0.00  0.00    +0.000 HD
BRANCH  19  21
ATOM     21  C   UNL     1      -0.203  12.529  21.795  0.00  0.00    +0.000 C 
BRANCH  21  22
ATOM     22  C   UNL     1      -0.348  13.186  20.422  0.00  0.00    +0.000 C 
BRANCH  22  23
ATOM     23  C   UNL     1      -1.479  12.540  19.618  0.00  0.00    +0.000 C 
BRANCH  23  24
ATOM     24  C   UNL     1      -1.107  12.454  18.136  0.00  0.00    +0.000 C 
BRANCH  24  25
ATOM     25  N   UNL     1      -2.244  11.947  17.362  0.00  0.00    +0.000 NA
ATOM     26  H   UNL     1      -2.050  12.101  16.344  0.00  0.00    +0.000 HD
BRANCH  25  27
ATOM     27  C   UNL     1      -2.422  10.511  17.595  0.00  0.00    +0.000 C 
BRANCH  27  28
ATOM     28  C   UNL     1      -2.780   9.806  16.285  0.00  0.00    +0.000 C 
BRANCH  28  29
ATOM     29  C   UNL     1      -3.158  10.822  15.203  0.00  0.00    +0.000 C 
BRANCH  29  30
ATOM     30  N   UNL     1      -2.893  10.269  13.879  0.00  0.00    +0.000 NA
ATOM     31  H   UNL     1      -2.399   9.352  13.985  0.00  0.00    +0.000 HD
ATOM     32  H   UNL     1      -2.251  10.922  13.370  0.00  0.00    +0.000 HD
ENDBRANCH  29  30
ENDBRANCH  28  29
ENDBRANCH  27  28
ENDBRANCH  25  27
ENDBRANCH  24  25
ENDBRANCH  23  24
ENDBRANCH  22  23
ENDBRANCH  21  22
ENDBRANCH  19  21
ENDBRANCH  18  19
ENDBRANCH  17  18
ENDBRANCH   1  17
TORSDOF 14
ENDMDL
MODEL 3
REMARK VINA RESULT:      -6.6      3.850     10.838
REMARK  Name = 
REMARK  15 active torsions:
REMARK  status: ('A' for Active; 'I' for Inactive)
REMARK    1  A    between atoms: C_1  and  O_2
REMARK    2  A    between atoms: O_2  and  C_3
REMARK    3  A    between atoms: N_13  and  C_14
REMARK    4  A    between atoms: C_14  and  C_15
REMARK    5  A    between atoms: C_15  and  C_16
REMARK    6  A    between atoms: C_16  and  N_17
REMARK    7  A    between atoms: N_17  and  C_18
REMARK    8  A    between atoms: C_18  and  C_19
REMARK    9  A    between atoms: C_19  and  C_20
REMARK   10  A    between atoms: C_20  and  C_21
REMARK   11  A    between atoms: C_21  and  N_22
REMARK   12  A    between atoms: N_22  and  C_23
REMARK   13  A    between atoms: C_23  and  C_24
REMARK   14  A    between atoms: C_24  and  C_25
REMARK   15  A    between atoms: C_25  and  N_26
REMARK                            x       y       z     vdW  Elec       q    Type
REMARK                         _______ _______ _______ _____ _____    ______ ____
ROOT
ATOM      1  C   UNL     1       8.042   8.086  18.027  0.00  0.00    +0.000 C 
ENDROOT
BRANCH   1  12
ATOM      2  C   UNL     1       3.034   3.113  18.806  0.00  0.00    +0.000 A 
ATOM      3  C   UNL     1       3.302   4.133  19.742  0.00  0.00    +0.000 A 
ATOM      4  C   UNL     1       4.281   5.094  19.476  0.00  0.00    +0.000 A 
ATOM      5  C   UNL     1       5.007   5.068  18.277  0.00  0.00    +0.000 A 
ATOM      6  C   UNL     1       4.752   4.041  17.336  0.00  0.00    +0.000 A 
ATOM      7  C   UNL     1       3.765   3.076  17.613  0.00  0.00    +0.000 A 
ATOM      8  C   UNL     1       5.608   3.917  16.103  0.00  0.00    +0.000 C 
ATOM      9  C   UNL     1       5.511   5.087  15.117  0.00  0.00    +0.000 C 
ATOM     10  C   UNL     1       5.345   6.470  15.752  0.00  0.00    +0.000 C 
ATOM     11  C   UNL     1       6.233   6.693  16.951  0.00  0.00    +0.000 C 
ATOM     12  N   UNL     1       7.214   7.729  16.894  0.00  0.00    +0.000 N 
ATOM     13  N   UNL     1       6.005   6.071  18.069  0.00  0.00    +0.000 NA
ATOM     14  H   UNL     1       7.245   8.340  16.065  0.00  0.00    +0.000 HD
BRANCH   2  16
ATOM     15  C   UNL     1       0.746   2.269  18.869  0.00  0.00    +0.000 C 
ATOM     16  O   UNL     1       2.110   2.141  19.026  0.00  0.00    +0.000 OA
ENDBRANCH   2  16
ENDBRANCH   1  12
BRANCH   1  17
ATOM     17  C   UNL     1       8.392   9.578  17.980  0.00  0.00    +0.000 C 
BRANCH  17  18
ATOM     18  C   UNL     1       9.228   9.991  19.196  0.00  0.00    +0.000 C 
BRANCH  18  19
ATOM     19  N   UNL     1       9.951  11.232  18.905  0.00  0.00    +0.000 NA
ATOM     20  H   UNL     1       9.252  12.000  18.766  0.00  0.00    +0.000 HD
BRANCH  19  21
ATOM     21  C   UNL     1      10.842  11.596  20.007  0.00  0.00    +0.000 C 
BRANCH  21  22
ATOM     22  C   UNL     1      10.385  12.923  20.615  0.00  0.00    +0.000 C 
BRANCH  22  23
ATOM     23  C   UNL     1       9.476  12.692  21.824  0.00  0.00    +0.000 C 
BRANCH  23  24
ATOM     24  C   UNL     1       8.165  13.465  21.670  0.00  0.00    +0.000 C 
BRANCH  24  25
ATOM     25  N   UNL     1       8.274  14.425  20.568  0.00  0.00    +0.000 NA
ATOM     26  H   UNL     1       8.735  13.950  19.755  0.00  0.00    +0.000 HD
BRANCH  25  27
ATOM     27  C   UNL     1       6.943  14.880  20.153  0.00  0.00    +0.000 C 
BRANCH  27  28
ATOM     28  C   UNL     1       6.884  15.011  18.629  0.00  0.00    +0.000 C 
BRANCH  28  29
ATOM     29  C   UNL     1       8.243  14.692  18.000  0.00  0.00    +0.000 C 
BRANCH  29  30
ATOM     30  N   UNL     1       8.235  13.344  17.442  0.00  0.00    +0.000 NA
ATOM     31  H   UNL     1       9.220  12.997  17.371  0.00  0.00    +0.000 HD
ATOM     32  H   UNL     1       7.841  13.389  16.472  0.00  0.00    +0.000 HD
ENDBRANCH  29  30
ENDBRANCH  28  29
ENDBRANCH  27  28
ENDBRANCH  25  27
ENDBRANCH  24  25
ENDBRANCH  23  24
ENDBRANCH  22  23
ENDBRANCH  21  22
ENDBRANCH  19  21
ENDBRANCH  18  19
ENDBRANCH  17  18
ENDBRANCH   1  17
TORSDOF 14
ENDMDL
MODEL 4
REMARK VINA RESULT:      -6.5      6.846     10.453
REMARK  Name = 
REMARK  15 active torsions:
REMARK  status: ('A' for Active; 'I' for Inactive)
REMARK    1  A    between atoms: C_1  and  O_2
REMARK    2  A    between atoms: O_2  and  C_3
REMARK    3  A    between atoms: N_13  and  C_14
REMARK    4  A    between atoms: C_14  and  C_15
REMARK    5  A    between atoms: C_15  and  C_16
REMARK    6  A    between atoms: C_16  and  N_17
REMARK    7  A    between atoms: N_17  and  C_18
REMARK    8  A    between atoms: C_18  and  C_19
REMARK    9  A    between atoms: C_19  and  C_20
REMARK   10  A    between atoms: C_20  and  C_21
REMARK   11  A    between atoms: C_21  and  N_22
REMARK   12  A    between atoms: N_22  and  C_23
REMARK   13  A    between atoms: C_23  and  C_24
REMARK   14  A    between atoms: C_24  and  C_25
REMARK   15  A    between atoms: C_25  and  N_26
REMARK                            x       y       z     vdW  Elec       q    Type
REMARK                         _______ _______ _______ _____ _____    ______ ____
ROOT
ATOM      1  C   UNL     1       1.603   8.519  20.915  0.00  0.00    +0.000 C 
ENDROOT
BRANCH   1  12
ATOM      2  C   UNL     1       5.363   4.380  16.540  0.00  0.00    +0.000 A 
ATOM      3  C   UNL     1       5.880   5.499  17.225  0.00  0.00    +0.000 A 
ATOM      4  C   UNL     1       5.068   6.225  18.101  0.00  0.00    +0.000 A 
ATOM      5  C   UNL     1       3.735   5.854  18.321  0.00  0.00    +0.000 A 
ATOM      6  C   UNL     1       3.204   4.738  17.629  0.00  0.00    +0.000 A 
ATOM      7  C   UNL     1       4.029   4.013  16.747  0.00  0.00    +0.000 A 
ATOM      8  C   UNL     1       1.742   4.400  17.750  0.00  0.00    +0.000 C 
ATOM      9  C   UNL     1       1.280   3.975  19.149  0.00  0.00    +0.000 C 
ATOM     10  C   UNL     1       1.958   4.702  20.314  0.00  0.00    +0.000 C 
ATOM     11  C   UNL     1       2.107   6.186  20.094  0.00  0.00    +0.000 C 
ATOM     12  N   UNL     1       1.440   7.082  20.983  0.00  0.00    +0.000 N 
ATOM     13  N   UNL     1       2.952   6.645  19.219  0.00  0.00    +0.000 NA
ATOM     14  H   UNL     1       0.931   6.693  21.791  0.00  0.00    +0.000 HD
BRANCH   2  16
ATOM     15  C   UNL     1       6.169   3.858  14.298  0.00  0.00    +0.000 C 
ATOM     16  O   UNL     1       6.102   3.654  15.660  0.00  0.00    +0.000 OA
ENDBRANCH   2  16
ENDBRANCH   1  12
BRANCH   1  17
ATOM     17  C   UNL     1       0.550   9.130  19.983  0.00  0.00    +0.000 C 
BRANCH  17  18
ATOM     18  C   UNL     1       1.203   9.794  18.767  0.00  0.00    +0.000 C 
BRANCH  18  19
ATOM     19  N   UNL     1       0.197  10.540  18.006  0.00  0.00    +0.000 NA
ATOM     20  H   UNL     1       0.334  10.340  16.987  0.00  0.00    +0.000 HD
BRANCH  19  21
ATOM     21  C   UNL     1      -1.158  10.139  18.388  0.00  0.00    +0.000 C 
BRANCH  21  22
ATOM     22  C   UNL     1      -1.998   9.917  17.129  0.00  0.00    +0.000 C 
BRANCH  22  23
ATOM     23  C   UNL     1      -2.922  11.107  16.866  0.00  0.00    +0.000 C 
BRANCH  23  24
ATOM     24  C   UNL     1      -4.028  11.176  17.921  0.00  0.00    +0.000 C 
BRANCH  24  25
ATOM     25  N   UNL     1      -4.967  12.253  17.594  0.00  0.00    +0.000 NA
ATOM     26  H   UNL     1      -5.342  12.088  16.629  0.00  0.00    +0.000 HD
BRANCH  25  27
ATOM     27  C   UNL     1      -6.088  12.257  18.539  0.00  0.00    +0.000 C 
BRANCH  27  28
ATOM     28  C   UNL     1      -6.791  10.898  18.528  0.00  0.00    +0.000 C 
BRANCH  28  29
ATOM     29  C   UNL     1      -7.088  10.423  19.953  0.00  0.00    +0.000 C 
BRANCH  29  30
ATOM     30  N   UNL     1      -6.700  11.449  20.916  0.00  0.00    +0.000 NA
ATOM     31  H   UNL     1      -5.926  11.079  21.515  0.00  0.00    +0.000 HD
ATOM     32  H   UNL     1      -7.519  11.648  21.537  0.00  0.00    +0.000 HD
ENDBRANCH  29  30
ENDBRANCH  28  29
ENDBRANCH  27  28
ENDBRANCH  25  27
ENDBRANCH  24  25
ENDBRANCH  23  24
ENDBRANCH  22  23
ENDBRANCH  21  22
ENDBRANCH  19  21
ENDBRANCH  18  19
ENDBRANCH  17  18
ENDBRANCH   1  17
TORSDOF 14
ENDMDL
MODEL 5
REMARK VINA RESULT:      -6.5      1.102      1.340
REMARK  Name = 
REMARK  15 active torsions:
REMARK  status: ('A' for Active; 'I' for Inactive)
REMARK    1  A    between atoms: C_1  and  O_2
REMARK    2  A    between atoms: O_2  and  C_3
REMARK    3  A    between atoms: N_13  and  C_14
REMARK    4  A    between atoms: C_14  and  C_15
REMARK    5  A    between atoms: C_15  and  C_16
REMARK    6  A    between atoms: C_16  and  N_17
REMARK    7  A    between atoms: N_17  and  C_18
REMARK    8  A    between atoms: C_18  and  C_19
REMARK    9  A    between atoms: C_19  and  C_20
REMARK   10  A    between atoms: C_20  and  C_21
REMARK   11  A    between atoms: C_21  and  N_22
REMARK   12  A    between atoms: N_22  and  C_23
REMARK   13  A    between atoms: C_23  and  C_24
REMARK   14  A    between atoms: C_24  and  C_25
REMARK   15  A    between atoms: C_25  and  N_26
REMARK                            x       y       z     vdW  Elec       q    Type
REMARK                         _______ _______ _______ _____ _____    ______ ____
ROOT
ATOM      1  C   UNL     1       7.686   8.558  17.435  0.00  0.00    +0.000 C 
ENDROOT
BRANCH   1  12
ATOM      2  C   UNL     1       9.069  15.511  17.831  0.00  0.00    +0.000 A 
ATOM      3  C   UNL     1       7.782  14.958  17.668  0.00  0.00    +0.000 A 
ATOM      4  C   UNL     1       7.608  13.572  17.646  0.00  0.00    +0.000 A 
ATOM      5  C   UNL     1       8.701  12.708  17.793  0.00  0.00    +0.000 A 
ATOM      6  C   UNL     1      10.000  13.253  17.947  0.00  0.00    +0.000 A 
ATOM      7  C   UNL     1      10.165  14.652  17.966  0.00  0.00    +0.000 A 
ATOM      8  C   UNL     1      11.201  12.347  17.975  0.00  0.00    +0.000 C 
ATOM      9  C   UNL     1      11.271  11.388  19.169  0.00  0.00    +0.000 C 
ATOM     10  C   UNL     1       9.927  10.830  19.643  0.00  0.00    +0.000 C 
ATOM     11  C   UNL     1       9.017  10.410  18.517  0.00  0.00    +0.000 C 
ATOM     12  N   UNL     1       8.634   9.038  18.418  0.00  0.00    +0.000 N 
ATOM     13  N   UNL     1       8.461  11.299  17.748  0.00  0.00    +0.000 NA
ATOM     14  H   UNL     1       8.933   8.384  19.157  0.00  0.00    +0.000 HD
BRANCH   2  16
ATOM     15  C   UNL     1       8.600  17.789  18.567  0.00  0.00    +0.000 C 
ATOM     16  O   UNL     1       9.296  16.851  17.835  0.00  0.00    +0.000 OA
ENDBRANCH   2  16
ENDBRANCH   1  12
BRANCH   1  17
ATOM     17  C   UNL     1       7.628   7.026  17.457  0.00  0.00    +0.000 C 
BRANCH  17  18
ATOM     18  C   UNL     1       7.887   6.481  18.866  0.00  0.00    +0.000 C 
BRANCH  18  19
ATOM     19  N   UNL     1       6.779   5.614  19.275  0.00  0.00    +0.000 NA
ATOM     20  H   UNL     1       5.944   6.213  19.479  0.00  0.00    +0.000 HD
BRANCH  19  21
ATOM     21  C   UNL     1       6.431   4.664  18.217  0.00  0.00    +0.000 C 
BRANCH  21  22
ATOM     22  C   UNL     1       4.913   4.486  18.170  0.00  0.00    +0.000 C 
BRANCH  22  23
ATOM     23  C   UNL     1       4.209   5.824  17.933  0.00  0.00    +0.000 C 
BRANCH  23  24
ATOM     24  C   UNL     1       2.842   5.844  18.621  0.00  0.00    +0.000 C 
BRANCH  24  25
ATOM     25  N   UNL     1       2.727   4.709  19.541  0.00  0.00    +0.000 NA
ATOM     26  H   UNL     1       3.202   4.959  20.441  0.00  0.00    +0.000 HD
BRANCH  25  27
ATOM     27  C   UNL     1       1.316   4.419  19.820  0.00  0.00    +0.000 C 
BRANCH  27  28
ATOM     28  C   UNL     1       1.139   2.934  20.145  0.00  0.00    +0.000 C 
BRANCH  28  29
ATOM     29  C   UNL     1       1.343   2.673  21.640  0.00  0.00    +0.000 C 
BRANCH  29  30
ATOM     30  N   UNL     1       2.758   2.467  21.926  0.00  0.00    +0.000 NA
ATOM     31  H   UNL     1       3.173   3.367  22.262  0.00  0.00    +0.000 HD
ATOM     32  H   UNL     1       3.241   2.205  21.034  0.00  0.00    +0.000 HD
ENDBRANCH  29  30
ENDBRANCH  28  29
ENDBRANCH  27  28
ENDBRANCH  25  27
ENDBRANCH  24  25
ENDBRANCH  23  24
ENDBRANCH  22  23
ENDBRANCH  21  22
ENDBRANCH  19  21
ENDBRANCH  18  19
ENDBRANCH  17  18
ENDBRANCH   1  17
TORSDOF 14
ENDMDL
MODEL 6
REMARK VINA RESULT:      -6.3      7.145      9.695
REMARK  Name = 
REMARK  15 active torsions:
REMARK  status: ('A' for Active; 'I' for Inactive)
REMARK    1  A    between atoms: C_1  and  O_2
REMARK    2  A    between atoms: O_2  and  C_3
REMARK    3  A    between atoms: N_13  and  C_14
REMARK    4  A    between atoms: C_14  and  C_15
REMARK    5  A    between atoms: C_15  and  C_16
REMARK    6  A    between atoms: C_16  and  N_17
REMARK    7  A    between atoms: N_17  and  C_18
REMARK    8  A    between atoms: C_18  and  C_19
REMARK    9  A    between atoms: C_19  and  C_20
REMARK   10  A    between atoms: C_20  and  C_21
REMARK   11  A    between atoms: C_21  and  N_22
REMARK   12  A    between atoms: N_22  and  C_23
REMARK   13  A    between atoms: C_23  and  C_24
REMARK   14  A    between atoms: C_24  and  C_25
REMARK   15  A    between atoms: C_25  and  N_26
REMARK                            x       y       z     vdW  Elec       q    Type
REMARK                         _______ _______ _______ _____ _____    ______ ____
ROOT
ATOM      1  C   UNL     1       2.244   8.628  18.171  0.00  0.00    +0.000 C 
ENDROOT
BRANCH   1  12
ATOM      2  C   UNL     1      -4.251  11.488  17.937  0.00  0.00    +0.000 A 
ATOM      3  C   UNL     1      -3.853  10.344  17.215  0.00  0.00    +0.000 A 
ATOM      4  C   UNL     1      -2.562   9.831  17.363  0.00  0.00    +0.000 A 
ATOM      5  C   UNL     1      -1.644  10.435  18.234  0.00  0.00    +0.000 A 
ATOM      6  C   UNL     1      -2.030  11.591  18.955  0.00  0.00    +0.000 A 
ATOM      7  C   UNL     1      -3.334  12.102  18.797  0.00  0.00    +0.000 A 
ATOM      8  C   UNL     1      -1.022  12.331  19.792  0.00  0.00    +0.000 C 
ATOM      9  C   UNL     1      -0.469  11.552  20.993  0.00  0.00    +0.000 C 
ATOM     10  C   UNL     1      -0.267  10.052  20.765  0.00  0.00    +0.000 C 
ATOM     11  C   UNL     1       0.348   9.721  19.429  0.00  0.00    +0.000 C 
ATOM     12  N   UNL     1       1.621   9.075  19.399  0.00  0.00    +0.000 N 
ATOM     13  N   UNL     1      -0.333   9.871  18.331  0.00  0.00    +0.000 NA
ATOM     14  H   UNL     1       2.054   8.790  20.290  0.00  0.00    +0.000 HD
BRANCH   2  16
ATOM     15  C   UNL     1      -6.682  11.436  18.134  0.00  0.00    +0.000 C 
ATOM     16  O   UNL     1      -5.486  12.041  17.812  0.00  0.00    +0.000 OA
ENDBRANCH   2  16
ENDBRANCH   1  12
BRANCH   1  17
ATOM     17  C   UNL     1       2.280   7.096  18.122  0.00  0.00    +0.000 C 
BRANCH  17  18
ATOM     18  C   UNL     1       2.995   6.518  19.347  0.00  0.00    +0.000 C 
BRANCH  18  19
ATOM     19  N   UNL     1       2.043   6.358  20.450  0.00  0.00    +0.000 NA
ATOM     20  H   UNL     1       1.267   7.051  20.323  0.00  0.00    +0.000 HD
BRANCH  19  21
ATOM     21  C   UNL     1       1.475   5.010  20.467  0.00  0.00    +0.000 C 
BRANCH  21  22
ATOM     22  C   UNL     1       2.539   4.014  20.931  0.00  0.00    +0.000 C 
BRANCH  22  23
ATOM     23  C   UNL     1       2.674   2.852  19.944  0.00  0.00    +0.000 C 
BRANCH  23  24
ATOM     24  C   UNL     1       4.146   2.502  19.720  0.00  0.00    +0.000 C 
BRANCH  24  25
ATOM     25  N   UNL     1       4.517   2.762  18.326  0.00  0.00    +0.000 NA
ATOM     26  H   UNL     1       3.641   2.834  17.755  0.00  0.00    +0.000 HD
BRANCH  25  27
ATOM     27  C   UNL     1       5.252   4.026  18.220  0.00  0.00    +0.000 C 
BRANCH  27  28
ATOM     28  C   UNL     1       5.279   4.498  16.764  0.00  0.00    +0.000 C 
BRANCH  28  29
ATOM     29  C   UNL     1       6.678   4.336  16.163  0.00  0.00    +0.000 C 
BRANCH  29  30
ATOM     30  N   UNL     1       7.694   4.574  17.182  0.00  0.00    +0.000 NA
ATOM     31  H   UNL     1       7.484   3.980  18.018  0.00  0.00    +0.000 HD
ATOM     32  H   UNL     1       7.637   5.577  17.479  0.00  0.00    +0.000 HD
ENDBRANCH  29  30
ENDBRANCH  28  29
ENDBRANCH  27  28
ENDBRANCH  25  27
ENDBRANCH  24  25
ENDBRANCH  23  24
ENDBRANCH  22  23
ENDBRANCH  21  22
ENDBRANCH  19  21
ENDBRANCH  18  19
ENDBRANCH  17  18
ENDBRANCH   1  17
TORSDOF 14
ENDMDL
MODEL 7
REMARK VINA RESULT:      -6.3      1.163      1.533
REMARK  Name = 
REMARK  15 active torsions:
REMARK  status: ('A' for Active; 'I' for Inactive)
REMARK    1  A    between atoms: C_1  and  O_2
REMARK    2  A    between atoms: O_2  and  C_3
REMARK    3  A    between atoms: N_13  and  C_14
REMARK    4  A    between atoms: C_14  and  C_15
REMARK    5  A    between atoms: C_15  and  C_16
REMARK    6  A    between atoms: C_16  and  N_17
REMARK    7  A    between atoms: N_17  and  C_18
REMARK    8  A    between atoms: C_18  and  C_19
REMARK    9  A    between atoms: C_19  and  C_20
REMARK   10  A    between atoms: C_20  and  C_21
REMARK   11  A    between atoms: C_21  and  N_22
REMARK   12  A    between atoms: N_22  and  C_23
REMARK   13  A    between atoms: C_23  and  C_24
REMARK   14  A    between atoms: C_24  and  C_25
REMARK   15  A    between atoms: C_25  and  N_26
REMARK                            x       y       z     vdW  Elec       q    Type
REMARK                         _______ _______ _______ _____ _____    ______ ____
ROOT
ATOM      1  C   UNL     1       7.789   9.232  17.738  0.00  0.00    +0.000 C 
ENDROOT
BRANCH   1  12
ATOM      2  C   UNL     1      10.031  15.947  18.284  0.00  0.00    +0.000 A 
ATOM      3  C   UNL     1       8.677  15.556  18.233  0.00  0.00    +0.000 A 
ATOM      4  C   UNL     1       8.336  14.202  18.170  0.00  0.00    +0.000 A 
ATOM      5  C   UNL     1       9.327  13.211  18.165  0.00  0.00    +0.000 A 
ATOM      6  C   UNL     1      10.690  13.594  18.204  0.00  0.00    +0.000 A 
ATOM      7  C   UNL     1      11.024  14.961  18.266  0.00  0.00    +0.000 A 
ATOM      8  C   UNL     1      11.770  12.555  18.068  0.00  0.00    +0.000 C 
ATOM      9  C   UNL     1      11.843  11.530  19.206  0.00  0.00    +0.000 C 
ATOM     10  C   UNL     1      10.495  11.106  19.794  0.00  0.00    +0.000 C 
ATOM     11  C   UNL     1       9.433  10.856  18.752  0.00  0.00    +0.000 C 
ATOM     12  N   UNL     1       8.880   9.545  18.636  0.00  0.00    +0.000 N 
ATOM     13  N   UNL     1       8.915  11.844  18.085  0.00  0.00    +0.000 NA
ATOM     14  H   UNL     1       9.170   8.821  19.311  0.00  0.00    +0.000 HD
BRANCH   2  16
ATOM     15  C   UNL     1      10.340  18.148  17.278  0.00  0.00    +0.000 C 
ATOM     16  O   UNL     1      10.417  17.250  18.321  0.00  0.00    +0.000 OA
ENDBRANCH   2  16
ENDBRANCH   1  12
BRANCH   1  17
ATOM     17  C   UNL     1       7.739   7.724  17.468  0.00  0.00    +0.000 C 
BRANCH  17  18
ATOM     18  C   UNL     1       8.139   6.923  18.712  0.00  0.00    +0.000 C 
BRANCH  18  19
ATOM     19  N   UNL     1       7.521   5.595  18.669  0.00  0.00    +0.000 NA
ATOM     20  H   UNL     1       6.758   5.560  19.386  0.00  0.00    +0.000 HD
BRANCH  19  21
ATOM     21  C   UNL     1       6.945   5.322  17.352  0.00  0.00    +0.000 C 
BRANCH  21  22
ATOM     22  C   UNL     1       5.581   4.651  17.521  0.00  0.00    +0.000 C 
BRANCH  22  23
ATOM     23  C   UNL     1       4.733   5.379  18.565  0.00  0.00    +0.000 C 
BRANCH  23  24
ATOM     24  C   UNL     1       3.399   5.825  17.963  0.00  0.00    +0.000 C 
BRANCH  24  25
ATOM     25  N   UNL     1       2.418   4.740  18.059  0.00  0.00    +0.000 NA
ATOM     26  H   UNL     1       2.668   4.001  17.359  0.00  0.00    +0.000 HD
BRANCH  25  27
ATOM     27  C   UNL     1       2.443   4.146  19.399  0.00  0.00    +0.000 C 
BRANCH  27  28
ATOM     28  C   UNL     1       1.072   3.557  19.739  0.00  0.00    +0.000 C 
BRANCH  28  29
ATOM     29  C   UNL     1       0.749   2.364  18.835  0.00  0.00    +0.000 C 
BRANCH  29  30
ATOM     30  N   UNL     1       1.982   1.740  18.367  0.00  0.00    +0.000 NA
ATOM     31  H   UNL     1       1.885   1.513  17.350  0.00  0.00    +0.000 HD
ATOM     32  H   UNL     1       2.115   0.840  18.885  0.00  0.00    +0.000 HD
ENDBRANCH  29  30
ENDBRANCH  28  29
ENDBRANCH  27  28
ENDBRANCH  25  27
ENDBRANCH  24  25
ENDBRANCH  23  24
ENDBRANCH  22  23
ENDBRANCH  21  22
ENDBRANCH  19  21
ENDBRANCH  18  19
ENDBRANCH  17  18
ENDBRANCH   1  17
TORSDOF 14
ENDMDL
MODEL 8
REMARK VINA RESULT:      -6.2      5.360      8.257
REMARK  Name = 
REMARK  15 active torsions:
REMARK  status: ('A' for Active; 'I' for Inactive)
REMARK    1  A    between atoms: C_1  and  O_2
REMARK    2  A    between atoms: O_2  and  C_3
REMARK    3  A    between atoms: N_13  and  C_14
REMARK    4  A    between atoms: C_14  and  C_15
REMARK    5  A    between atoms: C_15  and  C_16
REMARK    6  A    between atoms: C_16  and  N_17
REMARK    7  A    between atoms: N_17  and  C_18
REMARK    8  A    between atoms: C_18  and  C_19
REMARK    9  A    between atoms: C_19  and  C_20
REMARK   10  A    between atoms: C_20  and  C_21
REMARK   11  A    between atoms: C_21  and  N_22
REMARK   12  A    between atoms: N_22  and  C_23
REMARK   13  A    between atoms: C_23  and  C_24
REMARK   14  A    between atoms: C_24  and  C_25
REMARK   15  A    between atoms: C_25  and  N_26
REMARK                            x       y       z     vdW  Elec       q    Type
REMARK                         _______ _______ _______ _____ _____    ______ ____
ROOT
ATOM      1  C   UNL     1       1.286   4.134  20.456  0.00  0.00    +0.000 C 
ENDROOT
BRANCH   1  12
ATOM      2  C   UNL     1       0.678  11.165  21.235  0.00  0.00    +0.000 A 
ATOM      3  C   UNL     1       0.622  10.234  22.293  0.00  0.00    +0.000 A 
ATOM      4  C   UNL     1       0.797   8.871  22.042  0.00  0.00    +0.000 A 
ATOM      5  C   UNL     1       1.040   8.405  20.742  0.00  0.00    +0.000 A 
ATOM      6  C   UNL     1       1.087   9.331  19.672  0.00  0.00    +0.000 A 
ATOM      7  C   UNL     1       0.907  10.703  19.934  0.00  0.00    +0.000 A 
ATOM      8  C   UNL     1       1.214   8.841  18.254  0.00  0.00    +0.000 C 
ATOM      9  C   UNL     1       2.529   8.123  17.924  0.00  0.00    +0.000 C 
ATOM     10  C   UNL     1       3.106   7.259  19.048  0.00  0.00    +0.000 C 
ATOM     11  C   UNL     1       2.069   6.432  19.766  0.00  0.00    +0.000 C 
ATOM     12  N   UNL     1       2.171   5.009  19.716  0.00  0.00    +0.000 N 
ATOM     13  N   UNL     1       1.197   6.996  20.547  0.00  0.00    +0.000 NA
ATOM     14  H   UNL     1       2.987   4.585  19.250  0.00  0.00    +0.000 HD
BRANCH   2  16
ATOM     15  C   UNL     1      -0.162  13.353  20.558  0.00  0.00    +0.000 C 
ATOM     16  O   UNL     1       0.491  12.498  21.421  0.00  0.00    +0.000 OA
ENDBRANCH   2  16
ENDBRANCH   1  12
BRANCH   1  17
ATOM     17  C   UNL     1       1.778   2.685  20.369  0.00  0.00    +0.000 C 
BRANCH  17  18
ATOM     18  C   UNL     1       3.295   2.624  20.161  0.00  0.00    +0.000 C 
BRANCH  18  19
ATOM     19  N   UNL     1       3.597   1.940  18.901  0.00  0.00    +0.000 NA
ATOM     20  H   UNL     1       3.647   0.909  19.085  0.00  0.00    +0.000 HD
BRANCH  19  21
ATOM     21  C   UNL     1       2.559   2.191  17.900  0.00  0.00    +0.000 C 
BRANCH  21  22
ATOM     22  C   UNL     1       2.955   3.395  17.046  0.00  0.00    +0.000 C 
BRANCH  22  23
ATOM     23  C   UNL     1       4.454   3.383  16.737  0.00  0.00    +0.000 C 
BRANCH  23  24
ATOM     24  C   UNL     1       5.139   4.610  17.342  0.00  0.00    +0.000 C 
BRANCH  24  25
ATOM     25  N   UNL     1       5.948   4.214  18.499  0.00  0.00    +0.000 NA
ATOM     26  H   UNL     1       6.812   3.732  18.154  0.00  0.00    +0.000 HD
BRANCH  25  27
ATOM     27  C   UNL     1       6.346   5.395  19.272  0.00  0.00    +0.000 C 
BRANCH  27  28
ATOM     28  C   UNL     1       7.808   5.745  18.982  0.00  0.00    +0.000 C 
BRANCH  28  29
ATOM     29  C   UNL     1       7.911   7.055  18.195  0.00  0.00    +0.000 C 
BRANCH  29  30
ATOM     30  N   UNL     1       7.588   6.825  16.791  0.00  0.00    +0.000 NA
ATOM     31  H   UNL     1       7.677   7.727  16.268  0.00  0.00    +0.000 HD
ATOM     32  H   UNL     1       6.589   6.515  16.728  0.00  0.00    +0.000 HD
ENDBRANCH  29  30
ENDBRANCH  28  29
ENDBRANCH  27  28
ENDBRANCH  25  27
ENDBRANCH  24  25
ENDBRANCH  23  24
ENDBRANCH  22  23
ENDBRANCH  21  22
ENDBRANCH  19  21
ENDBRANCH  18  19
ENDBRANCH  17  18
ENDBRANCH   1  17
TORSDOF 14
ENDMDL
MODEL 9
REMARK VINA RESULT:      -6.2      5.991      7.976
REMARK  Name = 
REMARK  15 active torsions:
REMARK  status: ('A' for Active; 'I' for Inactive)
REMARK    1  A    between atoms: C_1  and  O_2
REMARK    2  A    between atoms: O_2  and  C_3
REMARK    3  A    between atoms: N_13  and  C_14
REMARK    4  A    between atoms: C_14  and  C_15
REMARK    5  A    between atoms: C_15  and  C_16
REMARK    6  A    between atoms: C_16  and  N_17
REMARK    7  A    between atoms: N_17  and  C_18
REMARK    8  A    between atoms: C_18  and  C_19
REMARK    9  A    between atoms: C_19  and  C_20
REMARK   10  A    between atoms: C_20  and  C_21
REMARK   11  A    between atoms: C_21  and  N_22
REMARK   12  A    between atoms: N_22  and  C_23
REMARK   13  A    between atoms: C_23  and  C_24
REMARK   14  A    between atoms: C_24  and  C_25
REMARK   15  A    between atoms: C_25  and  N_26
REMARK                            x       y       z     vdW  Elec       q    Type
REMARK                         _______ _______ _______ _____ _____    ______ ____
ROOT
ATOM      1  C   UNL     1       1.906   4.939  21.026  0.00  0.00    +0.000 C 
ENDROOT
BRANCH   1  12
ATOM      2  C   UNL     1       0.406  11.819  20.113  0.00  0.00    +0.000 A 
ATOM      3  C   UNL     1       0.561  11.193  21.367  0.00  0.00    +0.000 A 
ATOM      4  C   UNL     1       0.901   9.839  21.441  0.00  0.00    +0.000 A 
ATOM      5  C   UNL     1       1.101   9.083  20.278  0.00  0.00    +0.000 A 
ATOM      6  C   UNL     1       0.937   9.701  19.014  0.00  0.00    +0.000 A 
ATOM      7  C   UNL     1       0.592  11.065  18.949  0.00  0.00    +0.000 A 
ATOM      8  C   UNL     1       1.018   8.879  17.756  0.00  0.00    +0.000 C 
ATOM      9  C   UNL     1       2.388   8.253  17.468  0.00  0.00    +0.000 C 
ATOM     10  C   UNL     1       3.165   7.779  18.700  0.00  0.00    +0.000 C 
ATOM     11  C   UNL     1       2.311   7.055  19.709  0.00  0.00    +0.000 C 
ATOM     12  N   UNL     1       2.602   5.688  20.001  0.00  0.00    +0.000 N 
ATOM     13  N   UNL     1       1.434   7.699  20.420  0.00  0.00    +0.000 NA
ATOM     14  H   UNL     1       3.430   5.252  19.566  0.00  0.00    +0.000 HD
BRANCH   2  16
ATOM     15  C   UNL     1       0.919  14.190  19.855  0.00  0.00    +0.000 C 
ATOM     16  O   UNL     1       0.053  13.125  19.985  0.00  0.00    +0.000 OA
ENDBRANCH   2  16
ENDBRANCH   1  12
BRANCH   1  17
ATOM     17  C   UNL     1       0.915   3.959  20.387  0.00  0.00    +0.000 C 
BRANCH  17  18
ATOM     18  C   UNL     1       1.488   2.539  20.344  0.00  0.00    +0.000 C 
BRANCH  18  19
ATOM     19  N   UNL     1       2.941   2.594  20.165  0.00  0.00    +0.000 NA
ATOM     20  H   UNL     1       3.395   2.118  20.980  0.00  0.00    +0.000 HD
BRANCH  19  21
ATOM     21  C   UNL     1       3.348   1.915  18.934  0.00  0.00    +0.000 C 
BRANCH  21  22
ATOM     22  C   UNL     1       2.391   2.294  17.803  0.00  0.00    +0.000 C 
BRANCH  22  23
ATOM     23  C   UNL     1       2.817   3.604  17.136  0.00  0.00    +0.000 C 
BRANCH  23  24
ATOM     24  C   UNL     1       4.341   3.685  17.028  0.00  0.00    +0.000 C 
BRANCH  24  25
ATOM     25  N   UNL     1       4.833   4.871  17.736  0.00  0.00    +0.000 NA
ATOM     26  H   UNL     1       4.108   5.169  18.431  0.00  0.00    +0.000 HD
BRANCH  25  27
ATOM     27  C   UNL     1       6.072   4.560  18.454  0.00  0.00    +0.000 C 
BRANCH  27  28
ATOM     28  C   UNL     1       7.283   4.861  17.568  0.00  0.00    +0.000 C 
BRANCH  28  29
ATOM     29  C   UNL     1       6.901   5.803  16.422  0.00  0.00    +0.000 C 
BRANCH  29  30
ATOM     30  N   UNL     1       7.599   5.417  15.200  0.00  0.00    +0.000 NA
ATOM     31  H   UNL     1       8.469   4.894  15.455  0.00  0.00    +0.000 HD
ATOM     32  H   UNL     1       7.886   6.287  14.693  0.00  0.00    +0.000 HD
ENDBRANCH  29  30
ENDBRANCH  28  29
ENDBRANCH  27  28
ENDBRANCH  25  27
ENDBRANCH  24  25
ENDBRANCH  23  24
ENDBRANCH  22  23
ENDBRANCH  21  22
ENDBRANCH  19  21
ENDBRANCH  18  19
ENDBRANCH  17  18
ENDBRANCH   1  17
TORSDOF 14
ENDMDL
