MODEL 1
REMARK VINA RESULT:      -8.3      0.000      0.000
REMARK  Name = 
REMARK  7 active torsions:
REMARK  status: ('A' for Active; 'I' for Inactive)
REMARK    1  A    between atoms: C_1  and  C_2
REMARK    2  A    between atoms: C_4  and  S_5
REMARK    3  A    between atoms: S_5  and  N_8
REMARK    4  A    between atoms: C_16  and  O_17
REMARK    5  A    between atoms: O_17  and  C_18
REMARK    6  A    between atoms: C_18  and  C_19
REMARK    7  A    between atoms: N_21  and  C_22
REMARK                            x       y       z     vdW  Elec       q    Type
REMARK                         _______ _______ _______ _____ _____    ______ ____
ROOT
ATOM      1  C   UNL     1       1.875   9.754  17.909  0.00  0.00    +0.000 C 
ATOM      2  C   UNL     1       2.107   8.481  18.680  0.00  0.00    +0.000 A 
ATOM      3  C   UNL     1       2.886   7.466  18.102  0.00  0.00    +0.000 A 
ATOM      4  C   UNL     1       3.140   6.276  18.799  0.00  0.00    +0.000 A 
ATOM      5  C   UNL     1       2.623   6.084  20.076  0.00  0.00    +0.000 A 
ATOM      6  C   UNL     1       1.836   7.072  20.652  0.00  0.00    +0.000 A 
ATOM      7  C   UNL     1       1.587   8.277  19.975  0.00  0.00    +0.000 A 
ENDROOT
BRANCH   4   8
ATOM      8  S   UNL     1       4.140   5.013  18.068  0.00  0.00    +0.000 S 
ATOM      9  O   UNL     1       4.761   4.290  19.157  0.00  0.00    +0.000 OA
ATOM     10  O   UNL     1       3.342   4.325  17.078  0.00  0.00    +0.000 OA
BRANCH   8  11
ATOM     11  N   UNL     1       5.356   5.872  17.245  0.00  0.00    +0.000 NA
ATOM     12  C   UNL     1       5.650   5.500  15.829  0.00  0.00    +0.000 C 
ATOM     13  C   UNL     1       6.584   4.288  15.726  0.00  0.00    +0.000 C 
ATOM     14  O   UNL     1       7.793   4.477  16.472  0.00  0.00    +0.000 OA
ATOM     15  C   UNL     1       7.536   4.783  17.849  0.00  0.00    +0.000 C 
ATOM     16  C   UNL     1       6.640   6.017  18.001  0.00  0.00    +0.000 C 
ENDBRANCH   8  11
ENDBRANCH   4   8
BRANCH   7  17
ATOM     17  O   UNL     1       0.845   9.286  20.531  0.00  0.00    +0.000 OA
BRANCH  17  18
ATOM     18  C   UNL     1      -0.137   8.845  21.479  0.00  0.00    +0.000 C 
BRANCH  18  19
ATOM     19  C   UNL     1      -0.382   9.913  22.529  0.00  0.00    +0.000 C 
ATOM     20  O   UNL     1       0.252   9.919  23.582  0.00  0.00    +0.000 OA
ATOM     21  N   UNL     1      -1.316  10.832  22.115  0.00  0.00    +0.000 N 
ATOM     22  H   UNL     1      -1.846  10.579  21.283  0.00  0.00    +0.000 HD
BRANCH  21  23
ATOM     23  C   UNL     1      -1.744  11.970  22.812  0.00  0.00    +0.000 A 
ATOM     24  C   UNL     1      -2.942  12.028  23.522  0.00  0.00    +0.000 A 
ATOM     25  C   UNL     1      -3.324  13.218  24.135  0.00  0.00    +0.000 A 
ATOM     26  C   UNL     1      -2.503  14.334  24.042  0.00  0.00    +0.000 A 
ATOM     27  F   UNL     1      -2.890  15.487  24.613  0.00  0.00    +0.000 F 
ATOM     28  C   UNL     1      -1.287  14.282  23.372  0.00  0.00    +0.000 A 
ATOM     29  C   UNL     1      -0.913  13.091  22.768  0.00  0.00    +0.000 A 
ATOM     30  F   UNL     1       0.253  13.033  22.105  0.00  0.00    +0.000 F 
ENDBRANCH  21  23
ENDBRANCH  18  19
ENDBRANCH  17  18
ENDBRANCH   7  17
TORSDOF 6
ENDMDL
MODEL 2
REMARK VINA RESULT:      -8.2      6.288      8.702
REMARK  Name = 
REMARK  7 active torsions:
REMARK  status: ('A' for Active; 'I' for Inactive)
REMARK    1  A    between atoms: C_1  and  C_2
REMARK    2  A    between atoms: C_4  and  S_5
REMARK    3  A    between atoms: S_5  and  N_8
REMARK    4  A    between atoms: C_16  and  O_17
REMARK    5  A    between atoms: O_17  and  C_18
REMARK    6  A    between atoms: C_18  and  C_19
REMARK    7  A    between atoms: N_21  and  C_22
REMARK                            x       y       z     vdW  Elec       q    Type
REMARK                         _______ _______ _______ _____ _____    ______ ____
ROOT
ATOM      1  C   UNL     1       6.236   5.404  15.046  0.00  0.00    +0.000 C 
ATOM      2  C   UNL     1       5.921   5.167  16.500  0.00  0.00    +0.000 A 
ATOM      3  C   UNL     1       5.050   4.123  16.847  0.00  0.00    +0.000 A 
ATOM      4  C   UNL     1       4.751   3.859  18.191  0.00  0.00    +0.000 A 
ATOM      5  C   UNL     1       5.315   4.632  19.203  0.00  0.00    +0.000 A 
ATOM      6  C   UNL     1       6.163   5.679  18.872  0.00  0.00    +0.000 A 
ATOM      7  C   UNL     1       6.488   5.944  17.532  0.00  0.00    +0.000 A 
ENDROOT
BRANCH   4   8
ATOM      8  S   UNL     1       3.667   2.528  18.619  0.00  0.00    +0.000 S 
ATOM      9  O   UNL     1       3.876   1.488  17.634  0.00  0.00    +0.000 OA
ATOM     10  O   UNL     1       3.823   2.257  20.031  0.00  0.00    +0.000 OA
BRANCH   8  11
ATOM     11  N   UNL     1       2.110   3.171  18.385  0.00  0.00    +0.000 NA
ATOM     12  C   UNL     1       1.934   4.650  18.480  0.00  0.00    +0.000 C 
ATOM     13  C   UNL     1       1.801   5.132  19.929  0.00  0.00    +0.000 C 
ATOM     14  O   UNL     1       0.758   4.443  20.630  0.00  0.00    +0.000 OA
ATOM     15  C   UNL     1       0.936   3.020  20.600  0.00  0.00    +0.000 C 
ATOM     16  C   UNL     1       1.029   2.489  19.166  0.00  0.00    +0.000 C 
ENDBRANCH   8  11
ENDBRANCH   4   8
BRANCH   7  17
ATOM     17  O   UNL     1       7.350   6.947  17.174  0.00  0.00    +0.000 OA
BRANCH  17  18
ATOM     18  C   UNL     1       8.176   7.427  18.245  0.00  0.00    +0.000 C 
BRANCH  18  19
ATOM     19  C   UNL     1       8.293   8.939  18.192  0.00  0.00    +0.000 C 
ATOM     20  O   UNL     1       7.516   9.609  17.516  0.00  0.00    +0.000 OA
ATOM     21  N   UNL     1       9.299   9.402  19.006  0.00  0.00    +0.000 N 
ATOM     22  H   UNL     1       9.936   8.695  19.367  0.00  0.00    +0.000 HD
BRANCH  21  23
ATOM     23  C   UNL     1       9.649  10.740  19.232  0.00  0.00    +0.000 A 
ATOM     24  C   UNL     1      10.125  11.587  18.233  0.00  0.00    +0.000 A 
ATOM     25  C   UNL     1      10.511  12.885  18.554  0.00  0.00    +0.000 A 
ATOM     26  C   UNL     1      10.410  13.328  19.866  0.00  0.00    +0.000 A 
ATOM     27  F   UNL     1      10.810  14.573  20.175  0.00  0.00    +0.000 F 
ATOM     28  C   UNL     1       9.901  12.510  20.867  0.00  0.00    +0.000 A 
ATOM     29  C   UNL     1       9.515  11.220  20.537  0.00  0.00    +0.000 A 
ATOM     30  F   UNL     1       9.036  10.415  21.498  0.00  0.00    +0.000 F 
ENDBRANCH  21  23
ENDBRANCH  18  19
ENDBRANCH  17  18
ENDBRANCH   7  17
TORSDOF 6
ENDMDL
MODEL 3
REMARK VINA RESULT:      -8.1      6.633      9.037
REMARK  Name = 
REMARK  7 active torsions:
REMARK  status: ('A' for Active; 'I' for Inactive)
REMARK    1  A    between atoms: C_1  and  C_2
REMARK    2  A    between atoms: C_4  and  S_5
REMARK    3  A    between atoms: S_5  and  N_8
REMARK    4  A    between atoms: C_16  and  O_17
REMARK    5  A    between atoms: O_17  and  C_18
REMARK    6  A    between atoms: C_18  and  C_19
REMARK    7  A    between atoms: N_21  and  C_22
REMARK                            x       y       z     vdW  Elec       q    Type
REMARK                         _______ _______ _______ _____ _____    ______ ____
ROOT
ATOM      1  C   UNL     1       8.305   5.604  20.061  0.00  0.00    +0.000 C 
ATOM      2  C   UNL     1       7.252   5.777  18.999  0.00  0.00    +0.000 A 
ATOM      3  C   UNL     1       6.198   4.853  18.928  0.00  0.00    +0.000 A 
ATOM      4  C   UNL     1       5.188   4.994  17.965  0.00  0.00    +0.000 A 
ATOM      5  C   UNL     1       5.217   6.055  17.064  0.00  0.00    +0.000 A 
ATOM      6  C   UNL     1       6.264   6.965  17.112  0.00  0.00    +0.000 A 
ATOM      7  C   UNL     1       7.273   6.848  18.082  0.00  0.00    +0.000 A 
ENDROOT
BRANCH   4   8
ATOM      8  S   UNL     1       3.853   3.835  17.898  0.00  0.00    +0.000 S 
ATOM      9  O   UNL     1       3.642   3.521  16.501  0.00  0.00    +0.000 OA
ATOM     10  O   UNL     1       4.115   2.792  18.865  0.00  0.00    +0.000 OA
BRANCH   8  11
ATOM     11  N   UNL     1       2.508   4.721  18.447  0.00  0.00    +0.000 NA
ATOM     12  C   UNL     1       2.597   5.386  19.781  0.00  0.00    +0.000 C 
ATOM     13  C   UNL     1       2.301   4.423  20.936  0.00  0.00    +0.000 C 
ATOM     14  O   UNL     1       1.040   3.760  20.772  0.00  0.00    +0.000 OA
ATOM     15  C   UNL     1       0.952   3.067  19.519  0.00  0.00    +0.000 C 
ATOM     16  C   UNL     1       1.199   4.004  18.332  0.00  0.00    +0.000 C 
ENDBRANCH   8  11
ENDBRANCH   4   8
BRANCH   7  17
ATOM     17  O   UNL     1       8.300   7.750  18.179  0.00  0.00    +0.000 OA
BRANCH  17  18
ATOM     18  C   UNL     1       7.970   9.073  17.731  0.00  0.00    +0.000 C 
BRANCH  18  19
ATOM     19  C   UNL     1       8.756  10.111  18.509  0.00  0.00    +0.000 C 
ATOM     20  O   UNL     1       9.302   9.824  19.572  0.00  0.00    +0.000 OA
ATOM     21  N   UNL     1       8.799  11.318  17.852  0.00  0.00    +0.000 N 
ATOM     22  H   UNL     1       8.161  11.415  17.064  0.00  0.00    +0.000 HD
BRANCH  21  23
ATOM     23  C   UNL     1       9.476  12.475  18.261  0.00  0.00    +0.000 A 
ATOM     24  C   UNL     1       8.836  13.579  18.820  0.00  0.00    +0.000 A 
ATOM     25  C   UNL     1       9.574  14.715  19.141  0.00  0.00    +0.000 A 
ATOM     26  C   UNL     1      10.943  14.734  18.909  0.00  0.00    +0.000 A 
ATOM     27  F   UNL     1      11.645  15.843  19.196  0.00  0.00    +0.000 F 
ATOM     28  C   UNL     1      11.603  13.627  18.390  0.00  0.00    +0.000 A 
ATOM     29  C   UNL     1      10.860  12.499  18.077  0.00  0.00    +0.000 A 
ATOM     30  F   UNL     1      11.484  11.429  17.560  0.00  0.00    +0.000 F 
ENDBRANCH  21  23
ENDBRANCH  18  19
ENDBRANCH  17  18
ENDBRANCH   7  17
TORSDOF 6
ENDMDL
MODEL 4
REMARK VINA RESULT:      -8.1      6.515      9.136
REMARK  Name = 
REMARK  7 active torsions:
REMARK  status: ('A' for Active; 'I' for Inactive)
REMARK    1  A    between atoms: C_1  and  C_2
REMARK    2  A    between atoms: C_4  and  S_5
REMARK    3  A    between atoms: S_5  and  N_8
REMARK    4  A    between atoms: C_16  and  O_17
REMARK    5  A    between atoms: O_17  and  C_18
REMARK    6  A    between atoms: C_18  and  C_19
REMARK    7  A    between atoms: N_21  and  C_22
REMARK                            x       y       z     vdW  Elec       q    Type
REMARK                         _______ _______ _______ _____ _____    ______ ____
ROOT
ATOM      1  C   UNL     1       8.165   5.520  19.864  0.00  0.00    +0.000 C 
ATOM      2  C   UNL     1       7.089   5.907  18.883  0.00  0.00    +0.000 A 
ATOM      3  C   UNL     1       5.922   5.130  18.811  0.00  0.00    +0.000 A 
ATOM      4  C   UNL     1       4.890   5.472  17.925  0.00  0.00    +0.000 A 
ATOM      5  C   UNL     1       5.009   6.588  17.103  0.00  0.00    +0.000 A 
ATOM      6  C   UNL     1       6.167   7.354  17.151  0.00  0.00    +0.000 A 
ATOM      7  C   UNL     1       7.200   7.036  18.046  0.00  0.00    +0.000 A 
ENDROOT
BRANCH   4   8
ATOM      8  S   UNL     1       3.415   4.498  17.858  0.00  0.00    +0.000 S 
ATOM      9  O   UNL     1       2.304   5.425  17.818  0.00  0.00    +0.000 OA
ATOM     10  O   UNL     1       3.585   3.496  16.828  0.00  0.00    +0.000 OA
BRANCH   8  11
ATOM     11  N   UNL     1       3.380   3.696  19.357  0.00  0.00    +0.000 NA
ATOM     12  C   UNL     1       2.977   2.258  19.382  0.00  0.00    +0.000 C 
ATOM     13  C   UNL     1       1.455   2.077  19.369  0.00  0.00    +0.000 C 
ATOM     14  O   UNL     1       0.819   2.810  20.424  0.00  0.00    +0.000 OA
ATOM     15  C   UNL     1       1.148   4.205  20.389  0.00  0.00    +0.000 C 
ATOM     16  C   UNL     1       2.662   4.434  20.444  0.00  0.00    +0.000 C 
ENDBRANCH   8  11
ENDBRANCH   4   8
BRANCH   7  17
ATOM     17  O   UNL     1       8.339   7.792  18.144  0.00  0.00    +0.000 OA
BRANCH  17  18
ATOM     18  C   UNL     1       8.192   9.145  17.690  0.00  0.00    +0.000 C 
BRANCH  18  19
ATOM     19  C   UNL     1       8.962  10.096  18.587  0.00  0.00    +0.000 C 
ATOM     20  O   UNL     1       9.119   9.849  19.781  0.00  0.00    +0.000 OA
ATOM     21  N   UNL     1       9.464  11.166  17.886  0.00  0.00    +0.000 N 
ATOM     22  H   UNL     1       9.103  11.284  16.941  0.00  0.00    +0.000 HD
BRANCH  21  23
ATOM     23  C   UNL     1      10.260  12.203  18.391  0.00  0.00    +0.000 A 
ATOM     24  C   UNL     1      11.524  12.000  18.943  0.00  0.00    +0.000 A 
ATOM     25  C   UNL     1      12.224  13.077  19.480  0.00  0.00    +0.000 A 
ATOM     26  C   UNL     1      11.660  14.345  19.452  0.00  0.00    +0.000 A 
ATOM     27  F   UNL     1      12.329  15.376  19.997  0.00  0.00    +0.000 F 
ATOM     28  C   UNL     1      10.420  14.572  18.870  0.00  0.00    +0.000 A 
ATOM     29  C   UNL     1       9.732  13.495  18.334  0.00  0.00    +0.000 A 
ATOM     30  F   UNL     1       8.525  13.699  17.782  0.00  0.00    +0.000 F 
ENDBRANCH  21  23
ENDBRANCH  18  19
ENDBRANCH  17  18
ENDBRANCH   7  17
TORSDOF 6
ENDMDL
MODEL 5
REMARK VINA RESULT:      -8.1      6.616      8.750
REMARK  Name = 
REMARK  7 active torsions:
REMARK  status: ('A' for Active; 'I' for Inactive)
REMARK    1  A    between atoms: C_1  and  C_2
REMARK    2  A    between atoms: C_4  and  S_5
REMARK    3  A    between atoms: S_5  and  N_8
REMARK    4  A    between atoms: C_16  and  O_17
REMARK    5  A    between atoms: O_17  and  C_18
REMARK    6  A    between atoms: C_18  and  C_19
REMARK    7  A    between atoms: N_21  and  C_22
REMARK                            x       y       z     vdW  Elec       q    Type
REMARK                         _______ _______ _______ _____ _____    ______ ____
ROOT
ATOM      1  C   UNL     1       7.857   4.513  17.531  0.00  0.00    +0.000 C 
ATOM      2  C   UNL     1       6.522   5.198  17.405  0.00  0.00    +0.000 A 
ATOM      3  C   UNL     1       5.350   4.442  17.562  0.00  0.00    +0.000 A 
ATOM      4  C   UNL     1       4.089   5.050  17.472  0.00  0.00    +0.000 A 
ATOM      5  C   UNL     1       3.983   6.416  17.226  0.00  0.00    +0.000 A 
ATOM      6  C   UNL     1       5.134   7.172  17.051  0.00  0.00    +0.000 A 
ATOM      7  C   UNL     1       6.403   6.582  17.156  0.00  0.00    +0.000 A 
ENDROOT
BRANCH   4   8
ATOM      8  S   UNL     1       2.619   4.091  17.692  0.00  0.00    +0.000 S 
ATOM      9  O   UNL     1       1.563   5.018  18.034  0.00  0.00    +0.000 OA
ATOM     10  O   UNL     1       2.491   3.201  16.559  0.00  0.00    +0.000 OA
BRANCH   8  11
ATOM     11  N   UNL     1       2.949   3.137  19.062  0.00  0.00    +0.000 NA
ATOM     12  C   UNL     1       1.985   2.055  19.420  0.00  0.00    +0.000 C 
ATOM     13  C   UNL     1       0.780   2.582  20.207  0.00  0.00    +0.000 C 
ATOM     14  O   UNL     1       1.180   3.321  21.368  0.00  0.00    +0.000 OA
ATOM     15  C   UNL     1       2.064   4.402  21.043  0.00  0.00    +0.000 C 
ATOM     16  C   UNL     1       3.307   3.913  20.291  0.00  0.00    +0.000 C 
ENDBRANCH   8  11
ENDBRANCH   4   8
BRANCH   7  17
ATOM     17  O   UNL     1       7.559   7.306  17.024  0.00  0.00    +0.000 OA
BRANCH  17  18
ATOM     18  C   UNL     1       8.173   7.671  18.269  0.00  0.00    +0.000 C 
BRANCH  18  19
ATOM     19  C   UNL     1       8.382   9.172  18.341  0.00  0.00    +0.000 C 
ATOM     20  O   UNL     1       7.719   9.936  17.642  0.00  0.00    +0.000 OA
ATOM     21  N   UNL     1       9.322   9.513  19.284  0.00  0.00    +0.000 N 
ATOM     22  H   UNL     1       9.876   8.743  19.654  0.00  0.00    +0.000 HD
BRANCH  21  23
ATOM     23  C   UNL     1       9.722  10.807  19.644  0.00  0.00    +0.000 A 
ATOM     24  C   UNL     1       9.436  11.380  20.882  0.00  0.00    +0.000 A 
ATOM     25  C   UNL     1       9.815  12.695  21.137  0.00  0.00    +0.000 A 
ATOM     26  C   UNL     1      10.482  13.421  20.159  0.00  0.00    +0.000 A 
ATOM     27  F   UNL     1      10.821  14.699  20.401  0.00  0.00    +0.000 F 
ATOM     28  C   UNL     1      10.810  12.852  18.934  0.00  0.00    +0.000 A 
ATOM     29  C   UNL     1      10.432  11.540  18.691  0.00  0.00    +0.000 A 
ATOM     30  F   UNL     1      10.729  10.984  17.506  0.00  0.00    +0.000 F 
ENDBRANCH  21  23
ENDBRANCH  18  19
ENDBRANCH  17  18
ENDBRANCH   7  17
TORSDOF 6
ENDMDL
MODEL 6
REMARK VINA RESULT:      -7.9      6.010      8.558
REMARK  Name = 
REMARK  7 active torsions:
REMARK  status: ('A' for Active; 'I' for Inactive)
REMARK    1  A    between atoms: C_1  and  C_2
REMARK    2  A    between atoms: C_4  and  S_5
REMARK    3  A    between atoms: S_5  and  N_8
REMARK    4  A    between atoms: C_16  and  O_17
REMARK    5  A    between atoms: O_17  and  C_18
REMARK    6  A    between atoms: C_18  and  C_19
REMARK    7  A    between atoms: N_21  and  C_22
REMARK                            x       y       z     vdW  Elec       q    Type
REMARK                         _______ _______ _______ _____ _____    ______ ____
ROOT
ATOM      1  C   UNL     1       6.292   4.629  15.166  0.00  0.00    +0.000 C 
ATOM      2  C   UNL     1       5.920   4.622  16.625  0.00  0.00    +0.000 A 
ATOM      3  C   UNL     1       4.884   3.779  17.060  0.00  0.00    +0.000 A 
ATOM      4  C   UNL     1       4.524   3.731  18.415  0.00  0.00    +0.000 A 
ATOM      5  C   UNL     1       5.191   4.518  19.349  0.00  0.00    +0.000 A 
ATOM      6  C   UNL     1       6.204   5.369  18.929  0.00  0.00    +0.000 A 
ATOM      7  C   UNL     1       6.589   5.416  17.580  0.00  0.00    +0.000 A 
ENDROOT
BRANCH   4   8
ATOM      8  S   UNL     1       3.232   2.650  18.955  0.00  0.00    +0.000 S 
ATOM      9  O   UNL     1       3.140   1.587  17.978  0.00  0.00    +0.000 OA
ATOM     10  O   UNL     1       3.446   2.358  20.356  0.00  0.00    +0.000 OA
BRANCH   8  11
ATOM     11  N   UNL     1       1.824   3.598  18.837  0.00  0.00    +0.000 NA
ATOM     12  C   UNL     1       1.831   4.761  17.900  0.00  0.00    +0.000 C 
ATOM     13  C   UNL     1       2.488   6.002  18.515  0.00  0.00    +0.000 C 
ATOM     14  O   UNL     1       1.897   6.356  19.772  0.00  0.00    +0.000 OA
ATOM     15  C   UNL     1       1.928   5.270  20.708  0.00  0.00    +0.000 C 
ATOM     16  C   UNL     1       1.242   4.019  20.150  0.00  0.00    +0.000 C 
ENDBRANCH   8  11
ENDBRANCH   4   8
BRANCH   7  17
ATOM     17  O   UNL     1       7.609   6.218  17.139  0.00  0.00    +0.000 OA
BRANCH  17  18
ATOM     18  C   UNL     1       7.278   7.612  17.072  0.00  0.00    +0.000 C 
BRANCH  18  19
ATOM     19  C   UNL     1       8.127   8.409  18.044  0.00  0.00    +0.000 C 
ATOM     20  O   UNL     1       8.691   7.859  18.987  0.00  0.00    +0.000 OA
ATOM     21  N   UNL     1       8.200   9.736  17.690  0.00  0.00    +0.000 N 
ATOM     22  H   UNL     1       7.544  10.038  16.972  0.00  0.00    +0.000 HD
BRANCH  21  23
ATOM     23  C   UNL     1       8.934  10.740  18.336  0.00  0.00    +0.000 A 
ATOM     24  C   UNL     1       9.832  10.486  19.372  0.00  0.00    +0.000 A 
ATOM     25  C   UNL     1      10.474  11.547  20.004  0.00  0.00    +0.000 A 
ATOM     26  C   UNL     1      10.222  12.848  19.590  0.00  0.00    +0.000 A 
ATOM     27  F   UNL     1      10.825  13.869  20.223  0.00  0.00    +0.000 F 
ATOM     28  C   UNL     1       9.361  13.116  18.534  0.00  0.00    +0.000 A 
ATOM     29  C   UNL     1       8.728  12.053  17.908  0.00  0.00    +0.000 A 
ATOM     30  F   UNL     1       7.882  12.300  16.896  0.00  0.00    +0.000 F 
ENDBRANCH  21  23
ENDBRANCH  18  19
ENDBRANCH  17  18
ENDBRANCH   7  17
TORSDOF 6
ENDMDL
MODEL 7
REMARK VINA RESULT:      -7.9      2.264      3.203
REMARK  Name = 
REMARK  7 active torsions:
REMARK  status: ('A' for Active; 'I' for Inactive)
REMARK    1  A    between atoms: C_1  and  C_2
REMARK    2  A    between atoms: C_4  and  S_5
REMARK    3  A    between atoms: S_5  and  N_8
REMARK    4  A    between atoms: C_16  and  O_17
REMARK    5  A    between atoms: O_17  and  C_18
REMARK    6  A    between atoms: C_18  and  C_19
REMARK    7  A    between atoms: N_21  and  C_22
REMARK                            x       y       z     vdW  Elec       q    Type
REMARK                         _______ _______ _______ _____ _____    ______ ____
ROOT
ATOM      1  C   UNL     1       0.461   8.768  21.660  0.00  0.00    +0.000 C 
ATOM      2  C   UNL     1       1.203   8.517  20.374  0.00  0.00    +0.000 A 
ATOM      3  C   UNL     1       1.990   7.360  20.255  0.00  0.00    +0.000 A 
ATOM      4  C   UNL     1       2.678   7.083  19.065  0.00  0.00    +0.000 A 
ATOM      5  C   UNL     1       2.591   7.954  17.983  0.00  0.00    +0.000 A 
ATOM      6  C   UNL     1       1.832   9.111  18.094  0.00  0.00    +0.000 A 
ATOM      7  C   UNL     1       1.121   9.393  19.271  0.00  0.00    +0.000 A 
ENDROOT
BRANCH   4   8
ATOM      8  S   UNL     1       3.650   5.612  18.920  0.00  0.00    +0.000 S 
ATOM      9  O   UNL     1       4.977   6.026  18.519  0.00  0.00    +0.000 OA
ATOM     10  O   UNL     1       3.445   4.819  20.112  0.00  0.00    +0.000 OA
BRANCH   8  11
ATOM     11  N   UNL     1       2.942   4.776  17.618  0.00  0.00    +0.000 NA
ATOM     12  C   UNL     1       1.515   4.354  17.740  0.00  0.00    +0.000 C 
ATOM     13  C   UNL     1       1.357   3.048  18.527  0.00  0.00    +0.000 C 
ATOM     14  O   UNL     1       2.162   1.994  17.984  0.00  0.00    +0.000 OA
ATOM     15  C   UNL     1       3.548   2.357  17.908  0.00  0.00    +0.000 C 
ATOM     16  C   UNL     1       3.756   3.636  17.091  0.00  0.00    +0.000 C 
ENDBRANCH   8  11
ENDBRANCH   4   8
BRANCH   7  17
ATOM     17  O   UNL     1       0.334  10.507  19.400  0.00  0.00    +0.000 OA
BRANCH  17  18
ATOM     18  C   UNL     1       1.025  11.666  19.889  0.00  0.00    +0.000 C 
BRANCH  18  19
ATOM     19  C   UNL     1       0.130  12.470  20.814  0.00  0.00    +0.000 C 
ATOM     20  O   UNL     1       0.522  13.521  21.315  0.00  0.00    +0.000 OA
ATOM     21  N   UNL     1      -1.114  11.900  20.943  0.00  0.00    +0.000 N 
ATOM     22  H   UNL     1      -1.207  10.953  20.581  0.00  0.00    +0.000 HD
BRANCH  21  23
ATOM     23  C   UNL     1      -2.197  12.402  21.678  0.00  0.00    +0.000 A 
ATOM     24  C   UNL     1      -3.091  13.347  21.177  0.00  0.00    +0.000 A 
ATOM     25  C   UNL     1      -4.103  13.842  21.994  0.00  0.00    +0.000 A 
ATOM     26  C   UNL     1      -4.218  13.382  23.299  0.00  0.00    +0.000 A 
ATOM     27  F   UNL     1      -5.181  13.884  24.093  0.00  0.00    +0.000 F 
ATOM     28  C   UNL     1      -3.361  12.412  23.803  0.00  0.00    +0.000 A 
ATOM     29  C   UNL     1      -2.358  11.922  22.980  0.00  0.00    +0.000 A 
ATOM     30  F   UNL     1      -1.513  10.996  23.459  0.00  0.00    +0.000 F 
ENDBRANCH  21  23
ENDBRANCH  18  19
ENDBRANCH  17  18
ENDBRANCH   7  17
TORSDOF 6
ENDMDL
MODEL 8
REMARK VINA RESULT:      -7.8      3.847      4.978
REMARK  Name = 
REMARK  7 active torsions:
REMARK  status: ('A' for Active; 'I' for Inactive)
REMARK    1  A    between atoms: C_1  and  C_2
REMARK    2  A    between atoms: C_4  and  S_5
REMARK    3  A    between atoms: S_5  and  N_8
REMARK    4  A    between atoms: C_16  and  O_17
REMARK    5  A    between atoms: O_17  and  C_18
REMARK    6  A    between atoms: C_18  and  C_19
REMARK    7  A    between atoms: N_21  and  C_22
REMARK                            x       y       z     vdW  Elec       q    Type
REMARK                         _______ _______ _______ _____ _____    ______ ____
ROOT
ATOM      1  C   UNL     1       0.800   8.861  22.208  0.00  0.00    +0.000 C 
ATOM      2  C   UNL     1       1.269   8.573  20.805  0.00  0.00    +0.000 A 
ATOM      3  C   UNL     1       1.938   7.367  20.545  0.00  0.00    +0.000 A 
ATOM      4  C   UNL     1       2.370   7.056  19.247  0.00  0.00    +0.000 A 
ATOM      5  C   UNL     1       2.140   7.940  18.197  0.00  0.00    +0.000 A 
ATOM      6  C   UNL     1       1.495   9.145  18.446  0.00  0.00    +0.000 A 
ATOM      7  C   UNL     1       1.040   9.463  19.735  0.00  0.00    +0.000 A 
ENDROOT
BRANCH   4   8
ATOM      8  S   UNL     1       3.194   5.524  18.926  0.00  0.00    +0.000 S 
ATOM      9  O   UNL     1       2.803   5.110  17.595  0.00  0.00    +0.000 OA
ATOM     10  O   UNL     1       4.588   5.682  19.277  0.00  0.00    +0.000 OA
BRANCH   8  11
ATOM     11  N   UNL     1       2.502   4.440  20.040  0.00  0.00    +0.000 NA
ATOM     12  C   UNL     1       3.311   3.265  20.481  0.00  0.00    +0.000 C 
ATOM     13  C   UNL     1       3.253   2.107  19.479  0.00  0.00    +0.000 C 
ATOM     14  O   UNL     1       1.904   1.723  19.180  0.00  0.00    +0.000 OA
ATOM     15  C   UNL     1       1.121   2.825  18.703  0.00  0.00    +0.000 C 
ATOM     16  C   UNL     1       1.115   3.992  19.696  0.00  0.00    +0.000 C 
ENDBRANCH   8  11
ENDBRANCH   4   8
BRANCH   7  17
ATOM     17  O   UNL     1       0.369  10.626  20.006  0.00  0.00    +0.000 OA
BRANCH  17  18
ATOM     18  C   UNL     1       0.630  11.689  19.078  0.00  0.00    +0.000 C 
BRANCH  18  19
ATOM     19  C   UNL     1      -0.667  12.228  18.506  0.00  0.00    +0.000 C 
ATOM     20  O   UNL     1      -0.686  13.274  17.859  0.00  0.00    +0.000 OA
ATOM     21  N   UNL     1      -1.726  11.391  18.762  0.00  0.00    +0.000 N 
ATOM     22  H   UNL     1      -1.552  10.653  19.442  0.00  0.00    +0.000 HD
BRANCH  21  23
ATOM     23  C   UNL     1      -3.052  11.557  18.340  0.00  0.00    +0.000 A 
ATOM     24  C   UNL     1      -3.491  11.246  17.054  0.00  0.00    +0.000 A 
ATOM     25  C   UNL     1      -4.811  11.501  16.695  0.00  0.00    +0.000 A 
ATOM     26  C   UNL     1      -5.682  12.054  17.624  0.00  0.00    +0.000 A 
ATOM     27  F   UNL     1      -6.949  12.323  17.263  0.00  0.00    +0.000 F 
ATOM     28  C   UNL     1      -5.272  12.332  18.922  0.00  0.00    +0.000 A 
ATOM     29  C   UNL     1      -3.956  12.072  19.272  0.00  0.00    +0.000 A 
ATOM     30  F   UNL     1      -3.544  12.351  20.518  0.00  0.00    +0.000 F 
ENDBRANCH  21  23
ENDBRANCH  18  19
ENDBRANCH  17  18
ENDBRANCH   7  17
TORSDOF 6
ENDMDL
MODEL 9
REMARK VINA RESULT:      -7.8      6.319      8.985
REMARK  Name = 
REMARK  7 active torsions:
REMARK  status: ('A' for Active; 'I' for Inactive)
REMARK    1  A    between atoms: C_1  and  C_2
REMARK    2  A    between atoms: C_4  and  S_5
REMARK    3  A    between atoms: S_5  and  N_8
REMARK    4  A    between atoms: C_16  and  O_17
REMARK    5  A    between atoms: O_17  and  C_18
REMARK    6  A    between atoms: C_18  and  C_19
REMARK    7  A    between atoms: N_21  and  C_22
REMARK                            x       y       z     vdW  Elec       q    Type
REMARK                         _______ _______ _______ _____ _____    ______ ____
ROOT
ATOM      1  C   UNL     1       8.136   5.862  19.553  0.00  0.00    +0.000 C 
ATOM      2  C   UNL     1       7.039   5.683  18.537  0.00  0.00    +0.000 A 
ATOM      3  C   UNL     1       6.083   4.674  18.737  0.00  0.00    +0.000 A 
ATOM      4  C   UNL     1       5.035   4.492  17.823  0.00  0.00    +0.000 A 
ATOM      5  C   UNL     1       4.927   5.311  16.703  0.00  0.00    +0.000 A 
ATOM      6  C   UNL     1       5.877   6.301  16.484  0.00  0.00    +0.000 A 
ATOM      7  C   UNL     1       6.921   6.508  17.399  0.00  0.00    +0.000 A 
ENDROOT
BRANCH   4   8
ATOM      8  S   UNL     1       3.825   3.231  18.095  0.00  0.00    +0.000 S 
ATOM      9  O   UNL     1       3.674   2.520  16.843  0.00  0.00    +0.000 OA
ATOM     10  O   UNL     1       4.172   2.531  19.312  0.00  0.00    +0.000 OA
BRANCH   8  11
ATOM     11  N   UNL     1       2.388   4.094  18.388  0.00  0.00    +0.000 NA
ATOM     12  C   UNL     1       2.408   5.172  19.421  0.00  0.00    +0.000 C 
ATOM     13  C   UNL     1       2.246   4.624  20.843  0.00  0.00    +0.000 C 
ATOM     14  O   UNL     1       1.074   3.808  20.972  0.00  0.00    +0.000 OA
ATOM     15  C   UNL     1       1.058   2.731  20.026  0.00  0.00    +0.000 C 
ATOM     16  C   UNL     1       1.175   3.238  18.584  0.00  0.00    +0.000 C 
ENDBRANCH   8  11
ENDBRANCH   4   8
BRANCH   7  17
ATOM     17  O   UNL     1       7.853   7.499  17.231  0.00  0.00    +0.000 OA
BRANCH  17  18
ATOM     18  C   UNL     1       7.349   8.826  17.444  0.00  0.00    +0.000 C 
BRANCH  18  19
ATOM     19  C   UNL     1       8.374   9.675  18.172  0.00  0.00    +0.000 C 
ATOM     20  O   UNL     1       8.945   9.253  19.176  0.00  0.00    +0.000 OA
ATOM     21  N   UNL     1       8.584  10.877  17.541  0.00  0.00    +0.000 N 
ATOM     22  H   UNL     1       7.912  11.118  16.814  0.00  0.00    +0.000 HD
BRANCH  21  23
ATOM     23  C   UNL     1       9.493  11.876  17.913  0.00  0.00    +0.000 A 
ATOM     24  C   UNL     1      10.821  11.617  18.246  0.00  0.00    +0.000 A 
ATOM     25  C   UNL     1      11.643  12.659  18.667  0.00  0.00    +0.000 A 
ATOM     26  C   UNL     1      11.134  13.949  18.743  0.00  0.00    +0.000 A 
ATOM     27  F   UNL     1      11.925  14.945  19.177  0.00  0.00    +0.000 F 
ATOM     28  C   UNL     1       9.824  14.231  18.378  0.00  0.00    +0.000 A 
ATOM     29  C   UNL     1       9.014  13.188  17.956  0.00  0.00    +0.000 A 
ATOM     30  F   UNL     1       7.742  13.445  17.614  0.00  0.00    +0.000 F 
ENDBRANCH  21  23
ENDBRANCH  18  19
ENDBRANCH  17  18
ENDBRANCH   7  17
TORSDOF 6
ENDMDL
