MODEL 1
REMARK VINA RESULT:      -7.9      0.000      0.000
REMARK  Name = 
REMARK  3 active torsions:
REMARK  status: ('A' for Active; 'I' for Inactive)
REMARK    1  A    between atoms: C_2  and  C_4
REMARK    2  A    between atoms: C_7  and  N_8
REMARK    3  A    between atoms: C_13  and  C_14
REMARK                            x       y       z     vdW  Elec       q    Type
REMARK                         _______ _______ _______ _____ _____    ______ ____
ROOT
ATOM      1  N   UNL     1       3.115   7.568  17.875  0.00  0.00    +0.000 N 
ATOM      2  C   UNL     1       2.101   8.296  18.383  0.00  0.00    +0.000 A 
ATOM      3  N   UNL     1       1.378   9.165  17.721  0.00  0.00    +0.000 NA
ATOM      4  C   UNL     1       0.622   9.813  18.661  0.00  0.00    +0.000 A 
ATOM      5  C   UNL     1      -0.302  10.853  18.490  0.00  0.00    +0.000 A 
ATOM      6  C   UNL     1      -0.926  11.391  19.624  0.00  0.00    +0.000 A 
ATOM      7  C   UNL     1      -0.621  10.906  20.904  0.00  0.00    +0.000 A 
ATOM      8  C   UNL     1       0.298   9.859  21.089  0.00  0.00    +0.000 A 
ATOM      9  C   UNL     1       0.892   9.331  19.938  0.00  0.00    +0.000 A 
ATOM     10  N   UNL     1       1.813   8.332  19.726  0.00  0.00    +0.000 N 
ATOM     11  H   UNL     1       3.260   7.759  16.883  0.00  0.00    +0.000 HD
ATOM     12  H   UNL     1       2.274   7.776  20.428  0.00  0.00    +0.000 HD
ENDROOT
BRANCH   1  16
ATOM     13  C   UNL     1       3.948   3.525  18.784  0.00  0.00    +0.000 A 
ATOM     14  C   UNL     1       4.941   4.489  18.981  0.00  0.00    +0.000 A 
ATOM     15  C   UNL     1       4.701   5.832  18.657  0.00  0.00    +0.000 A 
ATOM     16  C   UNL     1       3.460   6.228  18.151  0.00  0.00    +0.000 A 
ATOM     17  C   UNL     1       2.462   5.253  17.984  0.00  0.00    +0.000 A 
ATOM     18  C   UNL     1       2.701   3.911  18.289  0.00  0.00    +0.000 A 
BRANCH  13  20
ATOM     19  N   UNL     1       4.983   1.811  20.117  0.00  0.00    +0.000 NA
ATOM     20  C   UNL     1       4.217   2.097  19.117  0.00  0.00    +0.000 C 
ATOM     21  N   UNL     1       3.673   1.098  18.359  0.00  0.00    +0.000 N 
ATOM     22  H   UNL     1       5.033   0.797  20.237  0.00  0.00    +0.000 HD
ATOM     23  H   UNL     1       4.137   0.201  18.422  0.00  0.00    +0.000 HD
ATOM     24  H   UNL     1       3.469   1.343  17.396  0.00  0.00    +0.000 HD
ENDBRANCH  13  20
ENDBRANCH   1  16
BRANCH   6  25
ATOM     25  C   UNL     1      -1.932  12.474  19.431  0.00  0.00    +0.000 C 
ATOM     26  N   UNL     1      -1.713  13.713  19.737  0.00  0.00    +0.000 NA
ATOM     27  N   UNL     1      -3.162  12.182  18.916  0.00  0.00    +0.000 N 
ATOM     28  H   UNL     1      -0.754  13.855  20.066  0.00  0.00    +0.000 HD
ATOM     29  H   UNL     1      -3.561  11.290  19.179  0.00  0.00    +0.000 HD
ATOM     30  H   UNL     1      -3.807  12.956  19.037  0.00  0.00    +0.000 HD
ENDBRANCH   6  25
TORSDOF 3
ENDMDL
MODEL 2
REMARK VINA RESULT:      -7.9      0.240      1.053
REMARK  Name = 
REMARK  3 active torsions:
REMARK  status: ('A' for Active; 'I' for Inactive)
REMARK    1  A    between atoms: C_2  and  C_4
REMARK    2  A    between atoms: C_7  and  N_8
REMARK    3  A    between atoms: C_13  and  C_14
REMARK                            x       y       z     vdW  Elec       q    Type
REMARK                         _______ _______ _______ _____ _____    ______ ____
ROOT
ATOM      1  N   UNL     1       3.009   7.421  18.058  0.00  0.00    +0.000 N 
ATOM      2  C   UNL     1       2.037   8.222  18.537  0.00  0.00    +0.000 A 
ATOM      3  N   UNL     1       1.389   9.132  17.851  0.00  0.00    +0.000 NA
ATOM      4  C   UNL     1       0.661   9.841  18.769  0.00  0.00    +0.000 A 
ATOM      5  C   UNL     1      -0.186  10.939  18.568  0.00  0.00    +0.000 A 
ATOM      6  C   UNL     1      -0.795  11.532  19.683  0.00  0.00    +0.000 A 
ATOM      7  C   UNL     1      -0.551  11.041  20.974  0.00  0.00    +0.000 A 
ATOM      8  C   UNL     1       0.290   9.936  21.189  0.00  0.00    +0.000 A 
ATOM      9  C   UNL     1       0.870   9.355  20.055  0.00  0.00    +0.000 A 
ATOM     10  N   UNL     1       1.724   8.293  19.873  0.00  0.00    +0.000 N 
ATOM     11  H   UNL     1       3.186   7.591  17.068  0.00  0.00    +0.000 HD
ATOM     12  H   UNL     1       2.131   7.714  20.590  0.00  0.00    +0.000 HD
ENDROOT
BRANCH   1  16
ATOM     13  C   UNL     1       3.951   3.385  18.887  0.00  0.00    +0.000 A 
ATOM     14  C   UNL     1       2.723   3.693  18.293  0.00  0.00    +0.000 A 
ATOM     15  C   UNL     1       2.373   5.026  18.037  0.00  0.00    +0.000 A 
ATOM     16  C   UNL     1       3.254   6.064  18.354  0.00  0.00    +0.000 A 
ATOM     17  C   UNL     1       4.496   5.738  18.926  0.00  0.00    +0.000 A 
ATOM     18  C   UNL     1       4.843   4.412  19.199  0.00  0.00    +0.000 A 
BRANCH  13  20
ATOM     19  N   UNL     1       5.075   1.690  20.171  0.00  0.00    +0.000 NA
ATOM     20  C   UNL     1       4.309   1.965  19.169  0.00  0.00    +0.000 C 
ATOM     21  N   UNL     1       3.847   0.965  18.360  0.00  0.00    +0.000 N 
ATOM     22  H   UNL     1       5.191   0.677  20.252  0.00  0.00    +0.000 HD
ATOM     23  H   UNL     1       4.369   0.098  18.396  0.00  0.00    +0.000 HD
ATOM     24  H   UNL     1       3.644   1.235  17.403  0.00  0.00    +0.000 HD
ENDBRANCH  13  20
ENDBRANCH   1  16
BRANCH   6  25
ATOM     25  C   UNL     1      -1.720  12.679  19.457  0.00  0.00    +0.000 C 
ATOM     26  N   UNL     1      -1.354  13.918  19.549  0.00  0.00    +0.000 NA
ATOM     27  N   UNL     1      -3.029  12.452  19.147  0.00  0.00    +0.000 N 
ATOM     28  H   UNL     1      -0.351  14.000  19.733  0.00  0.00    +0.000 HD
ATOM     29  H   UNL     1      -3.465  11.650  19.585  0.00  0.00    +0.000 HD
ATOM     30  H   UNL     1      -3.582  13.299  19.231  0.00  0.00    +0.000 HD
ENDBRANCH   6  25
TORSDOF 3
ENDMDL
MODEL 3
REMARK VINA RESULT:      -7.8      3.076      3.909
REMARK  Name = 
REMARK  3 active torsions:
REMARK  status: ('A' for Active; 'I' for Inactive)
REMARK    1  A    between atoms: C_2  and  C_4
REMARK    2  A    between atoms: C_7  and  N_8
REMARK    3  A    between atoms: C_13  and  C_14
REMARK                            x       y       z     vdW  Elec       q    Type
REMARK                         _______ _______ _______ _____ _____    ______ ____
ROOT
ATOM      1  N   UNL     1       2.956   5.200  18.374  0.00  0.00    +0.000 N 
ATOM      2  C   UNL     1       2.534   6.346  18.943  0.00  0.00    +0.000 A 
ATOM      3  N   UNL     1       2.195   6.495  20.201  0.00  0.00    +0.000 NA
ATOM      4  C   UNL     1       1.635   7.741  20.289  0.00  0.00    +0.000 A 
ATOM      5  C   UNL     1       1.084   8.386  21.406  0.00  0.00    +0.000 A 
ATOM      6  C   UNL     1       0.523   9.659  21.238  0.00  0.00    +0.000 A 
ATOM      7  C   UNL     1       0.502  10.269  19.975  0.00  0.00    +0.000 A 
ATOM      8  C   UNL     1       1.057   9.637  18.850  0.00  0.00    +0.000 A 
ATOM      9  C   UNL     1       1.625   8.374  19.051  0.00  0.00    +0.000 A 
ATOM     10  N   UNL     1       2.243   7.474  18.215  0.00  0.00    +0.000 N 
ATOM     11  H   UNL     1       3.000   4.435  19.047  0.00  0.00    +0.000 HD
ATOM     12  H   UNL     1       2.385   7.570  17.223  0.00  0.00    +0.000 HD
ENDROOT
BRANCH   1  16
ATOM     13  C   UNL     1       5.862   4.832  15.327  0.00  0.00    +0.000 A 
ATOM     14  C   UNL     1       5.329   3.677  15.907  0.00  0.00    +0.000 A 
ATOM     15  C   UNL     1       4.388   3.772  16.941  0.00  0.00    +0.000 A 
ATOM     16  C   UNL     1       3.954   5.022  17.394  0.00  0.00    +0.000 A 
ATOM     17  C   UNL     1       4.478   6.174  16.783  0.00  0.00    +0.000 A 
ATOM     18  C   UNL     1       5.429   6.086  15.763  0.00  0.00    +0.000 A 
BRANCH  13  20
ATOM     19  N   UNL     1       7.894   5.512  14.235  0.00  0.00    +0.000 NA
ATOM     20  C   UNL     1       6.873   4.722  14.237  0.00  0.00    +0.000 C 
ATOM     21  N   UNL     1       6.710   3.805  13.236  0.00  0.00    +0.000 N 
ATOM     22  H   UNL     1       8.509   5.283  13.451  0.00  0.00    +0.000 HD
ATOM     23  H   UNL     1       7.224   3.993  12.384  0.00  0.00    +0.000 HD
ATOM     24  H   UNL     1       5.751   3.539  13.039  0.00  0.00    +0.000 HD
ENDBRANCH  13  20
ENDBRANCH   1  16
BRANCH   6  25
ATOM     25  C   UNL     1      -0.031  10.351  22.436  0.00  0.00    +0.000 C 
ATOM     26  N   UNL     1      -0.137  11.639  22.529  0.00  0.00    +0.000 NA
ATOM     27  N   UNL     1      -0.449   9.626  23.514  0.00  0.00    +0.000 N 
ATOM     28  H   UNL     1       0.147  12.103  21.664  0.00  0.00    +0.000 HD
ATOM     29  H   UNL     1       0.080   8.790  23.728  0.00  0.00    +0.000 HD
ATOM     30  H   UNL     1      -0.598  10.219  24.325  0.00  0.00    +0.000 HD
ENDBRANCH   6  25
TORSDOF 3
ENDMDL
MODEL 4
REMARK VINA RESULT:      -7.8      3.034      3.807
REMARK  Name = 
REMARK  3 active torsions:
REMARK  status: ('A' for Active; 'I' for Inactive)
REMARK    1  A    between atoms: C_2  and  C_4
REMARK    2  A    between atoms: C_7  and  N_8
REMARK    3  A    between atoms: C_13  and  C_14
REMARK                            x       y       z     vdW  Elec       q    Type
REMARK                         _______ _______ _______ _____ _____    ______ ____
ROOT
ATOM      1  N   UNL     1       2.928   5.482  18.403  0.00  0.00    +0.000 N 
ATOM      2  C   UNL     1       2.465   6.601  18.994  0.00  0.00    +0.000 A 
ATOM      3  N   UNL     1       2.195   6.736  20.269  0.00  0.00    +0.000 NA
ATOM      4  C   UNL     1       1.558   7.942  20.388  0.00  0.00    +0.000 A 
ATOM      5  C   UNL     1       1.035   8.557  21.534  0.00  0.00    +0.000 A 
ATOM      6  C   UNL     1       0.379   9.788  21.398  0.00  0.00    +0.000 A 
ATOM      7  C   UNL     1       0.240  10.385  20.136  0.00  0.00    +0.000 A 
ATOM      8  C   UNL     1       0.766   9.784  18.981  0.00  0.00    +0.000 A 
ATOM      9  C   UNL     1       1.430   8.564  19.151  0.00  0.00    +0.000 A 
ATOM     10  N   UNL     1       2.055   7.701  18.281  0.00  0.00    +0.000 N 
ATOM     11  H   UNL     1       3.065   4.727  19.075  0.00  0.00    +0.000 HD
ATOM     12  H   UNL     1       2.129   7.799  17.281  0.00  0.00    +0.000 HD
ENDROOT
BRANCH   1  16
ATOM     13  C   UNL     1       5.823   4.937  15.371  0.00  0.00    +0.000 A 
ATOM     14  C   UNL     1       5.640   6.210  15.922  0.00  0.00    +0.000 A 
ATOM     15  C   UNL     1       4.664   6.423  16.905  0.00  0.00    +0.000 A 
ATOM     16  C   UNL     1       3.874   5.364  17.364  0.00  0.00    +0.000 A 
ATOM     17  C   UNL     1       4.088   4.085  16.821  0.00  0.00    +0.000 A 
ATOM     18  C   UNL     1       5.048   3.870  15.828  0.00  0.00    +0.000 A 
BRANCH  13  20
ATOM     19  N   UNL     1       7.878   5.506  14.258  0.00  0.00    +0.000 NA
ATOM     20  C   UNL     1       6.853   4.722  14.315  0.00  0.00    +0.000 C 
ATOM     21  N   UNL     1       6.704   3.716  13.403  0.00  0.00    +0.000 N 
ATOM     22  H   UNL     1       8.505   5.203  13.510  0.00  0.00    +0.000 HD
ATOM     23  H   UNL     1       7.234   3.821  12.546  0.00  0.00    +0.000 HD
ATOM     24  H   UNL     1       5.747   3.435  13.214  0.00  0.00    +0.000 HD
ENDBRANCH  13  20
ENDBRANCH   1  16
BRANCH   6  25
ATOM     25  C   UNL     1      -0.145  10.450  22.626  0.00  0.00    +0.000 C 
ATOM     26  N   UNL     1      -0.141   9.891  23.794  0.00  0.00    +0.000 NA
ATOM     27  N   UNL     1      -0.674  11.706  22.553  0.00  0.00    +0.000 N 
ATOM     28  H   UNL     1       0.318   8.977  23.771  0.00  0.00    +0.000 HD
ATOM     29  H   UNL     1      -1.188  11.931  21.710  0.00  0.00    +0.000 HD
ATOM     30  H   UNL     1      -1.179  11.945  23.401  0.00  0.00    +0.000 HD
ENDBRANCH   6  25
TORSDOF 3
ENDMDL
MODEL 5
REMARK VINA RESULT:      -7.7      2.832      3.634
REMARK  Name = 
REMARK  3 active torsions:
REMARK  status: ('A' for Active; 'I' for Inactive)
REMARK    1  A    between atoms: C_2  and  C_4
REMARK    2  A    between atoms: C_7  and  N_8
REMARK    3  A    between atoms: C_13  and  C_14
REMARK                            x       y       z     vdW  Elec       q    Type
REMARK                         _______ _______ _______ _____ _____    ______ ____
ROOT
ATOM      1  N   UNL     1       2.804   5.648  18.586  0.00  0.00    +0.000 N 
ATOM      2  C   UNL     1       2.389   6.861  19.003  0.00  0.00    +0.000 A 
ATOM      3  N   UNL     1       2.081   7.181  20.236  0.00  0.00    +0.000 NA
ATOM      4  C   UNL     1       1.514   8.425  20.167  0.00  0.00    +0.000 A 
ATOM      5  C   UNL     1       0.988   9.216  21.197  0.00  0.00    +0.000 A 
ATOM      6  C   UNL     1       0.414  10.452  20.871  0.00  0.00    +0.000 A 
ATOM      7  C   UNL     1       0.358  10.882  19.536  0.00  0.00    +0.000 A 
ATOM      8  C   UNL     1       0.889  10.103  18.495  0.00  0.00    +0.000 A 
ATOM      9  C   UNL     1       1.470   8.882  18.854  0.00  0.00    +0.000 A 
ATOM     10  N   UNL     1       2.073   7.877  18.134  0.00  0.00    +0.000 N 
ATOM     11  H   UNL     1       2.870   4.984  19.357  0.00  0.00    +0.000 HD
ATOM     12  H   UNL     1       2.190   7.836  17.134  0.00  0.00    +0.000 HD
ENDROOT
BRANCH   1  16
ATOM     13  C   UNL     1       5.667   4.903  15.567  0.00  0.00    +0.000 A 
ATOM     14  C   UNL     1       4.958   3.831  16.117  0.00  0.00    +0.000 A 
ATOM     15  C   UNL     1       4.026   4.047  17.142  0.00  0.00    +0.000 A 
ATOM     16  C   UNL     1       3.779   5.340  17.614  0.00  0.00    +0.000 A 
ATOM     17  C   UNL     1       4.479   6.411  17.034  0.00  0.00    +0.000 A 
ATOM     18  C   UNL     1       5.421   6.199  16.023  0.00  0.00    +0.000 A 
BRANCH  13  20
ATOM     19  N   UNL     1       6.482   3.691  13.656  0.00  0.00    +0.000 NA
ATOM     20  C   UNL     1       6.666   4.662  14.487  0.00  0.00    +0.000 C 
ATOM     21  N   UNL     1       7.779   5.449  14.390  0.00  0.00    +0.000 N 
ATOM     22  H   UNL     1       7.229   3.685  12.958  0.00  0.00    +0.000 HD
ATOM     23  H   UNL     1       8.553   5.050  13.873  0.00  0.00    +0.000 HD
ATOM     24  H   UNL     1       8.092   5.872  15.258  0.00  0.00    +0.000 HD
ENDBRANCH  13  20
ENDBRANCH   1  16
BRANCH   6  25
ATOM     25  C   UNL     1      -0.114  11.302  21.976  0.00  0.00    +0.000 C 
ATOM     26  N   UNL     1      -0.447  10.834  23.136  0.00  0.00    +0.000 NA
ATOM     27  N   UNL     1      -0.277  12.644  21.789  0.00  0.00    +0.000 N 
ATOM     28  H   UNL     1      -0.246   9.834  23.210  0.00  0.00    +0.000 HD
ATOM     29  H   UNL     1      -0.568  12.939  20.866  0.00  0.00    +0.000 HD
ATOM     30  H   UNL     1      -0.834  13.056  22.531  0.00  0.00    +0.000 HD
ENDBRANCH   6  25
TORSDOF 3
ENDMDL
MODEL 6
REMARK VINA RESULT:      -7.7      2.825      3.498
REMARK  Name = 
REMARK  3 active torsions:
REMARK  status: ('A' for Active; 'I' for Inactive)
REMARK    1  A    between atoms: C_2  and  C_4
REMARK    2  A    between atoms: C_7  and  N_8
REMARK    3  A    between atoms: C_13  and  C_14
REMARK                            x       y       z     vdW  Elec       q    Type
REMARK                         _______ _______ _______ _____ _____    ______ ____
ROOT
ATOM      1  N   UNL     1       2.912   5.891  18.609  0.00  0.00    +0.000 N 
ATOM      2  C   UNL     1       2.390   7.065  19.013  0.00  0.00    +0.000 A 
ATOM      3  N   UNL     1       2.178   7.421  20.257  0.00  0.00    +0.000 NA
ATOM      4  C   UNL     1       1.450   8.578  20.194  0.00  0.00    +0.000 A 
ATOM      5  C   UNL     1       0.940   9.360  21.240  0.00  0.00    +0.000 A 
ATOM      6  C   UNL     1       0.177  10.492  20.924  0.00  0.00    +0.000 A 
ATOM      7  C   UNL     1      -0.081  10.827  19.586  0.00  0.00    +0.000 A 
ATOM      8  C   UNL     1       0.431  10.057  18.528  0.00  0.00    +0.000 A 
ATOM      9  C   UNL     1       1.203   8.943  18.875  0.00  0.00    +0.000 A 
ATOM     10  N   UNL     1       1.851   7.978  18.140  0.00  0.00    +0.000 N 
ATOM     11  H   UNL     1       3.148   5.289  19.399  0.00  0.00    +0.000 HD
ATOM     12  H   UNL     1       1.862   7.889  17.136  0.00  0.00    +0.000 HD
ENDROOT
BRANCH   1  16
ATOM     13  C   UNL     1       5.651   4.973  15.524  0.00  0.00    +0.000 A 
ATOM     14  C   UNL     1       5.537   6.294  15.967  0.00  0.00    +0.000 A 
ATOM     15  C   UNL     1       4.614   6.631  16.966  0.00  0.00    +0.000 A 
ATOM     16  C   UNL     1       3.808   5.647  17.547  0.00  0.00    +0.000 A 
ATOM     17  C   UNL     1       3.952   4.318  17.112  0.00  0.00    +0.000 A 
ATOM     18  C   UNL     1       4.859   3.980  16.103  0.00  0.00    +0.000 A 
BRANCH  13  20
ATOM     19  N   UNL     1       6.434   3.570  13.733  0.00  0.00    +0.000 NA
ATOM     20  C   UNL     1       6.626   4.627  14.450  0.00  0.00    +0.000 C 
ATOM     21  N   UNL     1       7.725   5.411  14.239  0.00  0.00    +0.000 N 
ATOM     22  H   UNL     1       7.163   3.497  13.021  0.00  0.00    +0.000 HD
ATOM     23  H   UNL     1       8.491   4.967  13.748  0.00  0.00    +0.000 HD
ATOM     24  H   UNL     1       8.055   5.929  15.047  0.00  0.00    +0.000 HD
ENDBRANCH  13  20
ENDBRANCH   1  16
BRANCH   6  25
ATOM     25  C   UNL     1      -0.335  11.336  22.041  0.00  0.00    +0.000 C 
ATOM     26  N   UNL     1      -0.103  12.606  22.138  0.00  0.00    +0.000 NA
ATOM     27  N   UNL     1      -1.082  10.775  23.036  0.00  0.00    +0.000 N 
ATOM     28  H   UNL     1       0.417  12.956  21.329  0.00  0.00    +0.000 HD
ATOM     29  H   UNL     1      -0.833   9.833  23.310  0.00  0.00    +0.000 HD
ATOM     30  H   UNL     1      -1.179  11.405  23.826  0.00  0.00    +0.000 HD
ENDBRANCH   6  25
TORSDOF 3
ENDMDL
MODEL 7
REMARK VINA RESULT:      -7.7      2.424      3.152
REMARK  Name = 
REMARK  3 active torsions:
REMARK  status: ('A' for Active; 'I' for Inactive)
REMARK    1  A    between atoms: C_2  and  C_4
REMARK    2  A    between atoms: C_7  and  N_8
REMARK    3  A    between atoms: C_13  and  C_14
REMARK                            x       y       z     vdW  Elec       q    Type
REMARK                         _______ _______ _______ _____ _____    ______ ____
ROOT
ATOM      1  N   UNL     1       2.355   6.320  19.665  0.00  0.00    +0.000 N 
ATOM      2  C   UNL     1       1.908   7.535  20.042  0.00  0.00    +0.000 A 
ATOM      3  N   UNL     1       1.396   7.832  21.211  0.00  0.00    +0.000 NA
ATOM      4  C   UNL     1       0.888   9.097  21.083  0.00  0.00    +0.000 A 
ATOM      5  C   UNL     1       0.211   9.878  22.030  0.00  0.00    +0.000 A 
ATOM      6  C   UNL     1      -0.259  11.142  21.647  0.00  0.00    +0.000 A 
ATOM      7  C   UNL     1      -0.065  11.609  20.338  0.00  0.00    +0.000 A 
ATOM      8  C   UNL     1       0.619  10.840  19.382  0.00  0.00    +0.000 A 
ATOM      9  C   UNL     1       1.091   9.590  19.798  0.00  0.00    +0.000 A 
ATOM     10  N   UNL     1       1.782   8.584  19.164  0.00  0.00    +0.000 N 
ATOM     11  H   UNL     1       2.263   5.634  20.414  0.00  0.00    +0.000 HD
ATOM     12  H   UNL     1       2.073   8.566  18.200  0.00  0.00    +0.000 HD
ENDROOT
BRANCH   1  16
ATOM     13  C   UNL     1       5.837   5.360  17.469  0.00  0.00    +0.000 A 
ATOM     14  C   UNL     1       4.947   6.311  16.960  0.00  0.00    +0.000 A 
ATOM     15  C   UNL     1       3.769   6.624  17.653  0.00  0.00    +0.000 A 
ATOM     16  C   UNL     1       3.477   6.004  18.872  0.00  0.00    +0.000 A 
ATOM     17  C   UNL     1       4.394   5.071  19.385  0.00  0.00    +0.000 A 
ATOM     18  C   UNL     1       5.561   4.743  18.691  0.00  0.00    +0.000 A 
BRANCH  13  20
ATOM     19  N   UNL     1       7.950   4.233  17.252  0.00  0.00    +0.000 NA
ATOM     20  C   UNL     1       7.080   5.024  16.719  0.00  0.00    +0.000 C 
ATOM     21  N   UNL     1       7.306   5.563  15.483  0.00  0.00    +0.000 N 
ATOM     22  H   UNL     1       8.719   4.072  16.598  0.00  0.00    +0.000 HD
ATOM     23  H   UNL     1       8.271   5.568  15.179  0.00  0.00    +0.000 HD
ATOM     24  H   UNL     1       6.859   6.458  15.308  0.00  0.00    +0.000 HD
ENDBRANCH  13  20
ENDBRANCH   1  16
BRANCH   6  25
ATOM     25  C   UNL     1      -0.949  11.980  22.669  0.00  0.00    +0.000 C 
ATOM     26  N   UNL     1      -0.488  13.114  23.090  0.00  0.00    +0.000 NA
ATOM     27  N   UNL     1      -2.125  11.558  23.218  0.00  0.00    +0.000 N 
ATOM     28  H   UNL     1       0.365  13.380  22.593  0.00  0.00    +0.000 HD
ATOM     29  H   UNL     1      -2.222  10.561  23.366  0.00  0.00    +0.000 HD
ATOM     30  H   UNL     1      -2.370  12.106  24.037  0.00  0.00    +0.000 HD
ENDBRANCH   6  25
TORSDOF 3
ENDMDL
MODEL 8
REMARK VINA RESULT:      -7.6      0.837      1.056
REMARK  Name = 
REMARK  3 active torsions:
REMARK  status: ('A' for Active; 'I' for Inactive)
REMARK    1  A    between atoms: C_2  and  C_4
REMARK    2  A    between atoms: C_7  and  N_8
REMARK    3  A    between atoms: C_13  and  C_14
REMARK                            x       y       z     vdW  Elec       q    Type
REMARK                         _______ _______ _______ _____ _____    ______ ____
ROOT
ATOM      1  N   UNL     1       3.177   7.560  17.891  0.00  0.00    +0.000 N 
ATOM      2  C   UNL     1       2.230   8.413  18.330  0.00  0.00    +0.000 A 
ATOM      3  N   UNL     1       1.812   9.483  17.699  0.00  0.00    +0.000 NA
ATOM      4  C   UNL     1       1.020  10.155  18.590  0.00  0.00    +0.000 A 
ATOM      5  C   UNL     1       0.344  11.372  18.430  0.00  0.00    +0.000 A 
ATOM      6  C   UNL     1      -0.378  11.889  19.514  0.00  0.00    +0.000 A 
ATOM      7  C   UNL     1      -0.413  11.204  20.739  0.00  0.00    +0.000 A 
ATOM      8  C   UNL     1       0.253   9.979  20.910  0.00  0.00    +0.000 A 
ATOM      9  C   UNL     1       0.951   9.481  19.805  0.00  0.00    +0.000 A 
ATOM     10  N   UNL     1       1.703   8.349  19.597  0.00  0.00    +0.000 N 
ATOM     11  H   UNL     1       3.539   7.834  16.977  0.00  0.00    +0.000 HD
ATOM     12  H   UNL     1       1.916   7.632  20.273  0.00  0.00    +0.000 HD
ENDROOT
BRANCH   1  16
ATOM     13  C   UNL     1       3.109   3.360  18.354  0.00  0.00    +0.000 A 
ATOM     14  C   UNL     1       4.313   4.048  18.531  0.00  0.00    +0.000 A 
ATOM     15  C   UNL     1       4.370   5.437  18.351  0.00  0.00    +0.000 A 
ATOM     16  C   UNL     1       3.219   6.156  18.012  0.00  0.00    +0.000 A 
ATOM     17  C   UNL     1       2.010   5.455  17.865  0.00  0.00    +0.000 A 
ATOM     18  C   UNL     1       1.952   4.067  18.026  0.00  0.00    +0.000 A 
BRANCH  13  20
ATOM     19  N   UNL     1       1.958   1.319  18.898  0.00  0.00    +0.000 NA
ATOM     20  C   UNL     1       3.062   1.880  18.533  0.00  0.00    +0.000 C 
ATOM     21  N   UNL     1       4.184   1.126  18.332  0.00  0.00    +0.000 N 
ATOM     22  H   UNL     1       2.080   0.305  18.936  0.00  0.00    +0.000 HD
ATOM     23  H   UNL     1       4.182   0.214  18.773  0.00  0.00    +0.000 HD
ATOM     24  H   UNL     1       5.066   1.606  18.479  0.00  0.00    +0.000 HD
ENDBRANCH  13  20
ENDBRANCH   1  16
BRANCH   6  25
ATOM     25  C   UNL     1      -1.120  13.167  19.326  0.00  0.00    +0.000 C 
ATOM     26  N   UNL     1      -0.641  14.180  18.677  0.00  0.00    +0.000 NA
ATOM     27  N   UNL     1      -2.368  13.320  19.858  0.00  0.00    +0.000 N 
ATOM     28  H   UNL     1       0.272  13.966  18.268  0.00  0.00    +0.000 HD
ATOM     29  H   UNL     1      -2.535  12.872  20.751  0.00  0.00    +0.000 HD
ATOM     30  H   UNL     1      -2.662  14.291  19.840  0.00  0.00    +0.000 HD
ENDBRANCH   6  25
TORSDOF 3
ENDMDL
MODEL 9
REMARK VINA RESULT:      -7.6      1.398      2.083
REMARK  Name = 
REMARK  3 active torsions:
REMARK  status: ('A' for Active; 'I' for Inactive)
REMARK    1  A    between atoms: C_2  and  C_4
REMARK    2  A    between atoms: C_7  and  N_8
REMARK    3  A    between atoms: C_13  and  C_14
REMARK                            x       y       z     vdW  Elec       q    Type
REMARK                         _______ _______ _______ _____ _____    ______ ____
ROOT
ATOM      1  N   UNL     1       2.716   7.378  19.134  0.00  0.00    +0.000 N 
ATOM      2  C   UNL     1       1.796   8.062  19.843  0.00  0.00    +0.000 A 
ATOM      3  N   UNL     1       1.044   9.032  19.385  0.00  0.00    +0.000 NA
ATOM      4  C   UNL     1       0.426   9.573  20.481  0.00  0.00    +0.000 A 
ATOM      5  C   UNL     1      -0.465  10.653  20.551  0.00  0.00    +0.000 A 
ATOM      6  C   UNL     1      -0.937  11.055  21.807  0.00  0.00    +0.000 A 
ATOM      7  C   UNL     1      -0.515  10.396  22.972  0.00  0.00    +0.000 A 
ATOM      8  C   UNL     1       0.371   9.307  22.915  0.00  0.00    +0.000 A 
ATOM      9  C   UNL     1       0.811   8.918  21.645  0.00  0.00    +0.000 A 
ATOM     10  N   UNL     1       1.659   7.929  21.203  0.00  0.00    +0.000 N 
ATOM     11  H   UNL     1       2.759   7.694  18.165  0.00  0.00    +0.000 HD
ATOM     12  H   UNL     1       2.169   7.271  21.771  0.00  0.00    +0.000 HD
ENDROOT
BRANCH   1  16
ATOM     13  C   UNL     1       3.829   3.301  19.196  0.00  0.00    +0.000 A 
ATOM     14  C   UNL     1       2.478   3.639  19.075  0.00  0.00    +0.000 A 
ATOM     15  C   UNL     1       2.079   4.983  19.084  0.00  0.00    +0.000 A 
ATOM     16  C   UNL     1       3.028   6.004  19.195  0.00  0.00    +0.000 A 
ATOM     17  C   UNL     1       4.385   5.650  19.289  0.00  0.00    +0.000 A 
ATOM     18  C   UNL     1       4.787   4.311  19.297  0.00  0.00    +0.000 A 
BRANCH  13  20
ATOM     19  N   UNL     1       3.732   1.057  18.335  0.00  0.00    +0.000 NA
ATOM     20  C   UNL     1       4.242   1.869  19.200  0.00  0.00    +0.000 C 
ATOM     21  N   UNL     1       5.139   1.413  20.125  0.00  0.00    +0.000 N 
ATOM     22  H   UNL     1       4.146   0.129  18.443  0.00  0.00    +0.000 HD
ATOM     23  H   UNL     1       5.129   0.414  20.289  0.00  0.00    +0.000 HD
ATOM     24  H   UNL     1       5.168   1.930  20.998  0.00  0.00    +0.000 HD
ENDBRANCH  13  20
ENDBRANCH   1  16
BRANCH   6  25
ATOM     25  C   UNL     1      -1.909  12.183  21.871  0.00  0.00    +0.000 C 
ATOM     26  N   UNL     1      -2.001  13.096  20.957  0.00  0.00    +0.000 NA
ATOM     27  N   UNL     1      -2.755  12.299  22.935  0.00  0.00    +0.000 N 
ATOM     28  H   UNL     1      -1.372  12.908  20.173  0.00  0.00    +0.000 HD
ATOM     29  H   UNL     1      -2.388  12.019  23.836  0.00  0.00    +0.000 HD
ATOM     30  H   UNL     1      -3.203  13.210  22.955  0.00  0.00    +0.000 HD
ENDBRANCH   6  25
TORSDOF 3
ENDMDL
