MODEL 1
REMARK VINA RESULT:      -7.7      0.000      0.000
REMARK  Name = 
REMARK  13 active torsions:
REMARK  status: ('A' for Active; 'I' for Inactive)
REMARK    1  A    between atoms: C_1  and  C_2
REMARK    2  A    between atoms: C_2  and  N_3
REMARK    3  A    between atoms: C_2  and  C_19
REMARK    4  A    between atoms: N_3  and  P_4
REMARK    5  A    between atoms: P_4  and  O_6
REMARK    6  A    between atoms: P_4  and  C_7
REMARK    7  A    between atoms: C_7  and  N_8
REMARK    8  A    between atoms: C_9  and  O_11
REMARK    9  A    between atoms: O_11  and  C_12
REMARK   10  A    between atoms: C_12  and  C_13
REMARK   11  A    between atoms: N_21  and  C_22
REMARK   12  A    between atoms: C_22  and  C_23
REMARK   13  A    between atoms: C_23  and  C_24
REMARK                            x       y       z     vdW  Elec       q    Type
REMARK                         _______ _______ _______ _____ _____    ______ ____
ROOT
ATOM      1  P   UNL     1       4.443   2.863  19.635  0.00  0.00    +0.000 P 
ATOM      2  O   UNL     1       4.933   1.791  20.561  0.00  0.00    +0.000 OA
ENDROOT
BRANCH   1   3
ATOM      3  N   UNL     1       2.871   3.266  19.756  0.00  0.00    +0.000 NA
ATOM      4  H   UNL     1       2.715   4.185  20.153  0.00  0.00    +0.000 HD
BRANCH   3   6
ATOM      5  C   UNL     1       0.687   2.247  19.060  0.00  0.00    +0.000 C 
ATOM      6  C   UNL     1       1.928   3.040  18.654  0.00  0.00    +0.000 C 
BRANCH   6   7
ATOM      7  C   UNL     1       1.638   4.360  17.913  0.00  0.00    +0.000 C 
ATOM      8  O   UNL     1       0.797   4.406  17.016  0.00  0.00    +0.000 OA
ATOM      9  N   UNL     1       2.387   5.456  18.285  0.00  0.00    +0.000 N 
ATOM     10  H   UNL     1       3.330   5.250  18.614  0.00  0.00    +0.000 HD
BRANCH   9  11
ATOM     11  C   UNL     1       2.204   6.727  17.603  0.00  0.00    +0.000 C 
BRANCH  11  12
ATOM     12  C   UNL     1       2.757   7.910  18.404  0.00  0.00    +0.000 C 
BRANCH  12  13
ATOM     13  C   UNL     1       1.730   8.490  19.342  0.00  0.00    +0.000 A 
ATOM     14  C   UNL     1       1.545   7.937  20.616  0.00  0.00    +0.000 A 
ATOM     15  C   UNL     1       0.597   8.474  21.487  0.00  0.00    +0.000 A 
ATOM     16  C   UNL     1      -0.177   9.563  21.089  0.00  0.00    +0.000 A 
ATOM     17  C   UNL     1      -0.005  10.113  19.820  0.00  0.00    +0.000 A 
ATOM     18  C   UNL     1       0.943   9.578  18.947  0.00  0.00    +0.000 A 
ENDBRANCH  12  13
ENDBRANCH  11  12
ENDBRANCH   9  11
ENDBRANCH   6   7
ENDBRANCH   3   6
ENDBRANCH   1   3
BRANCH   1  19
ATOM     19  O   UNL     1       4.463   2.301  18.118  0.00  0.00    +0.000 OA
ATOM     20  H   UNL     1       3.734   1.674  17.952  0.00  0.00    +0.000 HD
ENDBRANCH   1  19
BRANCH   1  21
ATOM     21  C   UNL     1       5.514   4.323  19.487  0.00  0.00    +0.000 C 
BRANCH  21  22
ATOM     22  N   UNL     1       6.155   4.300  18.178  0.00  0.00    +0.000 N 
ATOM     23  C   UNL     1       7.456   4.600  17.945  0.00  0.00    +0.000 C 
ATOM     24  O   UNL     1       8.283   4.862  18.795  0.00  0.00    +0.000 OA
ATOM     25  H   UNL     1       5.583   4.062  17.377  0.00  0.00    +0.000 HD
BRANCH  23  26
ATOM     26  O   UNL     1       7.647   4.633  16.604  0.00  0.00    +0.000 OA
BRANCH  26  27
ATOM     27  C   UNL     1       6.560   5.153  15.831  0.00  0.00    +0.000 C 
BRANCH  27  28
ATOM     28  C   UNL     1       6.660   4.721  14.391  0.00  0.00    +0.000 A 
ATOM     29  C   UNL     1       7.658   5.238  13.551  0.00  0.00    +0.000 A 
ATOM     30  C   UNL     1       7.762   4.803  12.227  0.00  0.00    +0.000 A 
ATOM     31  C   UNL     1       6.869   3.856  11.730  0.00  0.00    +0.000 A 
ATOM     32  C   UNL     1       5.868   3.344  12.554  0.00  0.00    +0.000 A 
ATOM     33  C   UNL     1       5.760   3.778  13.876  0.00  0.00    +0.000 A 
ENDBRANCH  27  28
ENDBRANCH  26  27
ENDBRANCH  23  26
ENDBRANCH  21  22
ENDBRANCH   1  21
TORSDOF 12
ENDMDL
MODEL 2
REMARK VINA RESULT:      -7.5      5.072      8.029
REMARK  Name = 
REMARK  13 active torsions:
REMARK  status: ('A' for Active; 'I' for Inactive)
REMARK    1  A    between atoms: C_1  and  C_2
REMARK    2  A    between atoms: C_2  and  N_3
REMARK    3  A    between atoms: C_2  and  C_19
REMARK    4  A    between atoms: N_3  and  P_4
REMARK    5  A    between atoms: P_4  and  O_6
REMARK    6  A    between atoms: P_4  and  C_7
REMARK    7  A    between atoms: C_7  and  N_8
REMARK    8  A    between atoms: C_9  and  O_11
REMARK    9  A    between atoms: O_11  and  C_12
REMARK   10  A    between atoms: C_12  and  C_13
REMARK   11  A    between atoms: N_21  and  C_22
REMARK   12  A    between atoms: C_22  and  C_23
REMARK   13  A    between atoms: C_23  and  C_24
REMARK                            x       y       z     vdW  Elec       q    Type
REMARK                         _______ _______ _______ _____ _____    ______ ____
ROOT
ATOM      1  P   UNL     1       6.180   5.206  16.183  0.00  0.00    +0.000 P 
ATOM      2  O   UNL     1       6.419   4.625  14.823  0.00  0.00    +0.000 OA
ENDROOT
BRANCH   1   3
ATOM      3  N   UNL     1       7.499   5.518  17.084  0.00  0.00    +0.000 NA
ATOM      4  H   UNL     1       8.318   5.759  16.538  0.00  0.00    +0.000 HD
BRANCH   3   6
ATOM      5  C   UNL     1       8.052   5.731  19.521  0.00  0.00    +0.000 C 
ATOM      6  C   UNL     1       7.436   6.370  18.278  0.00  0.00    +0.000 C 
BRANCH   6   7
ATOM      7  C   UNL     1       7.951   7.787  17.958  0.00  0.00    +0.000 C 
ATOM      8  O   UNL     1       7.821   8.264  16.831  0.00  0.00    +0.000 OA
ATOM      9  N   UNL     1       8.583   8.462  18.981  0.00  0.00    +0.000 N 
ATOM     10  H   UNL     1       9.081   7.875  19.650  0.00  0.00    +0.000 HD
BRANCH   9  11
ATOM     11  C   UNL     1       9.136   9.785  18.746  0.00  0.00    +0.000 C 
BRANCH  11  12
ATOM     12  C   UNL     1       9.392  10.556  20.046  0.00  0.00    +0.000 C 
BRANCH  12  13
ATOM     13  C   UNL     1      10.341  11.709  19.845  0.00  0.00    +0.000 A 
ATOM     14  C   UNL     1      11.349  11.634  18.874  0.00  0.00    +0.000 A 
ATOM     15  C   UNL     1      12.227  12.700  18.684  0.00  0.00    +0.000 A 
ATOM     16  C   UNL     1      12.109  13.847  19.469  0.00  0.00    +0.000 A 
ATOM     17  C   UNL     1      11.116  13.926  20.443  0.00  0.00    +0.000 A 
ATOM     18  C   UNL     1      10.236  12.861  20.634  0.00  0.00    +0.000 A 
ENDBRANCH  12  13
ENDBRANCH  11  12
ENDBRANCH   9  11
ENDBRANCH   6   7
ENDBRANCH   3   6
ENDBRANCH   1   3
BRANCH   1  19
ATOM     19  O   UNL     1       5.472   4.091  17.117  0.00  0.00    +0.000 OA
ATOM     20  H   UNL     1       6.095   3.708  17.764  0.00  0.00    +0.000 HD
ENDBRANCH   1  19
BRANCH   1  21
ATOM     21  C   UNL     1       4.966   6.556  16.260  0.00  0.00    +0.000 C 
BRANCH  21  22
ATOM     22  N   UNL     1       4.172   6.400  17.473  0.00  0.00    +0.000 N 
ATOM     23  C   UNL     1       3.176   7.233  17.861  0.00  0.00    +0.000 C 
ATOM     24  O   UNL     1       2.759   8.181  17.225  0.00  0.00    +0.000 OA
ATOM     25  H   UNL     1       4.393   5.625  18.085  0.00  0.00    +0.000 HD
BRANCH  23  26
ATOM     26  O   UNL     1       2.787   6.872  19.108  0.00  0.00    +0.000 OA
BRANCH  26  27
ATOM     27  C   UNL     1       3.423   5.709  19.648  0.00  0.00    +0.000 C 
BRANCH  27  28
ATOM     28  C   UNL     1       2.463   4.551  19.730  0.00  0.00    +0.000 A 
ATOM     29  C   UNL     1       1.953   3.953  18.568  0.00  0.00    +0.000 A 
ATOM     30  C   UNL     1       1.091   2.857  18.656  0.00  0.00    +0.000 A 
ATOM     31  C   UNL     1       0.727   2.353  19.903  0.00  0.00    +0.000 A 
ATOM     32  C   UNL     1       1.220   2.947  21.064  0.00  0.00    +0.000 A 
ATOM     33  C   UNL     1       2.079   4.044  20.979  0.00  0.00    +0.000 A 
ENDBRANCH  27  28
ENDBRANCH  26  27
ENDBRANCH  23  26
ENDBRANCH  21  22
ENDBRANCH   1  21
TORSDOF 12
ENDMDL
MODEL 3
REMARK VINA RESULT:      -7.3      4.628      7.766
REMARK  Name = 
REMARK  13 active torsions:
REMARK  status: ('A' for Active; 'I' for Inactive)
REMARK    1  A    between atoms: C_1  and  C_2
REMARK    2  A    between atoms: C_2  and  N_3
REMARK    3  A    between atoms: C_2  and  C_19
REMARK    4  A    between atoms: N_3  and  P_4
REMARK    5  A    between atoms: P_4  and  O_6
REMARK    6  A    between atoms: P_4  and  C_7
REMARK    7  A    between atoms: C_7  and  N_8
REMARK    8  A    between atoms: C_9  and  O_11
REMARK    9  A    between atoms: O_11  and  C_12
REMARK   10  A    between atoms: C_12  and  C_13
REMARK   11  A    between atoms: N_21  and  C_22
REMARK   12  A    between atoms: C_22  and  C_23
REMARK   13  A    between atoms: C_23  and  C_24
REMARK                            x       y       z     vdW  Elec       q    Type
REMARK                         _______ _______ _______ _____ _____    ______ ____
ROOT
ATOM      1  P   UNL     1       6.069   4.687  15.777  0.00  0.00    +0.000 P 
ATOM      2  O   UNL     1       5.744   5.692  14.715  0.00  0.00    +0.000 OA
ENDROOT
BRANCH   1   3
ATOM      3  N   UNL     1       7.349   5.018  16.725  0.00  0.00    +0.000 NA
ATOM      4  H   UNL     1       8.171   5.315  16.213  0.00  0.00    +0.000 HD
BRANCH   3   6
ATOM      5  C   UNL     1       8.159   5.381  19.072  0.00  0.00    +0.000 C 
ATOM      6  C   UNL     1       7.218   5.817  17.950  0.00  0.00    +0.000 C 
BRANCH   6   7
ATOM      7  C   UNL     1       7.260   7.322  17.620  0.00  0.00    +0.000 C 
ATOM      8  O   UNL     1       6.481   7.808  16.802  0.00  0.00    +0.000 OA
ATOM      9  N   UNL     1       8.228   8.069  18.258  0.00  0.00    +0.000 N 
ATOM     10  H   UNL     1       9.088   7.569  18.484  0.00  0.00    +0.000 HD
BRANCH   9  11
ATOM     11  C   UNL     1       8.361   9.487  17.966  0.00  0.00    +0.000 C 
BRANCH  11  12
ATOM     12  C   UNL     1       9.226  10.221  18.997  0.00  0.00    +0.000 C 
BRANCH  12  13
ATOM     13  C   UNL     1       9.793  11.506  18.451  0.00  0.00    +0.000 A 
ATOM     14  C   UNL     1      11.070  11.526  17.874  0.00  0.00    +0.000 A 
ATOM     15  C   UNL     1      11.595  12.713  17.365  0.00  0.00    +0.000 A 
ATOM     16  C   UNL     1      10.850  13.890  17.434  0.00  0.00    +0.000 A 
ATOM     17  C   UNL     1       9.584  13.881  18.014  0.00  0.00    +0.000 A 
ATOM     18  C   UNL     1       9.056  12.694  18.524  0.00  0.00    +0.000 A 
ENDBRANCH  12  13
ENDBRANCH  11  12
ENDBRANCH   9  11
ENDBRANCH   6   7
ENDBRANCH   3   6
ENDBRANCH   1   3
BRANCH   1  19
ATOM     19  O   UNL     1       6.595   3.327  15.076  0.00  0.00    +0.000 OA
ATOM     20  H   UNL     1       7.558   3.347  14.919  0.00  0.00    +0.000 HD
ENDBRANCH   1  19
BRANCH   1  21
ATOM     21  C   UNL     1       4.653   4.068  16.733  0.00  0.00    +0.000 C 
BRANCH  21  22
ATOM     22  N   UNL     1       4.416   4.971  17.853  0.00  0.00    +0.000 N 
ATOM     23  C   UNL     1       3.922   4.599  19.058  0.00  0.00    +0.000 C 
ATOM     24  O   UNL     1       3.673   3.460  19.400  0.00  0.00    +0.000 OA
ATOM     25  H   UNL     1       4.614   5.954  17.715  0.00  0.00    +0.000 HD
BRANCH  23  26
ATOM     26  O   UNL     1       3.683   5.722  19.779  0.00  0.00    +0.000 OA
BRANCH  26  27
ATOM     27  C   UNL     1       2.305   6.033  20.013  0.00  0.00    +0.000 C 
BRANCH  27  28
ATOM     28  C   UNL     1       1.977   7.430  19.557  0.00  0.00    +0.000 A 
ATOM     29  C   UNL     1       2.280   7.854  18.254  0.00  0.00    +0.000 A 
ATOM     30  C   UNL     1       1.938   9.141  17.831  0.00  0.00    +0.000 A 
ATOM     31  C   UNL     1       1.298  10.017  18.705  0.00  0.00    +0.000 A 
ATOM     32  C   UNL     1       1.002   9.609  20.005  0.00  0.00    +0.000 A 
ATOM     33  C   UNL     1       1.344   8.324  20.431  0.00  0.00    +0.000 A 
ENDBRANCH  27  28
ENDBRANCH  26  27
ENDBRANCH  23  26
ENDBRANCH  21  22
ENDBRANCH   1  21
TORSDOF 12
ENDMDL
MODEL 4
REMARK VINA RESULT:      -7.3      4.577      8.480
REMARK  Name = 
REMARK  13 active torsions:
REMARK  status: ('A' for Active; 'I' for Inactive)
REMARK    1  A    between atoms: C_1  and  C_2
REMARK    2  A    between atoms: C_2  and  N_3
REMARK    3  A    between atoms: C_2  and  C_19
REMARK    4  A    between atoms: N_3  and  P_4
REMARK    5  A    between atoms: P_4  and  O_6
REMARK    6  A    between atoms: P_4  and  C_7
REMARK    7  A    between atoms: C_7  and  N_8
REMARK    8  A    between atoms: C_9  and  O_11
REMARK    9  A    between atoms: O_11  and  C_12
REMARK   10  A    between atoms: C_12  and  C_13
REMARK   11  A    between atoms: N_21  and  C_22
REMARK   12  A    between atoms: C_22  and  C_23
REMARK   13  A    between atoms: C_23  and  C_24
REMARK                            x       y       z     vdW  Elec       q    Type
REMARK                         _______ _______ _______ _____ _____    ______ ____
ROOT
ATOM      1  P   UNL     1       4.949   4.851  18.394  0.00  0.00    +0.000 P 
ATOM      2  O   UNL     1       4.315   5.681  17.319  0.00  0.00    +0.000 OA
ENDROOT
BRANCH   1   3
ATOM      3  N   UNL     1       6.377   5.376  18.970  0.00  0.00    +0.000 NA
ATOM      4  H   UNL     1       6.708   4.857  19.775  0.00  0.00    +0.000 HD
BRANCH   3   6
ATOM      5  C   UNL     1       7.566   4.786  16.841  0.00  0.00    +0.000 C 
ATOM      6  C   UNL     1       7.506   5.676  18.081  0.00  0.00    +0.000 C 
BRANCH   6   7
ATOM      7  C   UNL     1       7.579   7.189  17.794  0.00  0.00    +0.000 C 
ATOM      8  O   UNL     1       6.944   7.684  16.864  0.00  0.00    +0.000 OA
ATOM      9  N   UNL     1       8.410   7.933  18.605  0.00  0.00    +0.000 N 
ATOM     10  H   UNL     1       9.227   7.439  18.965  0.00  0.00    +0.000 HD
BRANCH   9  11
ATOM     11  C   UNL     1       8.568   9.359  18.371  0.00  0.00    +0.000 C 
BRANCH  11  12
ATOM     12  C   UNL     1       9.180  10.089  19.572  0.00  0.00    +0.000 C 
BRANCH  12  13
ATOM     13  C   UNL     1      10.201  11.114  19.153  0.00  0.00    +0.000 A 
ATOM     14  C   UNL     1      11.036  11.712  20.108  0.00  0.00    +0.000 A 
ATOM     15  C   UNL     1      11.984  12.658  19.722  0.00  0.00    +0.000 A 
ATOM     16  C   UNL     1      12.101  13.020  18.380  0.00  0.00    +0.000 A 
ATOM     17  C   UNL     1      11.270  12.437  17.426  0.00  0.00    +0.000 A 
ATOM     18  C   UNL     1      10.320  11.489  17.809  0.00  0.00    +0.000 A 
ENDBRANCH  12  13
ENDBRANCH  11  12
ENDBRANCH   9  11
ENDBRANCH   6   7
ENDBRANCH   3   6
ENDBRANCH   1   3
BRANCH   1  19
ATOM     19  O   UNL     1       5.414   3.436  17.764  0.00  0.00    +0.000 OA
ATOM     20  H   UNL     1       4.771   3.098  17.111  0.00  0.00    +0.000 HD
ENDBRANCH   1  19
BRANCH   1  21
ATOM     21  C   UNL     1       3.837   4.300  19.721  0.00  0.00    +0.000 C 
BRANCH  21  22
ATOM     22  N   UNL     1       3.039   5.438  20.163  0.00  0.00    +0.000 N 
ATOM     23  C   UNL     1       1.792   5.355  20.688  0.00  0.00    +0.000 C 
ATOM     24  O   UNL     1       1.194   4.325  20.928  0.00  0.00    +0.000 OA
ATOM     25  H   UNL     1       3.435   6.363  20.051  0.00  0.00    +0.000 HD
BRANCH  23  26
ATOM     26  O   UNL     1       1.307   6.613  20.821  0.00  0.00    +0.000 OA
BRANCH  26  27
ATOM     27  C   UNL     1       2.010   7.633  20.103  0.00  0.00    +0.000 C 
BRANCH  27  28
ATOM     28  C   UNL     1       1.196   8.897  20.016  0.00  0.00    +0.000 A 
ATOM     29  C   UNL     1       0.728   9.535  21.176  0.00  0.00    +0.000 A 
ATOM     30  C   UNL     1       0.005  10.726  21.085  0.00  0.00    +0.000 A 
ATOM     31  C   UNL     1      -0.263  11.288  19.838  0.00  0.00    +0.000 A 
ATOM     32  C   UNL     1       0.189  10.657  18.679  0.00  0.00    +0.000 A 
ATOM     33  C   UNL     1       0.910   9.465  18.768  0.00  0.00    +0.000 A 
ENDBRANCH  27  28
ENDBRANCH  26  27
ENDBRANCH  23  26
ENDBRANCH  21  22
ENDBRANCH   1  21
TORSDOF 12
ENDMDL
MODEL 5
REMARK VINA RESULT:      -7.2      0.864      1.555
REMARK  Name = 
REMARK  13 active torsions:
REMARK  status: ('A' for Active; 'I' for Inactive)
REMARK    1  A    between atoms: C_1  and  C_2
REMARK    2  A    between atoms: C_2  and  N_3
REMARK    3  A    between atoms: C_2  and  C_19
REMARK    4  A    between atoms: N_3  and  P_4
REMARK    5  A    between atoms: P_4  and  O_6
REMARK    6  A    between atoms: P_4  and  C_7
REMARK    7  A    between atoms: C_7  and  N_8
REMARK    8  A    between atoms: C_9  and  O_11
REMARK    9  A    between atoms: O_11  and  C_12
REMARK   10  A    between atoms: C_12  and  C_13
REMARK   11  A    between atoms: N_21  and  C_22
REMARK   12  A    between atoms: C_22  and  C_23
REMARK   13  A    between atoms: C_23  and  C_24
REMARK                            x       y       z     vdW  Elec       q    Type
REMARK                         _______ _______ _______ _____ _____    ______ ____
ROOT
ATOM      1  P   UNL     1       4.054   2.689  19.923  0.00  0.00    +0.000 P 
ATOM      2  O   UNL     1       3.233   2.664  21.176  0.00  0.00    +0.000 OA
ENDROOT
BRANCH   1   3
ATOM      3  N   UNL     1       3.304   2.229  18.553  0.00  0.00    +0.000 NA
ATOM      4  H   UNL     1       3.401   1.242  18.346  0.00  0.00    +0.000 HD
BRANCH   3   6
ATOM      5  C   UNL     1       0.852   1.788  18.855  0.00  0.00    +0.000 C 
ATOM      6  C   UNL     1       1.938   2.666  18.236  0.00  0.00    +0.000 C 
BRANCH   6   7
ATOM      7  C   UNL     1       1.779   4.175  18.503  0.00  0.00    +0.000 C 
ATOM      8  O   UNL     1       1.090   4.579  19.439  0.00  0.00    +0.000 OA
ATOM      9  N   UNL     1       2.414   5.030  17.626  0.00  0.00    +0.000 N 
ATOM     10  H   UNL     1       2.508   4.685  16.671  0.00  0.00    +0.000 HD
BRANCH   9  11
ATOM     11  C   UNL     1       2.275   6.468  17.784  0.00  0.00    +0.000 C 
BRANCH  11  12
ATOM     12  C   UNL     1       2.783   6.963  19.142  0.00  0.00    +0.000 C 
BRANCH  12  13
ATOM     13  C   UNL     1       1.866   7.991  19.751  0.00  0.00    +0.000 A 
ATOM     14  C   UNL     1       1.464   9.109  19.007  0.00  0.00    +0.000 A 
ATOM     15  C   UNL     1       0.612  10.060  19.568  0.00  0.00    +0.000 A 
ATOM     16  C   UNL     1       0.160   9.905  20.878  0.00  0.00    +0.000 A 
ATOM     17  C   UNL     1       0.562   8.801  21.627  0.00  0.00    +0.000 A 
ATOM     18  C   UNL     1       1.414   7.848  21.068  0.00  0.00    +0.000 A 
ENDBRANCH  12  13
ENDBRANCH  11  12
ENDBRANCH   9  11
ENDBRANCH   6   7
ENDBRANCH   3   6
ENDBRANCH   1   3
BRANCH   1  19
ATOM     19  O   UNL     1       5.188   1.538  20.010  0.00  0.00    +0.000 OA
ATOM     20  H   UNL     1       4.800   0.653  20.148  0.00  0.00    +0.000 HD
ENDBRANCH   1  19
BRANCH   1  21
ATOM     21  C   UNL     1       5.072   4.173  19.678  0.00  0.00    +0.000 C 
BRANCH  21  22
ATOM     22  N   UNL     1       5.829   4.020  18.441  0.00  0.00    +0.000 N 
ATOM     23  C   UNL     1       7.028   4.599  18.189  0.00  0.00    +0.000 C 
ATOM     24  O   UNL     1       7.671   5.265  18.976  0.00  0.00    +0.000 OA
ATOM     25  H   UNL     1       5.421   3.458  17.706  0.00  0.00    +0.000 HD
BRANCH  23  26
ATOM     26  O   UNL     1       7.341   4.370  16.890  0.00  0.00    +0.000 OA
BRANCH  26  27
ATOM     27  C   UNL     1       6.975   5.401  15.968  0.00  0.00    +0.000 C 
BRANCH  27  28
ATOM     28  C   UNL     1       6.923   4.878  14.557  0.00  0.00    +0.000 A 
ATOM     29  C   UNL     1       6.052   3.835  14.206  0.00  0.00    +0.000 A 
ATOM     30  C   UNL     1       5.987   3.382  12.886  0.00  0.00    +0.000 A 
ATOM     31  C   UNL     1       6.793   3.960  11.908  0.00  0.00    +0.000 A 
ATOM     32  C   UNL     1       7.669   4.990  12.249  0.00  0.00    +0.000 A 
ATOM     33  C   UNL     1       7.739   5.442  13.567  0.00  0.00    +0.000 A 
ENDBRANCH  27  28
ENDBRANCH  26  27
ENDBRANCH  23  26
ENDBRANCH  21  22
ENDBRANCH   1  21
TORSDOF 12
ENDMDL
MODEL 6
REMARK VINA RESULT:      -7.2      3.861      7.332
REMARK  Name = 
REMARK  13 active torsions:
REMARK  status: ('A' for Active; 'I' for Inactive)
REMARK    1  A    between atoms: C_1  and  C_2
REMARK    2  A    between atoms: C_2  and  N_3
REMARK    3  A    between atoms: C_2  and  C_19
REMARK    4  A    between atoms: N_3  and  P_4
REMARK    5  A    between atoms: P_4  and  O_6
REMARK    6  A    between atoms: P_4  and  C_7
REMARK    7  A    between atoms: C_7  and  N_8
REMARK    8  A    between atoms: C_9  and  O_11
REMARK    9  A    between atoms: O_11  and  C_12
REMARK   10  A    between atoms: C_12  and  C_13
REMARK   11  A    between atoms: N_21  and  C_22
REMARK   12  A    between atoms: C_22  and  C_23
REMARK   13  A    between atoms: C_23  and  C_24
REMARK                            x       y       z     vdW  Elec       q    Type
REMARK                         _______ _______ _______ _____ _____    ______ ____
ROOT
ATOM      1  P   UNL     1       4.803   4.015  17.883  0.00  0.00    +0.000 P 
ATOM      2  O   UNL     1       4.277   5.310  17.344  0.00  0.00    +0.000 OA
ENDROOT
BRANCH   1   3
ATOM      3  N   UNL     1       6.389   3.968  18.245  0.00  0.00    +0.000 NA
ATOM      4  H   UNL     1       6.742   3.033  18.413  0.00  0.00    +0.000 HD
BRANCH   3   6
ATOM      5  C   UNL     1       7.140   4.716  15.971  0.00  0.00    +0.000 C 
ATOM      6  C   UNL     1       7.379   4.736  17.480  0.00  0.00    +0.000 C 
BRANCH   6   7
ATOM      7  C   UNL     1       7.558   6.141  18.087  0.00  0.00    +0.000 C 
ATOM      8  O   UNL     1       7.760   6.285  19.292  0.00  0.00    +0.000 OA
ATOM      9  N   UNL     1       7.445   7.209  17.221  0.00  0.00    +0.000 N 
ATOM     10  H   UNL     1       6.814   7.067  16.432  0.00  0.00    +0.000 HD
BRANCH   9  11
ATOM     11  C   UNL     1       7.556   8.568  17.724  0.00  0.00    +0.000 C 
BRANCH  11  12
ATOM     12  C   UNL     1       8.848   8.799  18.515  0.00  0.00    +0.000 C 
BRANCH  12  13
ATOM     13  C   UNL     1       9.052  10.252  18.859  0.00  0.00    +0.000 A 
ATOM     14  C   UNL     1       9.385  10.629  20.166  0.00  0.00    +0.000 A 
ATOM     15  C   UNL     1       9.577  11.973  20.485  0.00  0.00    +0.000 A 
ATOM     16  C   UNL     1       9.430  12.950  19.502  0.00  0.00    +0.000 A 
ATOM     17  C   UNL     1       9.090  12.584  18.201  0.00  0.00    +0.000 A 
ATOM     18  C   UNL     1       8.898  11.240  17.879  0.00  0.00    +0.000 A 
ENDBRANCH  12  13
ENDBRANCH  11  12
ENDBRANCH   9  11
ENDBRANCH   6   7
ENDBRANCH   3   6
ENDBRANCH   1   3
BRANCH   1  19
ATOM     19  O   UNL     1       4.758   2.898  16.713  0.00  0.00    +0.000 OA
ATOM     20  H   UNL     1       3.870   2.506  16.617  0.00  0.00    +0.000 HD
ENDBRANCH   1  19
BRANCH   1  21
ATOM     21  C   UNL     1       3.786   3.225  19.166  0.00  0.00    +0.000 C 
BRANCH  21  22
ATOM     22  N   UNL     1       3.021   4.258  19.855  0.00  0.00    +0.000 N 
ATOM     23  C   UNL     1       1.676   4.250  20.017  0.00  0.00    +0.000 C 
ATOM     24  O   UNL     1       0.929   3.354  19.675  0.00  0.00    +0.000 OA
ATOM     25  H   UNL     1       3.528   5.053  20.223  0.00  0.00    +0.000 HD
BRANCH  23  26
ATOM     26  O   UNL     1       1.309   5.440  20.550  0.00  0.00    +0.000 OA
BRANCH  26  27
ATOM     27  C   UNL     1       2.331   6.439  20.609  0.00  0.00    +0.000 C 
BRANCH  27  28
ATOM     28  C   UNL     1       1.920   7.684  19.867  0.00  0.00    +0.000 A 
ATOM     29  C   UNL     1       2.305   7.889  18.533  0.00  0.00    +0.000 A 
ATOM     30  C   UNL     1       1.889   9.030  17.844  0.00  0.00    +0.000 A 
ATOM     31  C   UNL     1       1.090   9.979  18.481  0.00  0.00    +0.000 A 
ATOM     32  C   UNL     1       0.711   9.789  19.809  0.00  0.00    +0.000 A 
ATOM     33  C   UNL     1       1.128   8.651  20.501  0.00  0.00    +0.000 A 
ENDBRANCH  27  28
ENDBRANCH  26  27
ENDBRANCH  23  26
ENDBRANCH  21  22
ENDBRANCH   1  21
TORSDOF 12
ENDMDL
MODEL 7
REMARK VINA RESULT:      -7.2      1.203      1.318
REMARK  Name = 
REMARK  13 active torsions:
REMARK  status: ('A' for Active; 'I' for Inactive)
REMARK    1  A    between atoms: C_1  and  C_2
REMARK    2  A    between atoms: C_2  and  N_3
REMARK    3  A    between atoms: C_2  and  C_19
REMARK    4  A    between atoms: N_3  and  P_4
REMARK    5  A    between atoms: P_4  and  O_6
REMARK    6  A    between atoms: P_4  and  C_7
REMARK    7  A    between atoms: C_7  and  N_8
REMARK    8  A    between atoms: C_9  and  O_11
REMARK    9  A    between atoms: O_11  and  C_12
REMARK   10  A    between atoms: C_12  and  C_13
REMARK   11  A    between atoms: N_21  and  C_22
REMARK   12  A    between atoms: C_22  and  C_23
REMARK   13  A    between atoms: C_23  and  C_24
REMARK                            x       y       z     vdW  Elec       q    Type
REMARK                         _______ _______ _______ _____ _____    ______ ____
ROOT
ATOM      1  P   UNL     1       3.868   2.659  19.641  0.00  0.00    +0.000 P 
ATOM      2  O   UNL     1       3.278   2.367  20.987  0.00  0.00    +0.000 OA
ENDROOT
BRANCH   1   3
ATOM      3  N   UNL     1       2.816   2.959  18.435  0.00  0.00    +0.000 NA
ATOM      4  H   UNL     1       2.592   2.144  17.877  0.00  0.00    +0.000 HD
BRANCH   3   6
ATOM      5  C   UNL     1       0.524   3.031  19.452  0.00  0.00    +0.000 C 
ATOM      6  C   UNL     1       1.602   3.756  18.649  0.00  0.00    +0.000 C 
BRANCH   6   7
ATOM      7  C   UNL     1       1.963   5.160  19.173  0.00  0.00    +0.000 C 
ATOM      8  O   UNL     1       1.798   5.451  20.357  0.00  0.00    +0.000 OA
ATOM      9  N   UNL     1       2.442   6.062  18.247  0.00  0.00    +0.000 N 
ATOM     10  H   UNL     1       2.086   5.945  17.298  0.00  0.00    +0.000 HD
BRANCH   9  11
ATOM     11  C   UNL     1       2.763   7.420  18.653  0.00  0.00    +0.000 C 
BRANCH  11  12
ATOM     12  C   UNL     1       2.017   8.474  17.827  0.00  0.00    +0.000 C 
BRANCH  12  13
ATOM     13  C   UNL     1       1.029   9.251  18.658  0.00  0.00    +0.000 A 
ATOM     14  C   UNL     1       1.079   9.190  20.057  0.00  0.00    +0.000 A 
ATOM     15  C   UNL     1       0.168   9.910  20.828  0.00  0.00    +0.000 A 
ATOM     16  C   UNL     1      -0.805  10.694  20.206  0.00  0.00    +0.000 A 
ATOM     17  C   UNL     1      -0.867  10.753  18.815  0.00  0.00    +0.000 A 
ATOM     18  C   UNL     1       0.045  10.033  18.042  0.00  0.00    +0.000 A 
ENDBRANCH  12  13
ENDBRANCH  11  12
ENDBRANCH   9  11
ENDBRANCH   6   7
ENDBRANCH   3   6
ENDBRANCH   1   3
BRANCH   1  19
ATOM     19  O   UNL     1       4.564   1.317  19.066  0.00  0.00    +0.000 OA
ATOM     20  H   UNL     1       5.396   1.109  19.532  0.00  0.00    +0.000 HD
ENDBRANCH   1  19
BRANCH   1  21
ATOM     21  C   UNL     1       5.267   3.818  19.630  0.00  0.00    +0.000 C 
BRANCH  21  22
ATOM     22  N   UNL     1       5.349   4.438  18.312  0.00  0.00    +0.000 N 
ATOM     23  C   UNL     1       6.499   4.679  17.638  0.00  0.00    +0.000 C 
ATOM     24  O   UNL     1       7.612   4.353  18.000  0.00  0.00    +0.000 OA
ATOM     25  H   UNL     1       4.484   4.730  17.875  0.00  0.00    +0.000 HD
BRANCH  23  26
ATOM     26  O   UNL     1       6.196   5.410  16.538  0.00  0.00    +0.000 OA
BRANCH  26  27
ATOM     27  C   UNL     1       7.216   5.484  15.537  0.00  0.00    +0.000 C 
BRANCH  27  28
ATOM     28  C   UNL     1       6.786   4.797  14.268  0.00  0.00    +0.000 A 
ATOM     29  C   UNL     1       7.572   4.868  13.107  0.00  0.00    +0.000 A 
ATOM     30  C   UNL     1       7.181   4.197  11.946  0.00  0.00    +0.000 A 
ATOM     31  C   UNL     1       6.001   3.457  11.931  0.00  0.00    +0.000 A 
ATOM     32  C   UNL     1       5.208   3.388  13.075  0.00  0.00    +0.000 A 
ATOM     33  C   UNL     1       5.595   4.060  14.236  0.00  0.00    +0.000 A 
ENDBRANCH  27  28
ENDBRANCH  26  27
ENDBRANCH  23  26
ENDBRANCH  21  22
ENDBRANCH   1  21
TORSDOF 12
ENDMDL
MODEL 8
REMARK VINA RESULT:      -7.2      2.470      5.279
REMARK  Name = 
REMARK  13 active torsions:
REMARK  status: ('A' for Active; 'I' for Inactive)
REMARK    1  A    between atoms: C_1  and  C_2
REMARK    2  A    between atoms: C_2  and  N_3
REMARK    3  A    between atoms: C_2  and  C_19
REMARK    4  A    between atoms: N_3  and  P_4
REMARK    5  A    between atoms: P_4  and  O_6
REMARK    6  A    between atoms: P_4  and  C_7
REMARK    7  A    between atoms: C_7  and  N_8
REMARK    8  A    between atoms: C_9  and  O_11
REMARK    9  A    between atoms: O_11  and  C_12
REMARK   10  A    between atoms: C_12  and  C_13
REMARK   11  A    between atoms: N_21  and  C_22
REMARK   12  A    between atoms: C_22  and  C_23
REMARK   13  A    between atoms: C_23  and  C_24
REMARK                            x       y       z     vdW  Elec       q    Type
REMARK                         _______ _______ _______ _____ _____    ______ ____
ROOT
ATOM      1  P   UNL     1       7.274   6.758  17.378  0.00  0.00    +0.000 P 
ATOM      2  O   UNL     1       7.765   6.363  16.019  0.00  0.00    +0.000 OA
ENDROOT
BRANCH   1   3
ATOM      3  N   UNL     1       5.720   7.229  17.483  0.00  0.00    +0.000 NA
ATOM      4  H   UNL     1       5.598   8.235  17.482  0.00  0.00    +0.000 HD
BRANCH   3   6
ATOM      5  C   UNL     1       5.162   5.449  15.805  0.00  0.00    +0.000 C 
ATOM      6  C   UNL     1       4.667   6.606  16.671  0.00  0.00    +0.000 C 
BRANCH   6   7
ATOM      7  C   UNL     1       3.437   6.281  17.541  0.00  0.00    +0.000 C 
ATOM      8  O   UNL     1       2.865   5.196  17.442  0.00  0.00    +0.000 OA
ATOM      9  N   UNL     1       3.004   7.272  18.397  0.00  0.00    +0.000 N 
ATOM     10  H   UNL     1       3.169   8.227  18.078  0.00  0.00    +0.000 HD
BRANCH   9  11
ATOM     11  C   UNL     1       1.824   7.060  19.218  0.00  0.00    +0.000 C 
BRANCH  11  12
ATOM     12  C   UNL     1       2.003   7.576  20.650  0.00  0.00    +0.000 C 
BRANCH  12  13
ATOM     13  C   UNL     1       1.078   8.725  20.959  0.00  0.00    +0.000 A 
ATOM     14  C   UNL     1       0.601   9.546  19.928  0.00  0.00    +0.000 A 
ATOM     15  C   UNL     1      -0.257  10.608  20.211  0.00  0.00    +0.000 A 
ATOM     16  C   UNL     1      -0.641  10.861  21.528  0.00  0.00    +0.000 A 
ATOM     17  C   UNL     1      -0.165  10.055  22.560  0.00  0.00    +0.000 A 
ATOM     18  C   UNL     1       0.694   8.992  22.279  0.00  0.00    +0.000 A 
ENDBRANCH  12  13
ENDBRANCH  11  12
ENDBRANCH   9  11
ENDBRANCH   6   7
ENDBRANCH   3   6
ENDBRANCH   1   3
BRANCH   1  19
ATOM     19  O   UNL     1       8.005   8.130  17.827  0.00  0.00    +0.000 OA
ATOM     20  H   UNL     1       7.580   8.530  18.609  0.00  0.00    +0.000 HD
ENDBRANCH   1  19
BRANCH   1  21
ATOM     21  C   UNL     1       7.743   5.646  18.737  0.00  0.00    +0.000 C 
BRANCH  21  22
ATOM     22  N   UNL     1       6.905   4.454  18.674  0.00  0.00    +0.000 N 
ATOM     23  C   UNL     1       5.701   4.319  19.281  0.00  0.00    +0.000 C 
ATOM     24  O   UNL     1       5.121   5.188  19.902  0.00  0.00    +0.000 OA
ATOM     25  H   UNL     1       7.255   3.658  18.155  0.00  0.00    +0.000 HD
BRANCH  23  26
ATOM     26  O   UNL     1       5.301   3.032  19.141  0.00  0.00    +0.000 OA
BRANCH  26  27
ATOM     27  C   UNL     1       4.502   2.507  20.205  0.00  0.00    +0.000 C 
BRANCH  27  28
ATOM     28  C   UNL     1       3.035   2.731  19.947  0.00  0.00    +0.000 A 
ATOM     29  C   UNL     1       2.381   2.083  18.887  0.00  0.00    +0.000 A 
ATOM     30  C   UNL     1       1.013   2.271  18.679  0.00  0.00    +0.000 A 
ATOM     31  C   UNL     1       0.287   3.111  19.521  0.00  0.00    +0.000 A 
ATOM     32  C   UNL     1       0.929   3.767  20.571  0.00  0.00    +0.000 A 
ATOM     33  C   UNL     1       2.297   3.584  20.779  0.00  0.00    +0.000 A 
ENDBRANCH  27  28
ENDBRANCH  26  27
ENDBRANCH  23  26
ENDBRANCH  21  22
ENDBRANCH   1  21
TORSDOF 12
ENDMDL
MODEL 9
REMARK VINA RESULT:      -7.1      2.892      4.820
REMARK  Name = 
REMARK  13 active torsions:
REMARK  status: ('A' for Active; 'I' for Inactive)
REMARK    1  A    between atoms: C_1  and  C_2
REMARK    2  A    between atoms: C_2  and  N_3
REMARK    3  A    between atoms: C_2  and  C_19
REMARK    4  A    between atoms: N_3  and  P_4
REMARK    5  A    between atoms: P_4  and  O_6
REMARK    6  A    between atoms: P_4  and  C_7
REMARK    7  A    between atoms: C_7  and  N_8
REMARK    8  A    between atoms: C_9  and  O_11
REMARK    9  A    between atoms: O_11  and  C_12
REMARK   10  A    between atoms: C_12  and  C_13
REMARK   11  A    between atoms: N_21  and  C_22
REMARK   12  A    between atoms: C_22  and  C_23
REMARK   13  A    between atoms: C_23  and  C_24
REMARK                            x       y       z     vdW  Elec       q    Type
REMARK                         _______ _______ _______ _____ _____    ______ ____
ROOT
ATOM      1  P   UNL     1       1.856   4.600  19.912  0.00  0.00    +0.000 P 
ATOM      2  O   UNL     1       3.192   4.228  20.480  0.00  0.00    +0.000 OA
ENDROOT
BRANCH   1   3
ATOM      3  N   UNL     1       1.356   6.127  20.169  0.00  0.00    +0.000 NA
ATOM      4  H   UNL     1       0.929   6.269  21.077  0.00  0.00    +0.000 HD
BRANCH   3   6
ATOM      5  C   UNL     1       2.890   7.167  18.478  0.00  0.00    +0.000 C 
ATOM      6  C   UNL     1       2.198   7.283  19.835  0.00  0.00    +0.000 C 
BRANCH   6   7
ATOM      7  C   UNL     1       1.422   8.596  20.054  0.00  0.00    +0.000 C 
ATOM      8  O   UNL     1       1.097   8.953  21.185  0.00  0.00    +0.000 OA
ATOM      9  N   UNL     1       1.091   9.316  18.925  0.00  0.00    +0.000 N 
ATOM     10  H   UNL     1       0.933   8.761  18.084  0.00  0.00    +0.000 HD
BRANCH   9  11
ATOM     11  C   UNL     1       0.321  10.542  19.045  0.00  0.00    +0.000 C 
BRANCH  11  12
ATOM     12  C   UNL     1      -1.152  10.283  19.379  0.00  0.00    +0.000 C 
BRANCH  12  13
ATOM     13  C   UNL     1      -2.048  10.474  18.183  0.00  0.00    +0.000 A 
ATOM     14  C   UNL     1      -3.152  11.335  18.257  0.00  0.00    +0.000 A 
ATOM     15  C   UNL     1      -3.981  11.515  17.151  0.00  0.00    +0.000 A 
ATOM     16  C   UNL     1      -3.717  10.833  15.964  0.00  0.00    +0.000 A 
ATOM     17  C   UNL     1      -2.627   9.968  15.884  0.00  0.00    +0.000 A 
ATOM     18  C   UNL     1      -1.795   9.786  16.990  0.00  0.00    +0.000 A 
ENDBRANCH  12  13
ENDBRANCH  11  12
ENDBRANCH   9  11
ENDBRANCH   6   7
ENDBRANCH   3   6
ENDBRANCH   1   3
BRANCH   1  19
ATOM     19  O   UNL     1       0.701   3.798  20.711  0.00  0.00    +0.000 OA
ATOM     20  H   UNL     1       0.964   3.595  21.629  0.00  0.00    +0.000 HD
ENDBRANCH   1  19
BRANCH   1  21
ATOM     21  C   UNL     1       1.549   4.058  18.205  0.00  0.00    +0.000 C 
BRANCH  21  22
ATOM     22  N   UNL     1       2.825   3.987  17.503  0.00  0.00    +0.000 N 
ATOM     23  C   UNL     1       3.612   2.885  17.432  0.00  0.00    +0.000 C 
ATOM     24  O   UNL     1       3.336   1.790  17.881  0.00  0.00    +0.000 OA
ATOM     25  H   UNL     1       3.162   4.827  17.050  0.00  0.00    +0.000 HD
BRANCH  23  26
ATOM     26  O   UNL     1       4.781   3.240  16.847  0.00  0.00    +0.000 OA
BRANCH  26  27
ATOM     27  C   UNL     1       4.846   4.577  16.342  0.00  0.00    +0.000 C 
BRANCH  27  28
ATOM     28  C   UNL     1       5.926   5.369  17.031  0.00  0.00    +0.000 A 
ATOM     29  C   UNL     1       6.152   6.716  16.706  0.00  0.00    +0.000 A 
ATOM     30  C   UNL     1       7.133   7.450  17.377  0.00  0.00    +0.000 A 
ATOM     31  C   UNL     1       7.901   6.847  18.370  0.00  0.00    +0.000 A 
ATOM     32  C   UNL     1       7.691   5.507  18.693  0.00  0.00    +0.000 A 
ATOM     33  C   UNL     1       6.714   4.770  18.023  0.00  0.00    +0.000 A 
ENDBRANCH  27  28
ENDBRANCH  26  27
ENDBRANCH  23  26
ENDBRANCH  21  22
ENDBRANCH   1  21
TORSDOF 12
ENDMDL
