MODEL 1
REMARK VINA RESULT:      -9.5      0.000      0.000
REMARK  Name = 
REMARK  3 active torsions:
REMARK  status: ('A' for Active; 'I' for Inactive)
REMARK    1  A    between atoms: N_4  and  C_5
REMARK    2  A    between atoms: C_9  and  C_10
REMARK    3  A    between atoms: C_22  and  C_23
REMARK                            x       y       z     vdW  Elec       q    Type
REMARK                         _______ _______ _______ _____ _____    ______ ____
ROOT
ATOM      1  N   UNL     1       1.503   7.410  21.178  0.00  0.00    +0.000 N 
ATOM      2  C   UNL     1       1.510   8.334  20.206  0.00  0.00    +0.000 A 
ATOM      3  N   UNL     1       1.002   9.546  20.373  0.00  0.00    +0.000 NA
ATOM      4  N   UNL     1       1.187  10.166  19.181  0.00  0.00    +0.000 N 
ATOM      5  C   UNL     1       1.768   9.331  18.254  0.00  0.00    +0.000 A 
ATOM      6  C   UNL     1       2.067   8.164  18.918  0.00  0.00    +0.000 A 
ATOM      7  H   UNL     1       1.269   7.729  22.112  0.00  0.00    +0.000 HD
ATOM      8  H   UNL     1       2.145   6.627  21.155  0.00  0.00    +0.000 HD
ENDROOT
BRANCH   6   9
ATOM      9  C   UNL     1       2.755   7.044  18.319  0.00  0.00    +0.000 A 
ATOM     10  C   UNL     1       3.862   7.224  17.491  0.00  0.00    +0.000 A 
ATOM     11  C   UNL     1       4.533   6.108  16.981  0.00  0.00    +0.000 A 
ATOM     12  C   UNL     1       4.093   4.814  17.287  0.00  0.00    +0.000 A 
ATOM     13  C   UNL     1       2.976   4.631  18.104  0.00  0.00    +0.000 A 
ATOM     14  C   UNL     1       2.316   5.752  18.618  0.00  0.00    +0.000 A 
ATOM     15  C   UNL     1       2.464   3.278  18.484  0.00  0.00    +0.000 C 
ATOM     16  C   UNL     1       3.210   2.095  17.881  0.00  0.00    +0.000 C 
ATOM     17  N   UNL     1       4.395   2.402  17.119  0.00  0.00    +0.000 N 
ATOM     18  C   UNL     1       4.834   3.645  16.760  0.00  0.00    +0.000 C 
ATOM     19  O   UNL     1       5.818   3.781  16.035  0.00  0.00    +0.000 OA
ATOM     20  H   UNL     1       4.927   1.643  16.710  0.00  0.00    +0.000 HD
ENDBRANCH   6   9
BRANCH   4  21
ATOM     21  C   UNL     1       0.881  11.543  19.029  0.00  0.00    +0.000 A 
ATOM     22  C   UNL     1      -0.394  11.973  18.654  0.00  0.00    +0.000 A 
ATOM     23  C   UNL     1      -0.615  13.326  18.408  0.00  0.00    +0.000 A 
ATOM     24  C   UNL     1       0.444  14.235  18.488  0.00  0.00    +0.000 A 
ATOM     25  C   UNL     1       1.743  13.823  18.838  0.00  0.00    +0.000 A 
ATOM     26  C   UNL     1       1.926  12.473  19.165  0.00  0.00    +0.000 A 
BRANCH  25  27
ATOM     27  C   UNL     1       2.890  14.757  18.798  0.00  0.00    +0.000 A 
ATOM     28  C   UNL     1       2.748  16.084  19.286  0.00  0.00    +0.000 A 
ATOM     29  C   UNL     1       3.822  16.979  19.341  0.00  0.00    +0.000 A 
ATOM     30  C   UNL     1       5.046  16.539  18.887  0.00  0.00    +0.000 A 
ATOM     31  C   UNL     1       5.175  15.278  18.315  0.00  0.00    +0.000 A 
ATOM     32  C   UNL     1       4.134  14.375  18.261  0.00  0.00    +0.000 A 
ATOM     33  N   UNL     1       6.479  15.092  17.885  0.00  0.00    +0.000 N 
ATOM     34  C   UNL     1       7.291  16.149  18.283  0.00  0.00    +0.000 C 
ATOM     35  O   UNL     1       8.502  16.202  18.162  0.00  0.00    +0.000 OA
ATOM     36  C   UNL     1       6.384  17.213  18.912  0.00  0.00    +0.000 C 
ATOM     37  H   UNL     1       6.832  14.280  17.403  0.00  0.00    +0.000 HD
ENDBRANCH  25  27
ENDBRANCH   4  21
TORSDOF 3
ENDMDL
MODEL 2
REMARK VINA RESULT:      -9.5      3.822      9.982
REMARK  Name = 
REMARK  3 active torsions:
REMARK  status: ('A' for Active; 'I' for Inactive)
REMARK    1  A    between atoms: N_4  and  C_5
REMARK    2  A    between atoms: C_9  and  C_10
REMARK    3  A    between atoms: C_22  and  C_23
REMARK                            x       y       z     vdW  Elec       q    Type
REMARK                         _______ _______ _______ _____ _____    ______ ____
ROOT
ATOM      1  N   UNL     1       1.475  11.678  18.093  0.00  0.00    +0.000 N 
ATOM      2  C   UNL     1       1.357  10.634  18.928  0.00  0.00    +0.000 A 
ATOM      3  N   UNL     1       1.728   9.407  18.590  0.00  0.00    +0.000 NA
ATOM      4  N   UNL     1       1.443   8.649  19.677  0.00  0.00    +0.000 N 
ATOM      5  C   UNL     1       0.854   9.387  20.679  0.00  0.00    +0.000 A 
ATOM      6  C   UNL     1       0.865  10.695  20.252  0.00  0.00    +0.000 A 
ATOM      7  H   UNL     1       2.035  11.536  17.260  0.00  0.00    +0.000 HD
ATOM      8  H   UNL     1       1.486  12.626  18.447  0.00  0.00    +0.000 HD
ENDROOT
BRANCH   6   9
ATOM      9  C   UNL     1       0.399  11.810  21.043  0.00  0.00    +0.000 A 
ATOM     10  C   UNL     1       1.065  13.035  21.043  0.00  0.00    +0.000 A 
ATOM     11  C   UNL     1       0.544  14.105  21.778  0.00  0.00    +0.000 A 
ATOM     12  C   UNL     1      -0.633  13.950  22.521  0.00  0.00    +0.000 A 
ATOM     13  C   UNL     1      -1.293  12.720  22.534  0.00  0.00    +0.000 A 
ATOM     14  C   UNL     1      -0.771  11.657  21.789  0.00  0.00    +0.000 A 
ATOM     15  C   UNL     1      -2.563  12.491  23.291  0.00  0.00    +0.000 C 
ATOM     16  C   UNL     1      -3.075  13.676  24.099  0.00  0.00    +0.000 C 
ATOM     17  N   UNL     1      -2.358  14.918  23.945  0.00  0.00    +0.000 N 
ATOM     18  C   UNL     1      -1.185  15.103  23.270  0.00  0.00    +0.000 C 
ATOM     19  O   UNL     1      -0.618  16.195  23.277  0.00  0.00    +0.000 OA
ATOM     20  H   UNL     1      -2.671  15.734  24.456  0.00  0.00    +0.000 HD
ENDBRANCH   6   9
BRANCH   4  21
ATOM     21  C   UNL     1       1.835   7.286  19.728  0.00  0.00    +0.000 A 
ATOM     22  C   UNL     1       1.613   6.502  20.864  0.00  0.00    +0.000 A 
ATOM     23  C   UNL     1       2.115   5.204  20.907  0.00  0.00    +0.000 A 
ATOM     24  C   UNL     1       2.877   4.710  19.845  0.00  0.00    +0.000 A 
ATOM     25  C   UNL     1       3.138   5.489  18.702  0.00  0.00    +0.000 A 
ATOM     26  C   UNL     1       2.551   6.760  18.640  0.00  0.00    +0.000 A 
BRANCH  25  27
ATOM     27  C   UNL     1       4.048   5.020  17.635  0.00  0.00    +0.000 A 
ATOM     28  C   UNL     1       3.839   3.754  17.023  0.00  0.00    +0.000 A 
ATOM     29  C   UNL     1       4.625   3.300  15.958  0.00  0.00    +0.000 A 
ATOM     30  C   UNL     1       5.639   4.121  15.515  0.00  0.00    +0.000 A 
ATOM     31  C   UNL     1       5.917   5.316  16.170  0.00  0.00    +0.000 A 
ATOM     32  C   UNL     1       5.148   5.789  17.213  0.00  0.00    +0.000 A 
ATOM     33  N   UNL     1       7.009   5.929  15.577  0.00  0.00    +0.000 N 
ATOM     34  C   UNL     1       7.402   5.248  14.431  0.00  0.00    +0.000 C 
ATOM     35  O   UNL     1       8.247   5.620  13.635  0.00  0.00    +0.000 OA
ATOM     36  C   UNL     1       6.568   3.965  14.350  0.00  0.00    +0.000 C 
ATOM     37  H   UNL     1       7.441   6.788  15.881  0.00  0.00    +0.000 HD
ENDBRANCH  25  27
ENDBRANCH   4  21
TORSDOF 3
ENDMDL
MODEL 3
REMARK VINA RESULT:      -9.5      4.458      6.864
REMARK  Name = 
REMARK  3 active torsions:
REMARK  status: ('A' for Active; 'I' for Inactive)
REMARK    1  A    between atoms: N_4  and  C_5
REMARK    2  A    between atoms: C_9  and  C_10
REMARK    3  A    between atoms: C_22  and  C_23
REMARK                            x       y       z     vdW  Elec       q    Type
REMARK                         _______ _______ _______ _____ _____    ______ ____
ROOT
ATOM      1  N   UNL     1       1.851   7.095  21.027  0.00  0.00    +0.000 N 
ATOM      2  C   UNL     1       1.576   8.078  20.156  0.00  0.00    +0.000 A 
ATOM      3  N   UNL     1       0.819   9.118  20.473  0.00  0.00    +0.000 NA
ATOM      4  N   UNL     1       0.769   9.866  19.343  0.00  0.00    +0.000 N 
ATOM      5  C   UNL     1       1.456   9.276  18.306  0.00  0.00    +0.000 A 
ATOM      6  C   UNL     1       2.062   8.157  18.831  0.00  0.00    +0.000 A 
ATOM      7  H   UNL     1       1.618   7.267  21.999  0.00  0.00    +0.000 HD
ATOM      8  H   UNL     1       2.651   6.490  20.891  0.00  0.00    +0.000 HD
ENDROOT
BRANCH   6   9
ATOM      9  C   UNL     1       2.941   7.287  18.087  0.00  0.00    +0.000 A 
ATOM     10  C   UNL     1       3.961   7.793  17.282  0.00  0.00    +0.000 A 
ATOM     11  C   UNL     1       4.827   6.911  16.626  0.00  0.00    +0.000 A 
ATOM     12  C   UNL     1       4.667   5.527  16.762  0.00  0.00    +0.000 A 
ATOM     13  C   UNL     1       3.637   5.018  17.555  0.00  0.00    +0.000 A 
ATOM     14  C   UNL     1       2.781   5.905  18.215  0.00  0.00    +0.000 A 
ATOM     15  C   UNL     1       3.421   3.551  17.757  0.00  0.00    +0.000 C 
ATOM     16  C   UNL     1       4.369   2.631  16.999  0.00  0.00    +0.000 C 
ATOM     17  N   UNL     1       5.443   3.268  16.277  0.00  0.00    +0.000 N 
ATOM     18  C   UNL     1       5.611   4.610  16.082  0.00  0.00    +0.000 C 
ATOM     19  O   UNL     1       6.523   5.036  15.375  0.00  0.00    +0.000 OA
ATOM     20  H   UNL     1       6.104   2.693  15.769  0.00  0.00    +0.000 HD
ENDBRANCH   6   9
BRANCH   4  21
ATOM     21  C   UNL     1       0.148  11.141  19.349  0.00  0.00    +0.000 A 
ATOM     22  C   UNL     1       0.891  12.319  19.232  0.00  0.00    +0.000 A 
ATOM     23  C   UNL     1       0.248  13.548  19.356  0.00  0.00    +0.000 A 
ATOM     24  C   UNL     1      -1.119  13.600  19.645  0.00  0.00    +0.000 A 
ATOM     25  C   UNL     1      -1.884  12.428  19.795  0.00  0.00    +0.000 A 
ATOM     26  C   UNL     1      -1.237  11.203  19.580  0.00  0.00    +0.000 A 
BRANCH  25  27
ATOM     27  C   UNL     1      -3.297  12.475  20.227  0.00  0.00    +0.000 A 
ATOM     28  C   UNL     1      -4.335  12.142  19.315  0.00  0.00    +0.000 A 
ATOM     29  C   UNL     1      -5.680  12.096  19.697  0.00  0.00    +0.000 A 
ATOM     30  C   UNL     1      -5.985  12.403  21.005  0.00  0.00    +0.000 A 
ATOM     31  C   UNL     1      -4.991  12.827  21.881  0.00  0.00    +0.000 A 
ATOM     32  C   UNL     1      -3.658  12.867  21.530  0.00  0.00    +0.000 A 
ATOM     33  N   UNL     1      -5.552  13.129  23.111  0.00  0.00    +0.000 N 
ATOM     34  C   UNL     1      -6.898  12.782  23.145  0.00  0.00    +0.000 C 
ATOM     35  O   UNL     1      -7.617  12.811  24.128  0.00  0.00    +0.000 OA
ATOM     36  C   UNL     1      -7.294  12.343  21.731  0.00  0.00    +0.000 C 
ATOM     37  H   UNL     1      -5.058  13.493  23.912  0.00  0.00    +0.000 HD
ENDBRANCH  25  27
ENDBRANCH   4  21
TORSDOF 3
ENDMDL
MODEL 4
REMARK VINA RESULT:      -9.3      2.278      3.549
REMARK  Name = 
REMARK  3 active torsions:
REMARK  status: ('A' for Active; 'I' for Inactive)
REMARK    1  A    between atoms: N_4  and  C_5
REMARK    2  A    between atoms: C_9  and  C_10
REMARK    3  A    between atoms: C_22  and  C_23
REMARK                            x       y       z     vdW  Elec       q    Type
REMARK                         _______ _______ _______ _____ _____    ______ ____
ROOT
ATOM      1  N   UNL     1       1.189   4.457  20.759  0.00  0.00    +0.000 N 
ATOM      2  C   UNL     1       1.366   5.774  20.580  0.00  0.00    +0.000 A 
ATOM      3  N   UNL     1       0.645   6.683  21.221  0.00  0.00    +0.000 NA
ATOM      4  N   UNL     1       1.108   7.874  20.769  0.00  0.00    +0.000 N 
ATOM      5  C   UNL     1       2.086   7.715  19.813  0.00  0.00    +0.000 A 
ATOM      6  C   UNL     1       2.334   6.363  19.735  0.00  0.00    +0.000 A 
ATOM      7  H   UNL     1       0.614   4.175  21.545  0.00  0.00    +0.000 HD
ATOM      8  H   UNL     1       1.919   3.798  20.520  0.00  0.00    +0.000 HD
ENDROOT
BRANCH   6   9
ATOM      9  C   UNL     1       3.349   5.773  18.895  0.00  0.00    +0.000 A 
ATOM     10  C   UNL     1       3.040   5.227  17.649  0.00  0.00    +0.000 A 
ATOM     11  C   UNL     1       4.065   4.719  16.844  0.00  0.00    +0.000 A 
ATOM     12  C   UNL     1       5.394   4.745  17.284  0.00  0.00    +0.000 A 
ATOM     13  C   UNL     1       5.703   5.277  18.537  0.00  0.00    +0.000 A 
ATOM     14  C   UNL     1       4.675   5.791  19.333  0.00  0.00    +0.000 A 
ATOM     15  C   UNL     1       7.103   5.351  19.062  0.00  0.00    +0.000 C 
ATOM     16  C   UNL     1       8.179   4.759  18.162  0.00  0.00    +0.000 C 
ATOM     17  N   UNL     1       7.754   4.312  16.858  0.00  0.00    +0.000 N 
ATOM     18  C   UNL     1       6.467   4.228  16.405  0.00  0.00    +0.000 C 
ATOM     19  O   UNL     1       6.218   3.750  15.299  0.00  0.00    +0.000 OA
ATOM     20  H   UNL     1       8.440   3.922  16.224  0.00  0.00    +0.000 HD
ENDBRANCH   6   9
BRANCH   4  21
ATOM     21  C   UNL     1       0.654   9.090  21.342  0.00  0.00    +0.000 A 
ATOM     22  C   UNL     1      -0.199   9.103  22.449  0.00  0.00    +0.000 A 
ATOM     23  C   UNL     1      -0.707  10.317  22.905  0.00  0.00    +0.000 A 
ATOM     24  C   UNL     1      -0.404  11.503  22.231  0.00  0.00    +0.000 A 
ATOM     25  C   UNL     1       0.431  11.512  21.097  0.00  0.00    +0.000 A 
ATOM     26  C   UNL     1       1.001  10.293  20.706  0.00  0.00    +0.000 A 
BRANCH  25  27
ATOM     27  C   UNL     1       0.649  12.742  20.305  0.00  0.00    +0.000 A 
ATOM     28  C   UNL     1      -0.457  13.538  19.903  0.00  0.00    +0.000 A 
ATOM     29  C   UNL     1      -0.298  14.750  19.221  0.00  0.00    +0.000 A 
ATOM     30  C   UNL     1       0.986  15.155  18.927  0.00  0.00    +0.000 A 
ATOM     31  C   UNL     1       2.070  14.337  19.226  0.00  0.00    +0.000 A 
ATOM     32  C   UNL     1       1.938  13.145  19.909  0.00  0.00    +0.000 A 
ATOM     33  N   UNL     1       3.240  14.933  18.784  0.00  0.00    +0.000 N 
ATOM     34  C   UNL     1       2.998  16.219  18.314  0.00  0.00    +0.000 C 
ATOM     35  O   UNL     1       3.846  17.028  17.982  0.00  0.00    +0.000 OA
ATOM     36  C   UNL     1       1.479  16.428  18.310  0.00  0.00    +0.000 C 
ATOM     37  H   UNL     1       4.164  14.534  18.842  0.00  0.00    +0.000 HD
ENDBRANCH  25  27
ENDBRANCH   4  21
TORSDOF 3
ENDMDL
MODEL 5
REMARK VINA RESULT:      -9.3      3.250     10.261
REMARK  Name = 
REMARK  3 active torsions:
REMARK  status: ('A' for Active; 'I' for Inactive)
REMARK    1  A    between atoms: N_4  and  C_5
REMARK    2  A    between atoms: C_9  and  C_10
REMARK    3  A    between atoms: C_22  and  C_23
REMARK                            x       y       z     vdW  Elec       q    Type
REMARK                         _______ _______ _______ _____ _____    ______ ____
ROOT
ATOM      1  N   UNL     1       2.536  13.046  17.447  0.00  0.00    +0.000 N 
ATOM      2  C   UNL     1       1.977  12.146  18.271  0.00  0.00    +0.000 A 
ATOM      3  N   UNL     1       2.218  10.847  18.175  0.00  0.00    +0.000 NA
ATOM      4  N   UNL     1       1.473  10.283  19.156  0.00  0.00    +0.000 N 
ATOM      5  C   UNL     1       0.730  11.220  19.839  0.00  0.00    +0.000 A 
ATOM      6  C   UNL     1       1.104  12.447  19.341  0.00  0.00    +0.000 A 
ATOM      7  H   UNL     1       3.301  12.721  16.866  0.00  0.00    +0.000 HD
ATOM      8  H   UNL     1       2.596  14.021  17.709  0.00  0.00    +0.000 HD
ENDROOT
BRANCH   6   9
ATOM      9  C   UNL     1       0.609  13.708  19.839  0.00  0.00    +0.000 A 
ATOM     10  C   UNL     1      -0.721  14.091  19.666  0.00  0.00    +0.000 A 
ATOM     11  C   UNL     1      -1.171  15.296  20.216  0.00  0.00    +0.000 A 
ATOM     12  C   UNL     1      -0.294  16.123  20.929  0.00  0.00    +0.000 A 
ATOM     13  C   UNL     1       1.041  15.749  21.091  0.00  0.00    +0.000 A 
ATOM     14  C   UNL     1       1.482  14.538  20.545  0.00  0.00    +0.000 A 
ATOM     15  C   UNL     1       2.026  16.576  21.855  0.00  0.00    +0.000 C 
ATOM     16  C   UNL     1       1.496  17.891  22.410  0.00  0.00    +0.000 C 
ATOM     17  N   UNL     1       0.084  18.134  22.252  0.00  0.00    +0.000 N 
ATOM     18  C   UNL     1      -0.797  17.380  21.529  0.00  0.00    +0.000 C 
ATOM     19  O   UNL     1      -1.968  17.732  21.396  0.00  0.00    +0.000 OA
ATOM     20  H   UNL     1      -0.312  18.992  22.616  0.00  0.00    +0.000 HD
ENDBRANCH   6   9
BRANCH   4  21
ATOM     21  C   UNL     1       1.585   8.898  19.442  0.00  0.00    +0.000 A 
ATOM     22  C   UNL     1       1.112   8.356  20.640  0.00  0.00    +0.000 A 
ATOM     23  C   UNL     1       1.346   7.013  20.923  0.00  0.00    +0.000 A 
ATOM     24  C   UNL     1       2.090   6.229  20.038  0.00  0.00    +0.000 A 
ATOM     25  C   UNL     1       2.601   6.757  18.837  0.00  0.00    +0.000 A 
ATOM     26  C   UNL     1       2.281   8.087  18.530  0.00  0.00    +0.000 A 
BRANCH  25  27
ATOM     27  C   UNL     1       3.496   5.970  17.962  0.00  0.00    +0.000 A 
ATOM     28  C   UNL     1       3.225   4.597  17.712  0.00  0.00    +0.000 A 
ATOM     29  C   UNL     1       3.996   3.831  16.832  0.00  0.00    +0.000 A 
ATOM     30  C   UNL     1       5.059   4.448  16.209  0.00  0.00    +0.000 A 
ATOM     31  C   UNL     1       5.396   5.760  16.522  0.00  0.00    +0.000 A 
ATOM     32  C   UNL     1       4.643   6.538  17.377  0.00  0.00    +0.000 A 
ATOM     33  N   UNL     1       6.528   6.132  15.815  0.00  0.00    +0.000 N 
ATOM     34  C   UNL     1       6.895   5.146  14.907  0.00  0.00    +0.000 C 
ATOM     35  O   UNL     1       7.769   5.244  14.063  0.00  0.00    +0.000 OA
ATOM     36  C   UNL     1       5.991   3.933  15.155  0.00  0.00    +0.000 C 
ATOM     37  H   UNL     1       7.003   7.019  15.885  0.00  0.00    +0.000 HD
ENDBRANCH  25  27
ENDBRANCH   4  21
TORSDOF 3
ENDMDL
MODEL 6
REMARK VINA RESULT:      -9.3      3.096     10.203
REMARK  Name = 
REMARK  3 active torsions:
REMARK  status: ('A' for Active; 'I' for Inactive)
REMARK    1  A    between atoms: N_4  and  C_5
REMARK    2  A    between atoms: C_9  and  C_10
REMARK    3  A    between atoms: C_22  and  C_23
REMARK                            x       y       z     vdW  Elec       q    Type
REMARK                         _______ _______ _______ _____ _____    ______ ____
ROOT
ATOM      1  N   UNL     1       2.346  12.956  17.446  0.00  0.00    +0.000 N 
ATOM      2  C   UNL     1       1.894  12.068  18.344  0.00  0.00    +0.000 A 
ATOM      3  N   UNL     1       2.069  10.762  18.203  0.00  0.00    +0.000 NA
ATOM      4  N   UNL     1       1.468  10.214  19.288  0.00  0.00    +0.000 N 
ATOM      5  C   UNL     1       0.879  11.168  20.085  0.00  0.00    +0.000 A 
ATOM      6  C   UNL     1       1.214  12.387  19.541  0.00  0.00    +0.000 A 
ATOM      7  H   UNL     1       2.997  12.612  16.749  0.00  0.00    +0.000 HD
ATOM      8  H   UNL     1       2.484  13.926  17.701  0.00  0.00    +0.000 HD
ENDROOT
BRANCH   6   9
ATOM      9  C   UNL     1       0.850  13.660  20.119  0.00  0.00    +0.000 A 
ATOM     10  C   UNL     1       1.815  14.564  20.562  0.00  0.00    +0.000 A 
ATOM     11  C   UNL     1       1.419  15.809  21.059  0.00  0.00    +0.000 A 
ATOM     12  C   UNL     1       0.062  16.149  21.126  0.00  0.00    +0.000 A 
ATOM     13  C   UNL     1      -0.907  15.240  20.697  0.00  0.00    +0.000 A 
ATOM     14  C   UNL     1      -0.502  13.999  20.192  0.00  0.00    +0.000 A 
ATOM     15  C   UNL     1      -2.371  15.544  20.725  0.00  0.00    +0.000 C 
ATOM     16  C   UNL     1      -2.755  16.900  21.302  0.00  0.00    +0.000 C 
ATOM     17  N   UNL     1      -1.668  17.787  21.637  0.00  0.00    +0.000 N 
ATOM     18  C   UNL     1      -0.336  17.483  21.630  0.00  0.00    +0.000 C 
ATOM     19  O   UNL     1       0.499  18.299  22.018  0.00  0.00    +0.000 OA
ATOM     20  H   UNL     1      -1.879  18.703  22.013  0.00  0.00    +0.000 HD
ENDBRANCH   6   9
BRANCH   4  21
ATOM     21  C   UNL     1       1.574   8.822  19.545  0.00  0.00    +0.000 A 
ATOM     22  C   UNL     1       1.091   8.257  20.728  0.00  0.00    +0.000 A 
ATOM     23  C   UNL     1       1.319   6.907  20.983  0.00  0.00    +0.000 A 
ATOM     24  C   UNL     1       2.066   6.139  20.086  0.00  0.00    +0.000 A 
ATOM     25  C   UNL     1       2.586   6.692  18.900  0.00  0.00    +0.000 A 
ATOM     26  C   UNL     1       2.273   8.029  18.620  0.00  0.00    +0.000 A 
BRANCH  25  27
ATOM     27  C   UNL     1       3.484   5.920  18.014  0.00  0.00    +0.000 A 
ATOM     28  C   UNL     1       3.218   4.550  17.746  0.00  0.00    +0.000 A 
ATOM     29  C   UNL     1       3.992   3.799  16.854  0.00  0.00    +0.000 A 
ATOM     30  C   UNL     1       5.052   4.428  16.240  0.00  0.00    +0.000 A 
ATOM     31  C   UNL     1       5.383   5.738  16.569  0.00  0.00    +0.000 A 
ATOM     32  C   UNL     1       4.628   6.501  17.435  0.00  0.00    +0.000 A 
ATOM     33  N   UNL     1       6.513   6.124  15.866  0.00  0.00    +0.000 N 
ATOM     34  C   UNL     1       6.884   5.152  14.945  0.00  0.00    +0.000 C 
ATOM     35  O   UNL     1       7.756   5.265  14.101  0.00  0.00    +0.000 OA
ATOM     36  C   UNL     1       5.986   3.932  15.178  0.00  0.00    +0.000 C 
ATOM     37  H   UNL     1       6.984   7.012  15.948  0.00  0.00    +0.000 HD
ENDBRANCH  25  27
ENDBRANCH   4  21
TORSDOF 3
ENDMDL
MODEL 7
REMARK VINA RESULT:      -9.2      2.439      9.828
REMARK  Name = 
REMARK  3 active torsions:
REMARK  status: ('A' for Active; 'I' for Inactive)
REMARK    1  A    between atoms: N_4  and  C_5
REMARK    2  A    between atoms: C_9  and  C_10
REMARK    3  A    between atoms: C_22  and  C_23
REMARK                            x       y       z     vdW  Elec       q    Type
REMARK                         _______ _______ _______ _____ _____    ______ ____
ROOT
ATOM      1  N   UNL     1      -1.301  11.542  17.506  0.00  0.00    +0.000 N 
ATOM      2  C   UNL     1      -0.301  10.986  18.206  0.00  0.00    +0.000 A 
ATOM      3  N   UNL     1      -0.249   9.687  18.464  0.00  0.00    +0.000 NA
ATOM      4  N   UNL     1       0.884   9.524  19.191  0.00  0.00    +0.000 N 
ATOM      5  C   UNL     1       1.519  10.722  19.427  0.00  0.00    +0.000 A 
ATOM      6  C   UNL     1       0.818  11.676  18.726  0.00  0.00    +0.000 A 
ATOM      7  H   UNL     1      -1.922  10.909  17.014  0.00  0.00    +0.000 HD
ATOM      8  H   UNL     1      -1.183  12.442  17.059  0.00  0.00    +0.000 HD
ENDROOT
BRANCH   6   9
ATOM      9  C   UNL     1       1.197  13.067  18.650  0.00  0.00    +0.000 A 
ATOM     10  C   UNL     1       2.455  13.458  18.194  0.00  0.00    +0.000 A 
ATOM     11  C   UNL     1       2.758  14.819  18.080  0.00  0.00    +0.000 A 
ATOM     12  C   UNL     1       1.811  15.789  18.432  0.00  0.00    +0.000 A 
ATOM     13  C   UNL     1       0.556  15.400  18.902  0.00  0.00    +0.000 A 
ATOM     14  C   UNL     1       0.257  14.037  19.005  0.00  0.00    +0.000 A 
ATOM     15  C   UNL     1      -0.508  16.383  19.279  0.00  0.00    +0.000 C 
ATOM     16  C   UNL     1      -0.122  17.852  19.166  0.00  0.00    +0.000 C 
ATOM     17  N   UNL     1       1.171  18.135  18.592  0.00  0.00    +0.000 N 
ATOM     18  C   UNL     1       2.140  17.225  18.277  0.00  0.00    +0.000 C 
ATOM     19  O   UNL     1       3.241  17.591  17.869  0.00  0.00    +0.000 OA
ATOM     20  H   UNL     1       1.463  19.099  18.489  0.00  0.00    +0.000 HD
ENDBRANCH   6   9
BRANCH   4  21
ATOM     21  C   UNL     1       1.339   8.225  19.536  0.00  0.00    +0.000 A 
ATOM     22  C   UNL     1       1.179   7.711  20.825  0.00  0.00    +0.000 A 
ATOM     23  C   UNL     1       1.742   6.478  21.145  0.00  0.00    +0.000 A 
ATOM     24  C   UNL     1       2.502   5.787  20.197  0.00  0.00    +0.000 A 
ATOM     25  C   UNL     1       2.700   6.295  18.900  0.00  0.00    +0.000 A 
ATOM     26  C   UNL     1       2.054   7.495  18.571  0.00  0.00    +0.000 A 
BRANCH  25  27
ATOM     27  C   UNL     1       3.607   5.633  17.937  0.00  0.00    +0.000 A 
ATOM     28  C   UNL     1       3.372   4.288  17.544  0.00  0.00    +0.000 A 
ATOM     29  C   UNL     1       4.154   3.643  16.579  0.00  0.00    +0.000 A 
ATOM     30  C   UNL     1       5.191   4.354  16.017  0.00  0.00    +0.000 A 
ATOM     31  C   UNL     1       5.494   5.635  16.466  0.00  0.00    +0.000 A 
ATOM     32  C   UNL     1       4.730   6.294  17.406  0.00  0.00    +0.000 A 
ATOM     33  N   UNL     1       6.606   6.114  15.792  0.00  0.00    +0.000 N 
ATOM     34  C   UNL     1       6.991   5.242  14.780  0.00  0.00    +0.000 C 
ATOM     35  O   UNL     1       7.851   5.455  13.944  0.00  0.00    +0.000 OA
ATOM     36  C   UNL     1       6.125   3.983  14.906  0.00  0.00    +0.000 C 
ATOM     37  H   UNL     1       7.057   7.002  15.953  0.00  0.00    +0.000 HD
ENDBRANCH  25  27
ENDBRANCH   4  21
TORSDOF 3
ENDMDL
MODEL 8
REMARK VINA RESULT:      -9.2      3.746     10.092
REMARK  Name = 
REMARK  3 active torsions:
REMARK  status: ('A' for Active; 'I' for Inactive)
REMARK    1  A    between atoms: N_4  and  C_5
REMARK    2  A    between atoms: C_9  and  C_10
REMARK    3  A    between atoms: C_22  and  C_23
REMARK                            x       y       z     vdW  Elec       q    Type
REMARK                         _______ _______ _______ _____ _____    ______ ____
ROOT
ATOM      1  N   UNL     1       2.018  12.480  17.826  0.00  0.00    +0.000 N 
ATOM      2  C   UNL     1       1.572  11.482  18.603  0.00  0.00    +0.000 A 
ATOM      3  N   UNL     1       1.953  10.224  18.434  0.00  0.00    +0.000 NA
ATOM      4  N   UNL     1       1.286   9.530  19.388  0.00  0.00    +0.000 N 
ATOM      5  C   UNL     1       0.454  10.341  20.126  0.00  0.00    +0.000 A 
ATOM      6  C   UNL     1       0.685  11.627  19.694  0.00  0.00    +0.000 A 
ATOM      7  H   UNL     1       2.806  12.274  17.223  0.00  0.00    +0.000 HD
ATOM      8  H   UNL     1       1.974  13.441  18.140  0.00  0.00    +0.000 HD
ENDROOT
BRANCH   6   9
ATOM      9  C   UNL     1       0.061  12.797  20.263  0.00  0.00    +0.000 A 
ATOM     10  C   UNL     1      -0.271  13.903  19.481  0.00  0.00    +0.000 A 
ATOM     11  C   UNL     1      -0.929  14.991  20.064  0.00  0.00    +0.000 A 
ATOM     12  C   UNL     1      -1.245  14.982  21.428  0.00  0.00    +0.000 A 
ATOM     13  C   UNL     1      -0.900  13.883  22.217  0.00  0.00    +0.000 A 
ATOM     14  C   UNL     1      -0.251  12.794  21.625  0.00  0.00    +0.000 A 
ATOM     15  C   UNL     1      -1.222  13.800  23.675  0.00  0.00    +0.000 C 
ATOM     16  C   UNL     1      -1.912  15.021  24.271  0.00  0.00    +0.000 C 
ATOM     17  N   UNL     1      -2.292  16.060  23.346  0.00  0.00    +0.000 N 
ATOM     18  C   UNL     1      -1.967  16.131  22.021  0.00  0.00    +0.000 C 
ATOM     19  O   UNL     1      -2.277  17.112  21.347  0.00  0.00    +0.000 OA
ATOM     20  H   UNL     1      -2.763  16.884  23.698  0.00  0.00    +0.000 HD
ENDBRANCH   6   9
BRANCH   4  21
ATOM     21  C   UNL     1       1.554   8.152  19.597  0.00  0.00    +0.000 A 
ATOM     22  C   UNL     1       1.209   7.512  20.790  0.00  0.00    +0.000 A 
ATOM     23  C   UNL     1       1.593   6.188  20.992  0.00  0.00    +0.000 A 
ATOM     24  C   UNL     1       2.358   5.525  20.028  0.00  0.00    +0.000 A 
ATOM     25  C   UNL     1       2.741   6.157  18.830  0.00  0.00    +0.000 A 
ATOM     26  C   UNL     1       2.272   7.458  18.609  0.00  0.00    +0.000 A 
BRANCH  25  27
ATOM     27  C   UNL     1       3.657   5.505  17.869  0.00  0.00    +0.000 A 
ATOM     28  C   UNL     1       3.426   4.165  17.458  0.00  0.00    +0.000 A 
ATOM     29  C   UNL     1       4.217   3.532  16.493  0.00  0.00    +0.000 A 
ATOM     30  C   UNL     1       5.260   4.249  15.949  0.00  0.00    +0.000 A 
ATOM     31  C   UNL     1       5.558   5.524  16.415  0.00  0.00    +0.000 A 
ATOM     32  C   UNL     1       4.785   6.173  17.356  0.00  0.00    +0.000 A 
ATOM     33  N   UNL     1       6.676   6.011  15.758  0.00  0.00    +0.000 N 
ATOM     34  C   UNL     1       7.071   5.151  14.740  0.00  0.00    +0.000 C 
ATOM     35  O   UNL     1       7.939   5.374  13.914  0.00  0.00    +0.000 OA
ATOM     36  C   UNL     1       6.204   3.890  14.842  0.00  0.00    +0.000 C 
ATOM     37  H   UNL     1       7.125   6.897  15.933  0.00  0.00    +0.000 HD
ENDBRANCH  25  27
ENDBRANCH   4  21
TORSDOF 3
ENDMDL
MODEL 9
REMARK VINA RESULT:      -9.2      4.005     10.027
REMARK  Name = 
REMARK  3 active torsions:
REMARK  status: ('A' for Active; 'I' for Inactive)
REMARK    1  A    between atoms: N_4  and  C_5
REMARK    2  A    between atoms: C_9  and  C_10
REMARK    3  A    between atoms: C_22  and  C_23
REMARK                            x       y       z     vdW  Elec       q    Type
REMARK                         _______ _______ _______ _____ _____    ______ ____
ROOT
ATOM      1  N   UNL     1       1.686  11.981  17.933  0.00  0.00    +0.000 N 
ATOM      2  C   UNL     1       1.385  10.920  18.697  0.00  0.00    +0.000 A 
ATOM      3  N   UNL     1       1.882   9.713  18.466  0.00  0.00    +0.000 NA
ATOM      4  N   UNL     1       1.340   8.927  19.428  0.00  0.00    +0.000 N 
ATOM      5  C   UNL     1       0.471   9.626  20.234  0.00  0.00    +0.000 A 
ATOM      6  C   UNL     1       0.548  10.941  19.835  0.00  0.00    +0.000 A 
ATOM      7  H   UNL     1       2.458  11.874  17.285  0.00  0.00    +0.000 HD
ATOM      8  H   UNL     1       1.563  12.923  18.283  0.00  0.00    +0.000 HD
ENDROOT
BRANCH   6   9
ATOM      9  C   UNL     1      -0.160  12.025  20.475  0.00  0.00    +0.000 A 
ATOM     10  C   UNL     1       0.507  12.992  21.226  0.00  0.00    +0.000 A 
ATOM     11  C   UNL     1      -0.212  14.056  21.779  0.00  0.00    +0.000 A 
ATOM     12  C   UNL     1      -1.597  14.151  21.592  0.00  0.00    +0.000 A 
ATOM     13  C   UNL     1      -2.270  13.176  20.854  0.00  0.00    +0.000 A 
ATOM     14  C   UNL     1      -1.542  12.119  20.297  0.00  0.00    +0.000 A 
ATOM     15  C   UNL     1      -3.744  13.224  20.602  0.00  0.00    +0.000 C 
ATOM     16  C   UNL     1      -4.487  14.386  21.248  0.00  0.00    +0.000 C 
ATOM     17  N   UNL     1      -3.679  15.374  21.919  0.00  0.00    +0.000 N 
ATOM     18  C   UNL     1      -2.336  15.301  22.161  0.00  0.00    +0.000 C 
ATOM     19  O   UNL     1      -1.766  16.170  22.820  0.00  0.00    +0.000 OA
ATOM     20  H   UNL     1      -4.132  16.169  22.352  0.00  0.00    +0.000 HD
ENDBRANCH   6   9
BRANCH   4  21
ATOM     21  C   UNL     1       1.756   7.578  19.576  0.00  0.00    +0.000 A 
ATOM     22  C   UNL     1       1.558   6.877  20.768  0.00  0.00    +0.000 A 
ATOM     23  C   UNL     1       2.084   5.594  20.902  0.00  0.00    +0.000 A 
ATOM     24  C   UNL     1       2.843   5.036  19.871  0.00  0.00    +0.000 A 
ATOM     25  C   UNL     1       3.080   5.732  18.671  0.00  0.00    +0.000 A 
ATOM     26  C   UNL     1       2.470   6.985  18.521  0.00  0.00    +0.000 A 
BRANCH  25  27
ATOM     27  C   UNL     1       3.988   5.200  17.632  0.00  0.00    +0.000 A 
ATOM     28  C   UNL     1       3.745   3.924  17.056  0.00  0.00    +0.000 A 
ATOM     29  C   UNL     1       4.529   3.411  16.017  0.00  0.00    +0.000 A 
ATOM     30  C   UNL     1       5.576   4.184  15.564  0.00  0.00    +0.000 A 
ATOM     31  C   UNL     1       5.885   5.388  16.186  0.00  0.00    +0.000 A 
ATOM     32  C   UNL     1       5.120   5.919  17.203  0.00  0.00    +0.000 A 
ATOM     33  N   UNL     1       7.006   5.946  15.591  0.00  0.00    +0.000 N 
ATOM     34  C   UNL     1       7.391   5.218  14.471  0.00  0.00    +0.000 C 
ATOM     35  O   UNL     1       8.259   5.537  13.677  0.00  0.00    +0.000 OA
ATOM     36  C   UNL     1       6.515   3.961  14.417  0.00  0.00    +0.000 C 
ATOM     37  H   UNL     1       7.462   6.799  15.875  0.00  0.00    +0.000 HD
ENDBRANCH  25  27
ENDBRANCH   4  21
TORSDOF 3
ENDMDL
