MODEL 1
REMARK VINA RESULT:      -8.2      0.000      0.000
REMARK  Name = 
REMARK  6 active torsions:
REMARK  status: ('A' for Active; 'I' for Inactive)
REMARK    1  A    between atoms: C_1  and  C_2
REMARK    2  A    between atoms: C_4  and  S_5
REMARK    3  A    between atoms: S_5  and  C_8
REMARK    4  A    between atoms: C_12  and  O_13
REMARK    5  A    between atoms: O_13  and  C_14
REMARK    6  A    between atoms: N_23  and  C_24
REMARK                            x       y       z     vdW  Elec       q    Type
REMARK                         _______ _______ _______ _____ _____    ______ ____
ROOT
ATOM      1  C   UNL     1       0.809   3.185  20.386  0.00  0.00    +0.000 C 
ATOM      2  C   UNL     1       1.337   4.526  19.974  0.00  0.00    +0.000 A 
ATOM      3  C   UNL     1       0.894   5.674  20.681  0.00  0.00    +0.000 A 
ATOM      4  C   UNL     1       1.444   6.937  20.451  0.00  0.00    +0.000 A 
ATOM      5  C   UNL     1       2.512   7.100  19.578  0.00  0.00    +0.000 A 
ATOM      6  C   UNL     1       2.961   5.990  18.851  0.00  0.00    +0.000 A 
ATOM      7  C   UNL     1       4.118   5.785  18.065  0.00  0.00    +0.000 A 
ATOM      8  C   UNL     1       3.972   4.574  17.415  0.00  0.00    +0.000 A 
ATOM      9  N   UNL     1       2.994   3.881  18.095  0.00  0.00    +0.000 N 
ATOM     10  C   UNL     1       2.839   2.442  18.069  0.00  0.00    +0.000 C 
ATOM     11  C   UNL     1       2.341   4.739  18.988  0.00  0.00    +0.000 A 
ATOM     12  C   UNL     1       5.053   4.087  16.501  0.00  0.00    +0.000 C 
ATOM     13  C   UNL     1       6.410   4.687  17.014  0.00  0.00    +0.000 C 
ATOM     14  C   UNL     1       6.906   5.886  16.231  0.00  0.00    +0.000 C 
ATOM     15  C   UNL     1       6.574   7.044  17.161  0.00  0.00    +0.000 C 
ATOM     16  C   UNL     1       5.453   6.586  18.135  0.00  0.00    +0.000 C 
ATOM     17  N   UNL     1       6.284   5.355  18.337  0.00  0.00    +0.000 NA
ATOM     18  H   UNL     1       5.833   4.729  19.007  0.00  0.00    +0.000 HD
ENDROOT
BRANCH   4  19
ATOM     19  S   UNL     1       0.853   8.356  21.353  0.00  0.00    +0.000 S 
ATOM     20  O   UNL     1      -0.399   7.971  21.976  0.00  0.00    +0.000 OA
ATOM     21  O   UNL     1       1.957   8.869  22.152  0.00  0.00    +0.000 OA
BRANCH  19  22
ATOM     22  C   UNL     1       0.495   9.577  20.118  0.00  0.00    +0.000 A 
ATOM     23  C   UNL     1       1.503  10.441  19.682  0.00  0.00    +0.000 A 
ATOM     24  C   UNL     1       1.207  11.401  18.719  0.00  0.00    +0.000 A 
ATOM     25  C   UNL     1      -0.095  11.510  18.227  0.00  0.00    +0.000 A 
ATOM     26  C   UNL     1      -1.119  10.683  18.704  0.00  0.00    +0.000 A 
ATOM     27  C   UNL     1      -0.816   9.684  19.625  0.00  0.00    +0.000 A 
BRANCH  26  28
ATOM     28  O   UNL     1      -2.346  10.937  18.171  0.00  0.00    +0.000 OA
BRANCH  28  29
ATOM     29  C   UNL     1      -2.897  10.024  17.233  0.00  0.00    +0.000 C 
ATOM     30  F   UNL     1      -3.726  10.598  16.338  0.00  0.00    +0.000 F 
ATOM     31  F   UNL     1      -1.881   9.456  16.547  0.00  0.00    +0.000 F 
ATOM     32  F   UNL     1      -3.562   9.048  17.890  0.00  0.00    +0.000 F 
ENDBRANCH  28  29
ENDBRANCH  26  28
ENDBRANCH  19  22
ENDBRANCH   4  19
TORSDOF 4
ENDMDL
MODEL 2
REMARK VINA RESULT:      -8.1      1.514      3.524
REMARK  Name = 
REMARK  6 active torsions:
REMARK  status: ('A' for Active; 'I' for Inactive)
REMARK    1  A    between atoms: C_1  and  C_2
REMARK    2  A    between atoms: C_4  and  S_5
REMARK    3  A    between atoms: S_5  and  C_8
REMARK    4  A    between atoms: C_12  and  O_13
REMARK    5  A    between atoms: O_13  and  C_14
REMARK    6  A    between atoms: N_23  and  C_24
REMARK                            x       y       z     vdW  Elec       q    Type
REMARK                         _______ _______ _______ _____ _____    ______ ____
ROOT
ATOM      1  C   UNL     1       3.105   8.283  16.949  0.00  0.00    +0.000 C 
ATOM      2  C   UNL     1       2.671   7.912  18.335  0.00  0.00    +0.000 A 
ATOM      3  C   UNL     1       1.900   8.846  19.076  0.00  0.00    +0.000 A 
ATOM      4  C   UNL     1       1.341   8.521  20.313  0.00  0.00    +0.000 A 
ATOM      5  C   UNL     1       1.445   7.234  20.826  0.00  0.00    +0.000 A 
ATOM      6  C   UNL     1       2.214   6.293  20.128  0.00  0.00    +0.000 A 
ATOM      7  C   UNL     1       2.344   4.892  20.269  0.00  0.00    +0.000 A 
ATOM      8  C   UNL     1       3.380   4.485  19.451  0.00  0.00    +0.000 A 
ATOM      9  N   UNL     1       3.582   5.499  18.540  0.00  0.00    +0.000 N 
ATOM     10  C   UNL     1       4.216   5.331  17.250  0.00  0.00    +0.000 C 
ATOM     11  C   UNL     1       2.877   6.640  18.941  0.00  0.00    +0.000 A 
ATOM     12  C   UNL     1       3.754   3.036  19.392  0.00  0.00    +0.000 C 
ATOM     13  C   UNL     1       2.462   2.203  19.709  0.00  0.00    +0.000 C 
ATOM     14  C   UNL     1       2.388   1.665  21.124  0.00  0.00    +0.000 C 
ATOM     15  C   UNL     1       1.385   2.604  21.778  0.00  0.00    +0.000 C 
ATOM     16  C   UNL     1       1.337   3.922  20.956  0.00  0.00    +0.000 C 
ATOM     17  N   UNL     1       1.231   3.037  19.752  0.00  0.00    +0.000 NA
ATOM     18  H   UNL     1       1.158   3.601  18.903  0.00  0.00    +0.000 HD
ENDROOT
BRANCH   4  19
ATOM     19  S   UNL     1       0.389   9.726  21.218  0.00  0.00    +0.000 S 
ATOM     20  O   UNL     1      -0.782   9.042  21.733  0.00  0.00    +0.000 OA
ATOM     21  O   UNL     1       1.296  10.431  22.112  0.00  0.00    +0.000 OA
BRANCH  19  22
ATOM     22  C   UNL     1      -0.154  10.897  20.003  0.00  0.00    +0.000 A 
ATOM     23  C   UNL     1       0.540  12.098  19.835  0.00  0.00    +0.000 A 
ATOM     24  C   UNL     1       0.099  13.012  18.883  0.00  0.00    +0.000 A 
ATOM     25  C   UNL     1      -1.048  12.736  18.136  0.00  0.00    +0.000 A 
ATOM     26  C   UNL     1      -1.778  11.559  18.343  0.00  0.00    +0.000 A 
ATOM     27  C   UNL     1      -1.307  10.615  19.252  0.00  0.00    +0.000 A 
BRANCH  26  28
ATOM     28  O   UNL     1      -2.900  11.448  17.580  0.00  0.00    +0.000 OA
BRANCH  28  29
ATOM     29  C   UNL     1      -3.118  10.256  16.837  0.00  0.00    +0.000 C 
ATOM     30  F   UNL     1      -3.514   9.211  17.592  0.00  0.00    +0.000 F 
ATOM     31  F   UNL     1      -4.086  10.496  15.926  0.00  0.00    +0.000 F 
ATOM     32  F   UNL     1      -1.988   9.922  16.177  0.00  0.00    +0.000 F 
ENDBRANCH  28  29
ENDBRANCH  26  28
ENDBRANCH  19  22
ENDBRANCH   4  19
TORSDOF 4
ENDMDL
MODEL 3
REMARK VINA RESULT:      -8.0      2.954      4.758
REMARK  Name = 
REMARK  6 active torsions:
REMARK  status: ('A' for Active; 'I' for Inactive)
REMARK    1  A    between atoms: C_1  and  C_2
REMARK    2  A    between atoms: C_4  and  S_5
REMARK    3  A    between atoms: S_5  and  C_8
REMARK    4  A    between atoms: C_12  and  O_13
REMARK    5  A    between atoms: O_13  and  C_14
REMARK    6  A    between atoms: N_23  and  C_24
REMARK                            x       y       z     vdW  Elec       q    Type
REMARK                         _______ _______ _______ _____ _____    ______ ____
ROOT
ATOM      1  C   UNL     1       4.858   7.102  16.047  0.00  0.00    +0.000 C 
ATOM      2  C   UNL     1       4.004   7.179  17.277  0.00  0.00    +0.000 A 
ATOM      3  C   UNL     1       3.142   8.296  17.433  0.00  0.00    +0.000 A 
ATOM      4  C   UNL     1       2.217   8.370  18.477  0.00  0.00    +0.000 A 
ATOM      5  C   UNL     1       2.045   7.306  19.353  0.00  0.00    +0.000 A 
ATOM      6  C   UNL     1       2.892   6.196  19.236  0.00  0.00    +0.000 A 
ATOM      7  C   UNL     1       2.842   4.909  19.818  0.00  0.00    +0.000 A 
ATOM      8  C   UNL     1       4.028   4.269  19.517  0.00  0.00    +0.000 A 
ATOM      9  N   UNL     1       4.583   4.950  18.455  0.00  0.00    +0.000 N 
ATOM     10  C   UNL     1       5.548   4.390  17.533  0.00  0.00    +0.000 C 
ATOM     11  C   UNL     1       3.902   6.158  18.264  0.00  0.00    +0.000 A 
ATOM     12  C   UNL     1       4.265   2.873  20.008  0.00  0.00    +0.000 C 
ATOM     13  C   UNL     1       2.864   2.178  20.143  0.00  0.00    +0.000 C 
ATOM     14  C   UNL     1       2.329   2.106  21.559  0.00  0.00    +0.000 C 
ATOM     15  C   UNL     1       1.271   3.201  21.565  0.00  0.00    +0.000 C 
ATOM     16  C   UNL     1       1.590   4.199  20.417  0.00  0.00    +0.000 C 
ATOM     17  N   UNL     1       1.759   2.983  19.557  0.00  0.00    +0.000 NA
ATOM     18  H   UNL     1       1.990   3.256  18.600  0.00  0.00    +0.000 HD
ENDROOT
BRANCH   4  19
ATOM     19  S   UNL     1       1.161   9.796  18.645  0.00  0.00    +0.000 S 
ATOM     20  O   UNL     1       2.005  10.968  18.512  0.00  0.00    +0.000 OA
ATOM     21  O   UNL     1       0.009   9.603  17.776  0.00  0.00    +0.000 OA
BRANCH  19  22
ATOM     22  C   UNL     1       0.565   9.739  20.314  0.00  0.00    +0.000 A 
ATOM     23  C   UNL     1       0.329   8.506  20.927  0.00  0.00    +0.000 A 
ATOM     24  C   UNL     1      -0.147   8.476  22.234  0.00  0.00    +0.000 A 
ATOM     25  C   UNL     1      -0.414   9.673  22.903  0.00  0.00    +0.000 A 
ATOM     26  C   UNL     1      -0.232  10.908  22.271  0.00  0.00    +0.000 A 
ATOM     27  C   UNL     1       0.298  10.945  20.984  0.00  0.00    +0.000 A 
BRANCH  26  28
ATOM     28  O   UNL     1      -0.582  11.986  23.025  0.00  0.00    +0.000 OA
BRANCH  28  29
ATOM     29  C   UNL     1      -1.927  12.443  22.999  0.00  0.00    +0.000 C 
ATOM     30  F   UNL     1      -2.440  12.554  21.758  0.00  0.00    +0.000 F 
ATOM     31  F   UNL     1      -2.688  11.559  23.682  0.00  0.00    +0.000 F 
ATOM     32  F   UNL     1      -2.009  13.640  23.621  0.00  0.00    +0.000 F 
ENDBRANCH  28  29
ENDBRANCH  26  28
ENDBRANCH  19  22
ENDBRANCH   4  19
TORSDOF 4
ENDMDL
MODEL 4
REMARK VINA RESULT:      -7.9      1.743      3.507
REMARK  Name = 
REMARK  6 active torsions:
REMARK  status: ('A' for Active; 'I' for Inactive)
REMARK    1  A    between atoms: C_1  and  C_2
REMARK    2  A    between atoms: C_4  and  S_5
REMARK    3  A    between atoms: S_5  and  C_8
REMARK    4  A    between atoms: C_12  and  O_13
REMARK    5  A    between atoms: O_13  and  C_14
REMARK    6  A    between atoms: N_23  and  C_24
REMARK                            x       y       z     vdW  Elec       q    Type
REMARK                         _______ _______ _______ _____ _____    ______ ____
ROOT
ATOM      1  C   UNL     1       2.233   9.263  17.447  0.00  0.00    +0.000 C 
ATOM      2  C   UNL     1       2.077   8.617  18.790  0.00  0.00    +0.000 A 
ATOM      3  C   UNL     1       1.235   9.241  19.748  0.00  0.00    +0.000 A 
ATOM      4  C   UNL     1       0.929   8.630  20.966  0.00  0.00    +0.000 A 
ATOM      5  C   UNL     1       1.368   7.342  21.248  0.00  0.00    +0.000 A 
ATOM      6  C   UNL     1       2.216   6.706  20.331  0.00  0.00    +0.000 A 
ATOM      7  C   UNL     1       2.653   5.366  20.227  0.00  0.00    +0.000 A 
ATOM      8  C   UNL     1       3.631   5.321  19.252  0.00  0.00    +0.000 A 
ATOM      9  N   UNL     1       3.491   6.469  18.504  0.00  0.00    +0.000 N 
ATOM     10  C   UNL     1       3.967   6.629  17.146  0.00  0.00    +0.000 C 
ATOM     11  C   UNL     1       2.624   7.354  19.155  0.00  0.00    +0.000 A 
ATOM     12  C   UNL     1       4.289   4.017  18.920  0.00  0.00    +0.000 C 
ATOM     13  C   UNL     1       3.254   2.876  19.225  0.00  0.00    +0.000 C 
ATOM     14  C   UNL     1       3.486   2.147  20.533  0.00  0.00    +0.000 C 
ATOM     15  C   UNL     1       2.406   2.734  21.431  0.00  0.00    +0.000 C 
ATOM     16  C   UNL     1       1.973   4.107  20.845  0.00  0.00    +0.000 C 
ATOM     17  N   UNL     1       1.893   3.395  19.529  0.00  0.00    +0.000 NA
ATOM     18  H   UNL     1       1.590   4.039  18.796  0.00  0.00    +0.000 HD
ENDROOT
BRANCH   4  19
ATOM     19  S   UNL     1      -0.123   9.451  22.147  0.00  0.00    +0.000 S 
ATOM     20  O   UNL     1      -1.156   8.505  22.526  0.00  0.00    +0.000 OA
ATOM     21  O   UNL     1       0.732  10.066  23.154  0.00  0.00    +0.000 OA
BRANCH  19  22
ATOM     22  C   UNL     1      -0.894  10.769  21.247  0.00  0.00    +0.000 A 
ATOM     23  C   UNL     1      -1.430  11.861  21.934  0.00  0.00    +0.000 A 
ATOM     24  C   UNL     1      -2.040  12.885  21.216  0.00  0.00    +0.000 A 
ATOM     25  C   UNL     1      -2.139  12.793  19.826  0.00  0.00    +0.000 A 
ATOM     26  C   UNL     1      -1.653  11.673  19.140  0.00  0.00    +0.000 A 
ATOM     27  C   UNL     1      -0.991  10.674  19.848  0.00  0.00    +0.000 A 
BRANCH  26  28
ATOM     28  O   UNL     1      -1.864  11.698  17.796  0.00  0.00    +0.000 OA
BRANCH  28  29
ATOM     29  C   UNL     1      -2.184  10.488  17.122  0.00  0.00    +0.000 C 
ATOM     30  F   UNL     1      -3.183   9.793  17.700  0.00  0.00    +0.000 F 
ATOM     31  F   UNL     1      -2.568  10.793  15.863  0.00  0.00    +0.000 F 
ATOM     32  F   UNL     1      -1.084   9.707  17.051  0.00  0.00    +0.000 F 
ENDBRANCH  28  29
ENDBRANCH  26  28
ENDBRANCH  19  22
ENDBRANCH   4  19
TORSDOF 4
ENDMDL
MODEL 5
REMARK VINA RESULT:      -7.8      1.738      3.624
REMARK  Name = 
REMARK  6 active torsions:
REMARK  status: ('A' for Active; 'I' for Inactive)
REMARK    1  A    between atoms: C_1  and  C_2
REMARK    2  A    between atoms: C_4  and  S_5
REMARK    3  A    between atoms: S_5  and  C_8
REMARK    4  A    between atoms: C_12  and  O_13
REMARK    5  A    between atoms: O_13  and  C_14
REMARK    6  A    between atoms: N_23  and  C_24
REMARK                            x       y       z     vdW  Elec       q    Type
REMARK                         _______ _______ _______ _____ _____    ______ ____
ROOT
ATOM      1  C   UNL     1       2.580   8.925  17.453  0.00  0.00    +0.000 C 
ATOM      2  C   UNL     1       2.261   8.324  18.789  0.00  0.00    +0.000 A 
ATOM      3  C   UNL     1       1.460   9.071  19.692  0.00  0.00    +0.000 A 
ATOM      4  C   UNL     1       1.003   8.524  20.894  0.00  0.00    +0.000 A 
ATOM      5  C   UNL     1       1.246   7.194  21.209  0.00  0.00    +0.000 A 
ATOM      6  C   UNL     1       2.049   6.435  20.347  0.00  0.00    +0.000 A 
ATOM      7  C   UNL     1       2.304   5.046  20.277  0.00  0.00    +0.000 A 
ATOM      8  C   UNL     1       3.320   4.855  19.361  0.00  0.00    +0.000 A 
ATOM      9  N   UNL     1       3.382   6.001  18.598  0.00  0.00    +0.000 N 
ATOM     10  C   UNL     1       3.951   6.074  17.270  0.00  0.00    +0.000 C 
ATOM     11  C   UNL     1       2.609   7.004  19.193  0.00  0.00    +0.000 A 
ATOM     12  C   UNL     1       3.811   3.469  19.075  0.00  0.00    +0.000 C 
ATOM     13  C   UNL     1       2.614   2.484  19.327  0.00  0.00    +0.000 C 
ATOM     14  C   UNL     1       2.669   1.748  20.651  0.00  0.00    +0.000 C 
ATOM     15  C   UNL     1       1.631   2.490  21.480  0.00  0.00    +0.000 C 
ATOM     16  C   UNL     1       1.424   3.900  20.861  0.00  0.00    +0.000 C 
ATOM     17  N   UNL     1       1.322   3.188  19.547  0.00  0.00    +0.000 NA
ATOM     18  H   UNL     1       1.152   3.856  18.794  0.00  0.00    +0.000 HD
ENDROOT
BRANCH   4  19
ATOM     19  S   UNL     1       0.008   9.499  22.007  0.00  0.00    +0.000 S 
ATOM     20  O   UNL     1      -1.160   8.705  22.336  0.00  0.00    +0.000 OA
ATOM     21  O   UNL     1       0.882  10.011  23.053  0.00  0.00    +0.000 OA
BRANCH  19  22
ATOM     22  C   UNL     1      -0.529  10.892  21.052  0.00  0.00    +0.000 A 
ATOM     23  C   UNL     1      -0.408  12.182  21.574  0.00  0.00    +0.000 A 
ATOM     24  C   UNL     1      -0.841  13.267  20.818  0.00  0.00    +0.000 A 
ATOM     25  C   UNL     1      -1.422  13.051  19.566  0.00  0.00    +0.000 A 
ATOM     26  C   UNL     1      -1.597  11.755  19.066  0.00  0.00    +0.000 A 
ATOM     27  C   UNL     1      -1.112  10.672  19.793  0.00  0.00    +0.000 A 
BRANCH  26  28
ATOM     28  O   UNL     1      -2.223  11.696  17.858  0.00  0.00    +0.000 OA
BRANCH  28  29
ATOM     29  C   UNL     1      -3.544  11.176  17.787  0.00  0.00    +0.000 C 
ATOM     30  F   UNL     1      -3.596   9.829  17.763  0.00  0.00    +0.000 F 
ATOM     31  F   UNL     1      -4.224  11.596  18.876  0.00  0.00    +0.000 F 
ATOM     32  F   UNL     1      -4.161  11.662  16.689  0.00  0.00    +0.000 F 
ENDBRANCH  28  29
ENDBRANCH  26  28
ENDBRANCH  19  22
ENDBRANCH   4  19
TORSDOF 4
ENDMDL
MODEL 6
REMARK VINA RESULT:      -7.8      1.913      2.531
REMARK  Name = 
REMARK  6 active torsions:
REMARK  status: ('A' for Active; 'I' for Inactive)
REMARK    1  A    between atoms: C_1  and  C_2
REMARK    2  A    between atoms: C_4  and  S_5
REMARK    3  A    between atoms: S_5  and  C_8
REMARK    4  A    between atoms: C_12  and  O_13
REMARK    5  A    between atoms: O_13  and  C_14
REMARK    6  A    between atoms: N_23  and  C_24
REMARK                            x       y       z     vdW  Elec       q    Type
REMARK                         _______ _______ _______ _____ _____    ______ ____
ROOT
ATOM      1  C   UNL     1       1.438   6.150  21.498  0.00  0.00    +0.000 C 
ATOM      2  C   UNL     1       1.717   6.846  20.200  0.00  0.00    +0.000 A 
ATOM      3  C   UNL     1       1.418   8.229  20.096  0.00  0.00    +0.000 A 
ATOM      4  C   UNL     1       1.779   8.977  18.972  0.00  0.00    +0.000 A 
ATOM      5  C   UNL     1       2.526   8.408  17.948  0.00  0.00    +0.000 A 
ATOM      6  C   UNL     1       2.822   7.040  18.012  0.00  0.00    +0.000 A 
ATOM      7  C   UNL     1       3.708   6.233  17.262  0.00  0.00    +0.000 A 
ATOM      8  C   UNL     1       3.467   4.918  17.610  0.00  0.00    +0.000 A 
ATOM      9  N   UNL     1       2.790   4.946  18.809  0.00  0.00    +0.000 N 
ATOM     10  C   UNL     1       2.743   3.850  19.752  0.00  0.00    +0.000 C 
ATOM     11  C   UNL     1       2.367   6.253  19.080  0.00  0.00    +0.000 A 
ATOM     12  C   UNL     1       4.264   3.823  16.968  0.00  0.00    +0.000 C 
ATOM     13  C   UNL     1       5.662   4.423  16.582  0.00  0.00    +0.000 C 
ATOM     14  C   UNL     1       5.813   4.781  15.116  0.00  0.00    +0.000 C 
ATOM     15  C   UNL     1       5.684   6.297  15.136  0.00  0.00    +0.000 C 
ATOM     16  C   UNL     1       4.939   6.710  16.435  0.00  0.00    +0.000 C 
ATOM     17  N   UNL     1       5.883   5.784  17.139  0.00  0.00    +0.000 NA
ATOM     18  H   UNL     1       5.699   5.788  18.144  0.00  0.00    +0.000 HD
ENDROOT
BRANCH   4  19
ATOM     19  S   UNL     1       1.374  10.710  18.875  0.00  0.00    +0.000 S 
ATOM     20  O   UNL     1       1.552  11.262  20.205  0.00  0.00    +0.000 OA
ATOM     21  O   UNL     1       2.084  11.270  17.734  0.00  0.00    +0.000 OA
BRANCH  19  22
ATOM     22  C   UNL     1      -0.354  10.764  18.487  0.00  0.00    +0.000 A 
ATOM     23  C   UNL     1      -1.232  11.466  19.317  0.00  0.00    +0.000 A 
ATOM     24  C   UNL     1      -2.588  11.494  19.006  0.00  0.00    +0.000 A 
ATOM     25  C   UNL     1      -3.059  10.793  17.894  0.00  0.00    +0.000 A 
ATOM     26  C   UNL     1      -2.189  10.042  17.093  0.00  0.00    +0.000 A 
ATOM     27  C   UNL     1      -0.824  10.059  17.367  0.00  0.00    +0.000 A 
BRANCH  26  28
ATOM     28  O   UNL     1      -2.795   9.371  16.076  0.00  0.00    +0.000 OA
BRANCH  28  29
ATOM     29  C   UNL     1      -3.163  10.081  14.900  0.00  0.00    +0.000 C 
ATOM     30  F   UNL     1      -3.107  11.421  15.034  0.00  0.00    +0.000 F 
ATOM     31  F   UNL     1      -2.314   9.729  13.910  0.00  0.00    +0.000 F 
ATOM     32  F   UNL     1      -4.413   9.725  14.532  0.00  0.00    +0.000 F 
ENDBRANCH  28  29
ENDBRANCH  26  28
ENDBRANCH  19  22
ENDBRANCH   4  19
TORSDOF 4
ENDMDL
MODEL 7
REMARK VINA RESULT:      -7.7      4.511      7.939
REMARK  Name = 
REMARK  6 active torsions:
REMARK  status: ('A' for Active; 'I' for Inactive)
REMARK    1  A    between atoms: C_1  and  C_2
REMARK    2  A    between atoms: C_4  and  S_5
REMARK    3  A    between atoms: S_5  and  C_8
REMARK    4  A    between atoms: C_12  and  O_13
REMARK    5  A    between atoms: O_13  and  C_14
REMARK    6  A    between atoms: N_23  and  C_24
REMARK                            x       y       z     vdW  Elec       q    Type
REMARK                         _______ _______ _______ _____ _____    ______ ____
ROOT
ATOM      1  C   UNL     1       1.145   9.047  22.213  0.00  0.00    +0.000 C 
ATOM      2  C   UNL     1       1.203   9.089  20.715  0.00  0.00    +0.000 A 
ATOM      3  C   UNL     1       2.147   8.262  20.052  0.00  0.00    +0.000 A 
ATOM      4  C   UNL     1       2.167   8.140  18.660  0.00  0.00    +0.000 A 
ATOM      5  C   UNL     1       1.201   8.759  17.877  0.00  0.00    +0.000 A 
ATOM      6  C   UNL     1       0.266   9.596  18.500  0.00  0.00    +0.000 A 
ATOM      7  C   UNL     1      -0.930  10.186  18.030  0.00  0.00    +0.000 A 
ATOM      8  C   UNL     1      -1.363  11.075  18.995  0.00  0.00    +0.000 A 
ATOM      9  N   UNL     1      -0.719  10.730  20.163  0.00  0.00    +0.000 N 
ATOM     10  C   UNL     1      -1.190  11.063  21.490  0.00  0.00    +0.000 C 
ATOM     11  C   UNL     1       0.306   9.819  19.885  0.00  0.00    +0.000 A 
ATOM     12  C   UNL     1      -2.620  11.858  18.772  0.00  0.00    +0.000 C 
ATOM     13  C   UNL     1      -3.548  11.004  17.837  0.00  0.00    +0.000 C 
ATOM     14  C   UNL     1      -3.552  11.436  16.385  0.00  0.00    +0.000 C 
ATOM     15  C   UNL     1      -2.686  10.373  15.724  0.00  0.00    +0.000 C 
ATOM     16  C   UNL     1      -1.789   9.724  16.815  0.00  0.00    +0.000 C 
ATOM     17  N   UNL     1      -3.043   9.620  17.628  0.00  0.00    +0.000 NA
ATOM     18  H   UNL     1      -2.846   9.177  18.527  0.00  0.00    +0.000 HD
ENDROOT
BRANCH   4  19
ATOM     19  S   UNL     1       3.375   7.100  17.864  0.00  0.00    +0.000 S 
ATOM     20  O   UNL     1       3.338   7.413  16.448  0.00  0.00    +0.000 OA
ATOM     21  O   UNL     1       4.617   7.200  18.618  0.00  0.00    +0.000 OA
BRANCH  19  22
ATOM     22  C   UNL     1       2.775   5.445  18.073  0.00  0.00    +0.000 A 
ATOM     23  C   UNL     1       2.913   4.519  17.036  0.00  0.00    +0.000 A 
ATOM     24  C   UNL     1       2.430   3.225  17.209  0.00  0.00    +0.000 A 
ATOM     25  C   UNL     1       1.785   2.880  18.399  0.00  0.00    +0.000 A 
ATOM     26  C   UNL     1       1.595   3.822  19.417  0.00  0.00    +0.000 A 
ATOM     27  C   UNL     1       2.127   5.100  19.271  0.00  0.00    +0.000 A 
BRANCH  26  28
ATOM     28  O   UNL     1       0.906   3.358  20.495  0.00  0.00    +0.000 OA
BRANCH  28  29
ATOM     29  C   UNL     1       1.625   2.891  21.628  0.00  0.00    +0.000 C 
ATOM     30  F   UNL     1       2.273   3.863  22.300  0.00  0.00    +0.000 F 
ATOM     31  F   UNL     1       0.747   2.317  22.480  0.00  0.00    +0.000 F 
ATOM     32  F   UNL     1       2.515   1.951  21.241  0.00  0.00    +0.000 F 
ENDBRANCH  28  29
ENDBRANCH  26  28
ENDBRANCH  19  22
ENDBRANCH   4  19
TORSDOF 4
ENDMDL
MODEL 8
REMARK VINA RESULT:      -7.6      4.789      9.134
REMARK  Name = 
REMARK  6 active torsions:
REMARK  status: ('A' for Active; 'I' for Inactive)
REMARK    1  A    between atoms: C_1  and  C_2
REMARK    2  A    between atoms: C_4  and  S_5
REMARK    3  A    between atoms: S_5  and  C_8
REMARK    4  A    between atoms: C_12  and  O_13
REMARK    5  A    between atoms: O_13  and  C_14
REMARK    6  A    between atoms: N_23  and  C_24
REMARK                            x       y       z     vdW  Elec       q    Type
REMARK                         _______ _______ _______ _____ _____    ______ ____
ROOT
ATOM      1  C   UNL     1      -3.164  10.202  16.075  0.00  0.00    +0.000 C 
ATOM      2  C   UNL     1      -2.526  10.604  17.371  0.00  0.00    +0.000 A 
ATOM      3  C   UNL     1      -1.126  10.426  17.520  0.00  0.00    +0.000 A 
ATOM      4  C   UNL     1      -0.439  10.904  18.638  0.00  0.00    +0.000 A 
ATOM      5  C   UNL     1      -1.092  11.652  19.610  0.00  0.00    +0.000 A 
ATOM      6  C   UNL     1      -2.478  11.830  19.501  0.00  0.00    +0.000 A 
ATOM      7  C   UNL     1      -3.374  12.682  20.187  0.00  0.00    +0.000 A 
ATOM      8  C   UNL     1      -4.656  12.316  19.825  0.00  0.00    +0.000 A 
ATOM      9  N   UNL     1      -4.542  11.584  18.664  0.00  0.00    +0.000 N 
ATOM     10  C   UNL     1      -5.606  11.398  17.701  0.00  0.00    +0.000 C 
ATOM     11  C   UNL     1      -3.199  11.258  18.442  0.00  0.00    +0.000 A 
ATOM     12  C   UNL     1      -5.827  13.051  20.401  0.00  0.00    +0.000 C 
ATOM     13  C   UNL     1      -5.355  14.512  20.726  0.00  0.00    +0.000 C 
ATOM     14  C   UNL     1      -5.047  14.766  22.188  0.00  0.00    +0.000 C 
ATOM     15  C   UNL     1      -3.525  14.763  22.207  0.00  0.00    +0.000 C 
ATOM     16  C   UNL     1      -3.020  13.989  20.958  0.00  0.00    +0.000 C 
ATOM     17  N   UNL     1      -4.002  14.816  20.186  0.00  0.00    +0.000 NA
ATOM     18  H   UNL     1      -3.958  14.582  19.192  0.00  0.00    +0.000 HD
ENDROOT
BRANCH   4  19
ATOM     19  S   UNL     1       1.318  10.650  18.793  0.00  0.00    +0.000 S 
ATOM     20  O   UNL     1       1.867  10.651  17.450  0.00  0.00    +0.000 OA
ATOM     21  O   UNL     1       1.815  11.574  19.803  0.00  0.00    +0.000 OA
BRANCH  19  22
ATOM     22  C   UNL     1       1.497   9.015  19.454  0.00  0.00    +0.000 A 
ATOM     23  C   UNL     1       0.957   8.708  20.706  0.00  0.00    +0.000 A 
ATOM     24  C   UNL     1       1.111   7.424  21.218  0.00  0.00    +0.000 A 
ATOM     25  C   UNL     1       1.830   6.470  20.493  0.00  0.00    +0.000 A 
ATOM     26  C   UNL     1       2.421   6.793  19.265  0.00  0.00    +0.000 A 
ATOM     27  C   UNL     1       2.220   8.059  18.722  0.00  0.00    +0.000 A 
BRANCH  26  28
ATOM     28  O   UNL     1       3.133   5.781  18.697  0.00  0.00    +0.000 OA
BRANCH  28  29
ATOM     29  C   UNL     1       2.440   4.734  18.031  0.00  0.00    +0.000 C 
ATOM     30  F   UNL     1       3.158   4.140  17.057  0.00  0.00    +0.000 F 
ATOM     31  F   UNL     1       2.122   3.789  18.943  0.00  0.00    +0.000 F 
ATOM     32  F   UNL     1       1.293   5.216  17.505  0.00  0.00    +0.000 F 
ENDBRANCH  28  29
ENDBRANCH  26  28
ENDBRANCH  19  22
ENDBRANCH   4  19
TORSDOF 4
ENDMDL
MODEL 9
REMARK VINA RESULT:      -7.6      5.013      9.373
REMARK  Name = 
REMARK  6 active torsions:
REMARK  status: ('A' for Active; 'I' for Inactive)
REMARK    1  A    between atoms: C_1  and  C_2
REMARK    2  A    between atoms: C_4  and  S_5
REMARK    3  A    between atoms: S_5  and  C_8
REMARK    4  A    between atoms: C_12  and  O_13
REMARK    5  A    between atoms: O_13  and  C_14
REMARK    6  A    between atoms: N_23  and  C_24
REMARK                            x       y       z     vdW  Elec       q    Type
REMARK                         _______ _______ _______ _____ _____    ______ ____
ROOT
ATOM      1  C   UNL     1      -2.989  10.157  16.227  0.00  0.00    +0.000 C 
ATOM      2  C   UNL     1      -2.532  10.632  17.574  0.00  0.00    +0.000 A 
ATOM      3  C   UNL     1      -1.150  10.555  17.886  0.00  0.00    +0.000 A 
ATOM      4  C   UNL     1      -0.629  11.105  19.060  0.00  0.00    +0.000 A 
ATOM      5  C   UNL     1      -1.438  11.829  19.927  0.00  0.00    +0.000 A 
ATOM      6  C   UNL     1      -2.811  11.908  19.657  0.00  0.00    +0.000 A 
ATOM      7  C   UNL     1      -3.834  12.712  20.209  0.00  0.00    +0.000 A 
ATOM      8  C   UNL     1      -5.039  12.249  19.716  0.00  0.00    +0.000 A 
ATOM      9  N   UNL     1      -4.744  11.499  18.599  0.00  0.00    +0.000 N 
ATOM     10  C   UNL     1      -5.676  11.218  17.528  0.00  0.00    +0.000 C 
ATOM     11  C   UNL     1      -3.366  11.262  18.541  0.00  0.00    +0.000 A 
ATOM     12  C   UNL     1      -6.315  12.914  20.133  0.00  0.00    +0.000 C 
ATOM     13  C   UNL     1      -5.981  14.412  20.463  0.00  0.00    +0.000 C 
ATOM     14  C   UNL     1      -5.861  14.720  21.942  0.00  0.00    +0.000 C 
ATOM     15  C   UNL     1      -4.355  14.823  22.134  0.00  0.00    +0.000 C 
ATOM     16  C   UNL     1      -3.659  14.058  20.975  0.00  0.00    +0.000 C 
ATOM     17  N   UNL     1      -4.598  14.796  20.071  0.00  0.00    +0.000 NA
ATOM     18  H   UNL     1      -4.425  14.543  19.096  0.00  0.00    +0.000 HD
ENDROOT
BRANCH   4  19
ATOM     19  S   UNL     1       1.111  10.978  19.420  0.00  0.00    +0.000 S 
ATOM     20  O   UNL     1       1.823  11.422  18.236  0.00  0.00    +0.000 OA
ATOM     21  O   UNL     1       1.346  11.607  20.712  0.00  0.00    +0.000 OA
BRANCH  19  22
ATOM     22  C   UNL     1       1.419   9.245  19.624  0.00  0.00    +0.000 A 
ATOM     23  C   UNL     1       1.132   8.626  20.843  0.00  0.00    +0.000 A 
ATOM     24  C   UNL     1       1.386   7.266  20.993  0.00  0.00    +0.000 A 
ATOM     25  C   UNL     1       1.956   6.547  19.940  0.00  0.00    +0.000 A 
ATOM     26  C   UNL     1       2.297   7.177  18.738  0.00  0.00    +0.000 A 
ATOM     27  C   UNL     1       1.992   8.524  18.563  0.00  0.00    +0.000 A 
BRANCH  26  28
ATOM     28  O   UNL     1       2.891   6.364  17.822  0.00  0.00    +0.000 OA
BRANCH  28  29
ATOM     29  C   UNL     1       4.304   6.219  17.836  0.00  0.00    +0.000 C 
ATOM     30  F   UNL     1       4.804   5.883  19.041  0.00  0.00    +0.000 F 
ATOM     31  F   UNL     1       4.639   5.243  16.964  0.00  0.00    +0.000 F 
ATOM     32  F   UNL     1       4.879   7.370  17.423  0.00  0.00    +0.000 F 
ENDBRANCH  28  29
ENDBRANCH  26  28
ENDBRANCH  19  22
ENDBRANCH   4  19
TORSDOF 4
ENDMDL
