MODEL 1
REMARK VINA RESULT:      -8.2      0.000      0.000
REMARK  Name = 
REMARK  12 active torsions:
REMARK  status: ('A' for Active; 'I' for Inactive)
REMARK    1  A    between atoms: C_2  and  C_3
REMARK    2  A    between atoms: C_2  and  C_11
REMARK    3  A    between atoms: C_3  and  C_4
REMARK    4  A    between atoms: C_4  and  C_5
REMARK    5  A    between atoms: C_16  and  O_17
REMARK    6  A    between atoms: O_17  and  C_18
REMARK    7  A    between atoms: C_18  and  C_19
REMARK    8  A    between atoms: C_19  and  O_20
REMARK    9  A    between atoms: C_19  and  C_21
REMARK   10  A    between atoms: C_21  and  N_22
REMARK   11  A    between atoms: N_25  and  C_26
REMARK   12  A    between atoms: C_29  and  O_30
REMARK                            x       y       z     vdW  Elec       q    Type
REMARK                         _______ _______ _______ _____ _____    ______ ____
ROOT
ATOM      1  C   UNL     1       1.271   4.924  20.715  0.00  0.00    +0.000 C 
ENDROOT
BRANCH   1   2
ATOM      2  O   UNL     1       1.819   6.179  20.950  0.00  0.00    +0.000 OA
BRANCH   2   8
ATOM      3  C   UNL     1       1.476   8.501  20.277  0.00  0.00    +0.000 A 
ATOM      4  C   UNL     1       1.557   9.465  19.245  0.00  0.00    +0.000 A 
ATOM      5  C   UNL     1       2.031   9.128  17.978  0.00  0.00    +0.000 A 
ATOM      6  C   UNL     1       2.440   7.831  17.709  0.00  0.00    +0.000 A 
ATOM      7  C   UNL     1       2.362   6.858  18.696  0.00  0.00    +0.000 A 
ATOM      8  C   UNL     1       1.875   7.158  19.993  0.00  0.00    +0.000 A 
BRANCH   3  10
ATOM      9  O   UNL     1       1.876   9.247  22.475  0.00  0.00    +0.000 OA
ATOM     10  C   UNL     1       1.036   8.931  21.644  0.00  0.00    +0.000 C 
BRANCH  10  11
ATOM     11  C   UNL     1      -0.446   9.127  21.962  0.00  0.00    +0.000 C 
BRANCH  11  12
ATOM     12  C   UNL     1      -0.784  10.596  22.279  0.00  0.00    +0.000 C 
BRANCH  12  13
ATOM     13  C   UNL     1      -0.601  11.541  21.114  0.00  0.00    +0.000 A 
ATOM     14  C   UNL     1       0.402  12.526  21.154  0.00  0.00    +0.000 A 
ATOM     15  C   UNL     1       0.615  13.371  20.059  0.00  0.00    +0.000 A 
ATOM     16  C   UNL     1      -0.174  13.247  18.912  0.00  0.00    +0.000 A 
ATOM     17  C   UNL     1      -1.178  12.279  18.862  0.00  0.00    +0.000 A 
ATOM     18  C   UNL     1      -1.393  11.427  19.949  0.00  0.00    +0.000 A 
ENDBRANCH  12  13
ENDBRANCH  11  12
ENDBRANCH  10  11
ENDBRANCH   3  10
ENDBRANCH   2   8
ENDBRANCH   1   2
BRANCH   1  19
ATOM     19  C   UNL     1       2.243   3.772  20.987  0.00  0.00    +0.000 C 
BRANCH  19  20
ATOM     20  O   UNL     1       2.115   3.320  22.311  0.00  0.00    +0.000 OA
ATOM     21  H   UNL     1       2.743   2.560  22.438  0.00  0.00    +0.000 HD
ENDBRANCH  19  20
BRANCH  19  22
ATOM     22  C   UNL     1       1.984   2.598  19.994  0.00  0.00    +0.000 C 
BRANCH  22  23
ATOM     23  N   UNL     1       3.233   1.949  19.495  0.00  0.00    +0.000 NA
ATOM     24  C   UNL     1       3.233   1.673  18.043  0.00  0.00    +0.000 C 
ATOM     25  C   UNL     1       3.227   2.975  17.230  0.00  0.00    +0.000 C 
ATOM     26  N   UNL     1       4.388   3.768  17.623  0.00  0.00    +0.000 N 
ATOM     27  C   UNL     1       4.533   4.043  19.051  0.00  0.00    +0.000 C 
ATOM     28  C   UNL     1       4.454   2.722  19.841  0.00  0.00    +0.000 C 
BRANCH  26  29
ATOM     29  C   UNL     1       5.332   4.224  16.636  0.00  0.00    +0.000 A 
ATOM     30  C   UNL     1       5.029   4.114  15.261  0.00  0.00    +0.000 A 
ATOM     31  C   UNL     1       5.927   4.543  14.287  0.00  0.00    +0.000 A 
ATOM     32  C   UNL     1       7.157   5.092  14.660  0.00  0.00    +0.000 A 
ATOM     33  C   UNL     1       7.473   5.219  16.014  0.00  0.00    +0.000 A 
ATOM     34  C   UNL     1       6.572   4.801  16.997  0.00  0.00    +0.000 A 
BRANCH  32  35
ATOM     35  O   UNL     1       8.037   5.497  13.722  0.00  0.00    +0.000 OA
ATOM     36  H   UNL     1       7.895   6.301  13.201  0.00  0.00    +0.000 HD
ENDBRANCH  32  35
ENDBRANCH  26  29
ENDBRANCH  22  23
ENDBRANCH  19  22
ENDBRANCH   1  19
TORSDOF 12
ENDMDL
MODEL 2
REMARK VINA RESULT:      -7.6      3.547     10.619
REMARK  Name = 
REMARK  12 active torsions:
REMARK  status: ('A' for Active; 'I' for Inactive)
REMARK    1  A    between atoms: C_2  and  C_3
REMARK    2  A    between atoms: C_2  and  C_11
REMARK    3  A    between atoms: C_3  and  C_4
REMARK    4  A    between atoms: C_4  and  C_5
REMARK    5  A    between atoms: C_16  and  O_17
REMARK    6  A    between atoms: O_17  and  C_18
REMARK    7  A    between atoms: C_18  and  C_19
REMARK    8  A    between atoms: C_19  and  O_20
REMARK    9  A    between atoms: C_19  and  C_21
REMARK   10  A    between atoms: C_21  and  N_22
REMARK   11  A    between atoms: N_25  and  C_26
REMARK   12  A    between atoms: C_29  and  O_30
REMARK                            x       y       z     vdW  Elec       q    Type
REMARK                         _______ _______ _______ _____ _____    ______ ____
ROOT
ATOM      1  C   UNL     1       2.141   7.544  19.021  0.00  0.00    +0.000 C 
ENDROOT
BRANCH   1   2
ATOM      2  O   UNL     1       2.731   6.836  17.980  0.00  0.00    +0.000 OA
BRANCH   2   8
ATOM      3  C   UNL     1       3.949   4.729  17.796  0.00  0.00    +0.000 A 
ATOM      4  C   UNL     1       3.882   3.317  17.735  0.00  0.00    +0.000 A 
ATOM      5  C   UNL     1       2.661   2.649  17.806  0.00  0.00    +0.000 A 
ATOM      6  C   UNL     1       1.482   3.364  17.947  0.00  0.00    +0.000 A 
ATOM      7  C   UNL     1       1.512   4.751  17.998  0.00  0.00    +0.000 A 
ATOM      8  C   UNL     1       2.731   5.468  17.917  0.00  0.00    +0.000 A 
BRANCH   3  10
ATOM      9  O   UNL     1       6.050   5.224  18.739  0.00  0.00    +0.000 OA
ATOM     10  C   UNL     1       5.291   5.396  17.796  0.00  0.00    +0.000 C 
BRANCH  10  11
ATOM     11  C   UNL     1       5.784   6.159  16.567  0.00  0.00    +0.000 C 
BRANCH  11  12
ATOM     12  C   UNL     1       7.014   5.494  15.922  0.00  0.00    +0.000 C 
BRANCH  12  13
ATOM     13  C   UNL     1       6.752   4.890  14.561  0.00  0.00    +0.000 A 
ATOM     14  C   UNL     1       7.668   5.085  13.513  0.00  0.00    +0.000 A 
ATOM     15  C   UNL     1       7.462   4.486  12.265  0.00  0.00    +0.000 A 
ATOM     16  C   UNL     1       6.335   3.689  12.046  0.00  0.00    +0.000 A 
ATOM     17  C   UNL     1       5.413   3.494  13.076  0.00  0.00    +0.000 A 
ATOM     18  C   UNL     1       5.615   4.084  14.327  0.00  0.00    +0.000 A 
ENDBRANCH  12  13
ENDBRANCH  11  12
ENDBRANCH  10  11
ENDBRANCH   3  10
ENDBRANCH   2   8
ENDBRANCH   1   2
BRANCH   1  19
ATOM     19  C   UNL     1       1.948   9.032  18.716  0.00  0.00    +0.000 C 
BRANCH  19  20
ATOM     20  O   UNL     1       1.655   9.223  17.355  0.00  0.00    +0.000 OA
ATOM     21  H   UNL     1       1.727  10.195  17.160  0.00  0.00    +0.000 HD
ENDBRANCH  19  20
BRANCH  19  22
ATOM     22  C   UNL     1       0.804   9.623  19.596  0.00  0.00    +0.000 C 
BRANCH  22  23
ATOM     23  N   UNL     1       1.294  10.391  20.779  0.00  0.00    +0.000 NA
ATOM     24  C   UNL     1       1.081  11.850  20.685  0.00  0.00    +0.000 C 
ATOM     25  C   UNL     1      -0.414  12.195  20.702  0.00  0.00    +0.000 C 
ATOM     26  N   UNL     1      -0.999  11.649  21.922  0.00  0.00    +0.000 N 
ATOM     27  C   UNL     1      -0.789  10.222  22.161  0.00  0.00    +0.000 C 
ATOM     28  C   UNL     1       0.715   9.898  22.056  0.00  0.00    +0.000 C 
BRANCH  26  29
ATOM     29  C   UNL     1      -1.722  12.498  22.833  0.00  0.00    +0.000 A 
ATOM     30  C   UNL     1      -1.165  13.727  23.249  0.00  0.00    +0.000 A 
ATOM     31  C   UNL     1      -1.841  14.564  24.133  0.00  0.00    +0.000 A 
ATOM     32  C   UNL     1      -3.094  14.195  24.631  0.00  0.00    +0.000 A 
ATOM     33  C   UNL     1      -3.668  12.988  24.224  0.00  0.00    +0.000 A 
ATOM     34  C   UNL     1      -3.000  12.149  23.329  0.00  0.00    +0.000 A 
BRANCH  32  35
ATOM     35  O   UNL     1      -3.748  14.994  25.497  0.00  0.00    +0.000 OA
ATOM     36  H   UNL     1      -4.450  15.596  25.208  0.00  0.00    +0.000 HD
ENDBRANCH  32  35
ENDBRANCH  26  29
ENDBRANCH  22  23
ENDBRANCH  19  22
ENDBRANCH   1  19
TORSDOF 12
ENDMDL
MODEL 3
REMARK VINA RESULT:      -7.5      3.804     10.909
REMARK  Name = 
REMARK  12 active torsions:
REMARK  status: ('A' for Active; 'I' for Inactive)
REMARK    1  A    between atoms: C_2  and  C_3
REMARK    2  A    between atoms: C_2  and  C_11
REMARK    3  A    between atoms: C_3  and  C_4
REMARK    4  A    between atoms: C_4  and  C_5
REMARK    5  A    between atoms: C_16  and  O_17
REMARK    6  A    between atoms: O_17  and  C_18
REMARK    7  A    between atoms: C_18  and  C_19
REMARK    8  A    between atoms: C_19  and  O_20
REMARK    9  A    between atoms: C_19  and  C_21
REMARK   10  A    between atoms: C_21  and  N_22
REMARK   11  A    between atoms: N_25  and  C_26
REMARK   12  A    between atoms: C_29  and  O_30
REMARK                            x       y       z     vdW  Elec       q    Type
REMARK                         _______ _______ _______ _____ _____    ______ ____
ROOT
ATOM      1  C   UNL     1       1.955   8.713  17.716  0.00  0.00    +0.000 C 
ENDROOT
BRANCH   1   2
ATOM      2  O   UNL     1       3.078   7.946  18.000  0.00  0.00    +0.000 OA
BRANCH   2   8
ATOM      3  C   UNL     1       4.019   5.780  18.619  0.00  0.00    +0.000 A 
ATOM      4  C   UNL     1       3.910   4.621  19.421  0.00  0.00    +0.000 A 
ATOM      5  C   UNL     1       2.870   4.473  20.338  0.00  0.00    +0.000 A 
ATOM      6  C   UNL     1       1.921   5.473  20.483  0.00  0.00    +0.000 A 
ATOM      7  C   UNL     1       1.992   6.618  19.702  0.00  0.00    +0.000 A 
ATOM      8  C   UNL     1       3.027   6.800  18.750  0.00  0.00    +0.000 A 
BRANCH   3  10
ATOM      9  O   UNL     1       6.320   6.033  18.184  0.00  0.00    +0.000 OA
ATOM     10  C   UNL     1       5.199   5.927  17.707  0.00  0.00    +0.000 C 
BRANCH  10  11
ATOM     11  C   UNL     1       5.039   5.789  16.193  0.00  0.00    +0.000 C 
BRANCH  11  12
ATOM     12  C   UNL     1       5.321   4.356  15.704  0.00  0.00    +0.000 C 
BRANCH  12  13
ATOM     13  C   UNL     1       6.023   4.282  14.368  0.00  0.00    +0.000 A 
ATOM     14  C   UNL     1       5.501   3.479  13.339  0.00  0.00    +0.000 A 
ATOM     15  C   UNL     1       6.113   3.446  12.081  0.00  0.00    +0.000 A 
ATOM     16  C   UNL     1       7.257   4.210  11.836  0.00  0.00    +0.000 A 
ATOM     17  C   UNL     1       7.790   5.006  12.851  0.00  0.00    +0.000 A 
ATOM     18  C   UNL     1       7.181   5.050  14.108  0.00  0.00    +0.000 A 
ENDBRANCH  12  13
ENDBRANCH  11  12
ENDBRANCH  10  11
ENDBRANCH   3  10
ENDBRANCH   2   8
ENDBRANCH   1   2
BRANCH   1  19
ATOM     19  C   UNL     1       1.984  10.102  18.358  0.00  0.00    +0.000 C 
BRANCH  19  20
ATOM     20  O   UNL     1       2.298  11.082  17.400  0.00  0.00    +0.000 OA
ATOM     21  H   UNL     1       3.123  10.794  16.927  0.00  0.00    +0.000 HD
ENDBRANCH  19  20
BRANCH  19  22
ATOM     22  C   UNL     1       0.609  10.424  19.020  0.00  0.00    +0.000 C 
BRANCH  22  23
ATOM     23  N   UNL     1       0.473  11.844  19.460  0.00  0.00    +0.000 NA
ATOM     24  C   UNL     1      -0.774  12.500  19.013  0.00  0.00    +0.000 C 
ATOM     25  C   UNL     1      -2.004  11.863  19.674  0.00  0.00    +0.000 C 
ATOM     26  N   UNL     1      -1.845  11.949  21.122  0.00  0.00    +0.000 N 
ATOM     27  C   UNL     1      -0.610  11.396  21.674  0.00  0.00    +0.000 C 
ATOM     28  C   UNL     1       0.601  11.998  20.933  0.00  0.00    +0.000 C 
BRANCH  26  29
ATOM     29  C   UNL     1      -2.859  12.568  21.936  0.00  0.00    +0.000 A 
ATOM     30  C   UNL     1      -2.987  12.217  23.297  0.00  0.00    +0.000 A 
ATOM     31  C   UNL     1      -3.962  12.797  24.105  0.00  0.00    +0.000 A 
ATOM     32  C   UNL     1      -4.841  13.744  23.573  0.00  0.00    +0.000 A 
ATOM     33  C   UNL     1      -4.726  14.114  22.231  0.00  0.00    +0.000 A 
ATOM     34  C   UNL     1      -3.743  13.544  21.418  0.00  0.00    +0.000 A 
BRANCH  32  35
ATOM     35  O   UNL     1      -5.796  14.300  24.346  0.00  0.00    +0.000 OA
ATOM     36  H   UNL     1      -5.875  14.094  25.289  0.00  0.00    +0.000 HD
ENDBRANCH  32  35
ENDBRANCH  26  29
ENDBRANCH  22  23
ENDBRANCH  19  22
ENDBRANCH   1  19
TORSDOF 12
ENDMDL
MODEL 4
REMARK VINA RESULT:      -7.4      3.409     10.076
REMARK  Name = 
REMARK  12 active torsions:
REMARK  status: ('A' for Active; 'I' for Inactive)
REMARK    1  A    between atoms: C_2  and  C_3
REMARK    2  A    between atoms: C_2  and  C_11
REMARK    3  A    between atoms: C_3  and  C_4
REMARK    4  A    between atoms: C_4  and  C_5
REMARK    5  A    between atoms: C_16  and  O_17
REMARK    6  A    between atoms: O_17  and  C_18
REMARK    7  A    between atoms: C_18  and  C_19
REMARK    8  A    between atoms: C_19  and  O_20
REMARK    9  A    between atoms: C_19  and  C_21
REMARK   10  A    between atoms: C_21  and  N_22
REMARK   11  A    between atoms: N_25  and  C_26
REMARK   12  A    between atoms: C_29  and  O_30
REMARK                            x       y       z     vdW  Elec       q    Type
REMARK                         _______ _______ _______ _____ _____    ______ ____
ROOT
ATOM      1  C   UNL     1       1.246   6.249  20.880  0.00  0.00    +0.000 C 
ENDROOT
BRANCH   1   2
ATOM      2  O   UNL     1       2.175   5.218  20.806  0.00  0.00    +0.000 OA
BRANCH   2   8
ATOM      3  C   UNL     1       3.183   3.575  19.308  0.00  0.00    +0.000 A 
ATOM      4  C   UNL     1       2.981   2.484  18.431  0.00  0.00    +0.000 A 
ATOM      5  C   UNL     1       1.707   1.969  18.200  0.00  0.00    +0.000 A 
ATOM      6  C   UNL     1       0.607   2.520  18.838  0.00  0.00    +0.000 A 
ATOM      7  C   UNL     1       0.768   3.599  19.695  0.00  0.00    +0.000 A 
ATOM      8  C   UNL     1       2.045   4.159  19.947  0.00  0.00    +0.000 A 
BRANCH   3  10
ATOM      9  O   UNL     1       5.450   3.218  19.837  0.00  0.00    +0.000 OA
ATOM     10  C   UNL     1       4.580   4.040  19.585  0.00  0.00    +0.000 C 
BRANCH  10  11
ATOM     11  C   UNL     1       4.966   5.508  19.403  0.00  0.00    +0.000 C 
BRANCH  11  12
ATOM     12  C   UNL     1       6.306   5.672  18.662  0.00  0.00    +0.000 C 
BRANCH  12  13
ATOM     13  C   UNL     1       6.234   5.389  17.179  0.00  0.00    +0.000 A 
ATOM     14  C   UNL     1       5.251   6.009  16.388  0.00  0.00    +0.000 A 
ATOM     15  C   UNL     1       5.210   5.796  15.006  0.00  0.00    +0.000 A 
ATOM     16  C   UNL     1       6.147   4.958  14.396  0.00  0.00    +0.000 A 
ATOM     17  C   UNL     1       7.125   4.330  15.170  0.00  0.00    +0.000 A 
ATOM     18  C   UNL     1       7.176   4.543  16.551  0.00  0.00    +0.000 A 
ENDBRANCH  12  13
ENDBRANCH  11  12
ENDBRANCH  10  11
ENDBRANCH   3  10
ENDBRANCH   2   8
ENDBRANCH   1   2
BRANCH   1  19
ATOM     19  C   UNL     1       1.815   7.615  20.486  0.00  0.00    +0.000 C 
BRANCH  19  20
ATOM     20  O   UNL     1       2.202   7.617  19.135  0.00  0.00    +0.000 OA
ATOM     21  H   UNL     1       3.177   7.807  19.097  0.00  0.00    +0.000 HD
ENDBRANCH  19  20
BRANCH  19  22
ATOM     22  C   UNL     1       0.760   8.735  20.742  0.00  0.00    +0.000 C 
BRANCH  22  23
ATOM     23  N   UNL     1       1.244   9.818  21.649  0.00  0.00    +0.000 NA
ATOM     24  C   UNL     1       0.966  11.186  21.163  0.00  0.00    +0.000 C 
ATOM     25  C   UNL     1      -0.542  11.469  21.135  0.00  0.00    +0.000 C 
ATOM     26  N   UNL     1      -1.074  11.263  22.479  0.00  0.00    +0.000 N 
ATOM     27  C   UNL     1      -0.796   9.966  23.095  0.00  0.00    +0.000 C 
ATOM     28  C   UNL     1       0.717   9.679  23.032  0.00  0.00    +0.000 C 
BRANCH  26  29
ATOM     29  C   UNL     1      -1.811  12.305  23.145  0.00  0.00    +0.000 A 
ATOM     30  C   UNL     1      -3.124  12.060  23.605  0.00  0.00    +0.000 A 
ATOM     31  C   UNL     1      -3.860  13.052  24.247  0.00  0.00    +0.000 A 
ATOM     32  C   UNL     1      -3.307  14.320  24.446  0.00  0.00    +0.000 A 
ATOM     33  C   UNL     1      -2.006  14.580  24.008  0.00  0.00    +0.000 A 
ATOM     34  C   UNL     1      -1.258  13.586  23.372  0.00  0.00    +0.000 A 
BRANCH  32  35
ATOM     35  O   UNL     1      -4.019  15.290  25.055  0.00  0.00    +0.000 OA
ATOM     36  H   UNL     1      -4.543  15.116  25.851  0.00  0.00    +0.000 HD
ENDBRANCH  32  35
ENDBRANCH  26  29
ENDBRANCH  22  23
ENDBRANCH  19  22
ENDBRANCH   1  19
TORSDOF 12
ENDMDL
MODEL 5
REMARK VINA RESULT:      -7.4      3.376      9.816
REMARK  Name = 
REMARK  12 active torsions:
REMARK  status: ('A' for Active; 'I' for Inactive)
REMARK    1  A    between atoms: C_2  and  C_3
REMARK    2  A    between atoms: C_2  and  C_11
REMARK    3  A    between atoms: C_3  and  C_4
REMARK    4  A    between atoms: C_4  and  C_5
REMARK    5  A    between atoms: C_16  and  O_17
REMARK    6  A    between atoms: O_17  and  C_18
REMARK    7  A    between atoms: C_18  and  C_19
REMARK    8  A    between atoms: C_19  and  O_20
REMARK    9  A    between atoms: C_19  and  C_21
REMARK   10  A    between atoms: C_21  and  N_22
REMARK   11  A    between atoms: N_25  and  C_26
REMARK   12  A    between atoms: C_29  and  O_30
REMARK                            x       y       z     vdW  Elec       q    Type
REMARK                         _______ _______ _______ _____ _____    ______ ____
ROOT
ATOM      1  C   UNL     1       2.813   7.212  18.976  0.00  0.00    +0.000 C 
ENDROOT
BRANCH   1   2
ATOM      2  O   UNL     1       2.101   6.054  18.693  0.00  0.00    +0.000 OA
BRANCH   2   8
ATOM      3  C   UNL     1       2.563   3.664  18.880  0.00  0.00    +0.000 A 
ATOM      4  C   UNL     1       2.638   2.529  19.721  0.00  0.00    +0.000 A 
ATOM      5  C   UNL     1       2.374   2.623  21.086  0.00  0.00    +0.000 A 
ATOM      6  C   UNL     1       2.036   3.845  21.648  0.00  0.00    +0.000 A 
ATOM      7  C   UNL     1       1.942   4.976  20.849  0.00  0.00    +0.000 A 
ATOM      8  C   UNL     1       2.192   4.919  19.455  0.00  0.00    +0.000 A 
BRANCH   3  10
ATOM      9  O   UNL     1       2.054   3.421  16.594  0.00  0.00    +0.000 OA
ATOM     10  C   UNL     1       2.935   3.527  17.435  0.00  0.00    +0.000 C 
BRANCH  10  11
ATOM     11  C   UNL     1       4.388   3.674  16.985  0.00  0.00    +0.000 C 
BRANCH  11  12
ATOM     12  C   UNL     1       4.724   5.115  16.558  0.00  0.00    +0.000 C 
BRANCH  12  13
ATOM     13  C   UNL     1       5.869   5.739  17.322  0.00  0.00    +0.000 A 
ATOM     14  C   UNL     1       6.409   5.086  18.444  0.00  0.00    +0.000 A 
ATOM     15  C   UNL     1       7.504   5.628  19.126  0.00  0.00    +0.000 A 
ATOM     16  C   UNL     1       8.070   6.833  18.701  0.00  0.00    +0.000 A 
ATOM     17  C   UNL     1       7.539   7.496  17.593  0.00  0.00    +0.000 A 
ATOM     18  C   UNL     1       6.449   6.957  16.902  0.00  0.00    +0.000 A 
ENDBRANCH  12  13
ENDBRANCH  11  12
ENDBRANCH  10  11
ENDBRANCH   3  10
ENDBRANCH   2   8
ENDBRANCH   1   2
BRANCH   1  19
ATOM     19  C   UNL     1       1.956   8.481  18.942  0.00  0.00    +0.000 C 
BRANCH  19  20
ATOM     20  O   UNL     1       1.145   8.498  17.794  0.00  0.00    +0.000 OA
ATOM     21  H   UNL     1       0.212   8.301  18.076  0.00  0.00    +0.000 HD
ENDBRANCH  19  20
BRANCH  19  22
ATOM     22  C   UNL     1       1.071   8.573  20.223  0.00  0.00    +0.000 C 
BRANCH  22  23
ATOM     23  N   UNL     1       1.473   9.669  21.152  0.00  0.00    +0.000 NA
ATOM     24  C   UNL     1       1.184  11.028  20.648  0.00  0.00    +0.000 C 
ATOM     25  C   UNL     1      -0.328  11.269  20.537  0.00  0.00    +0.000 C 
ATOM     26  N   UNL     1      -0.927  11.049  21.850  0.00  0.00    +0.000 N 
ATOM     27  C   UNL     1      -0.647   9.762  22.483  0.00  0.00    +0.000 C 
ATOM     28  C   UNL     1       0.875   9.517  22.504  0.00  0.00    +0.000 C 
BRANCH  26  29
ATOM     29  C   UNL     1      -1.728  12.070  22.471  0.00  0.00    +0.000 A 
ATOM     30  C   UNL     1      -1.550  13.425  22.115  0.00  0.00    +0.000 A 
ATOM     31  C   UNL     1      -2.308  14.433  22.705  0.00  0.00    +0.000 A 
ATOM     32  C   UNL     1      -3.267  14.116  23.671  0.00  0.00    +0.000 A 
ATOM     33  C   UNL     1      -3.468  12.782  24.030  0.00  0.00    +0.000 A 
ATOM     34  C   UNL     1      -2.717  11.764  23.435  0.00  0.00    +0.000 A 
BRANCH  32  35
ATOM     35  O   UNL     1      -3.997  15.088  24.255  0.00  0.00    +0.000 OA
ATOM     36  H   UNL     1      -4.870  15.343  23.922  0.00  0.00    +0.000 HD
ENDBRANCH  32  35
ENDBRANCH  26  29
ENDBRANCH  22  23
ENDBRANCH  19  22
ENDBRANCH   1  19
TORSDOF 12
ENDMDL
MODEL 6
REMARK VINA RESULT:      -7.3      3.333      9.888
REMARK  Name = 
REMARK  12 active torsions:
REMARK  status: ('A' for Active; 'I' for Inactive)
REMARK    1  A    between atoms: C_2  and  C_3
REMARK    2  A    between atoms: C_2  and  C_11
REMARK    3  A    between atoms: C_3  and  C_4
REMARK    4  A    between atoms: C_4  and  C_5
REMARK    5  A    between atoms: C_16  and  O_17
REMARK    6  A    between atoms: O_17  and  C_18
REMARK    7  A    between atoms: C_18  and  C_19
REMARK    8  A    between atoms: C_19  and  O_20
REMARK    9  A    between atoms: C_19  and  C_21
REMARK   10  A    between atoms: C_21  and  N_22
REMARK   11  A    between atoms: N_25  and  C_26
REMARK   12  A    between atoms: C_29  and  O_30
REMARK                            x       y       z     vdW  Elec       q    Type
REMARK                         _______ _______ _______ _____ _____    ______ ____
ROOT
ATOM      1  C   UNL     1       1.681   7.080  18.603  0.00  0.00    +0.000 C 
ENDROOT
BRANCH   1   2
ATOM      2  O   UNL     1       2.676   6.122  18.754  0.00  0.00    +0.000 OA
BRANCH   2   8
ATOM      3  C   UNL     1       2.605   3.684  18.879  0.00  0.00    +0.000 A 
ATOM      4  C   UNL     1       2.413   2.540  19.687  0.00  0.00    +0.000 A 
ATOM      5  C   UNL     1       2.144   2.655  21.050  0.00  0.00    +0.000 A 
ATOM      6  C   UNL     1       2.066   3.906  21.642  0.00  0.00    +0.000 A 
ATOM      7  C   UNL     1       2.238   5.050  20.874  0.00  0.00    +0.000 A 
ATOM      8  C   UNL     1       2.501   4.975  19.484  0.00  0.00    +0.000 A 
BRANCH   3  10
ATOM      9  O   UNL     1       2.115   3.647  16.576  0.00  0.00    +0.000 OA
ATOM     10  C   UNL     1       2.972   3.506  17.437  0.00  0.00    +0.000 C 
BRANCH  10  11
ATOM     11  C   UNL     1       4.428   3.306  17.020  0.00  0.00    +0.000 C 
BRANCH  11  12
ATOM     12  C   UNL     1       4.982   4.511  16.237  0.00  0.00    +0.000 C 
BRANCH  12  13
ATOM     13  C   UNL     1       5.963   5.359  17.014  0.00  0.00    +0.000 A 
ATOM     14  C   UNL     1       6.784   4.772  17.993  0.00  0.00    +0.000 A 
ATOM     15  C   UNL     1       7.733   5.537  18.679  0.00  0.00    +0.000 A 
ATOM     16  C   UNL     1       7.871   6.900  18.402  0.00  0.00    +0.000 A 
ATOM     17  C   UNL     1       7.057   7.498  17.438  0.00  0.00    +0.000 A 
ATOM     18  C   UNL     1       6.111   6.738  16.743  0.00  0.00    +0.000 A 
ENDBRANCH  12  13
ENDBRANCH  11  12
ENDBRANCH  10  11
ENDBRANCH   3  10
ENDBRANCH   2   8
ENDBRANCH   1   2
BRANCH   1  19
ATOM     19  C   UNL     1       2.207   8.518  18.637  0.00  0.00    +0.000 C 
BRANCH  19  20
ATOM     20  O   UNL     1       1.828   9.209  17.473  0.00  0.00    +0.000 OA
ATOM     21  H   UNL     1       1.122   9.862  17.722  0.00  0.00    +0.000 HD
ENDBRANCH  19  20
BRANCH  19  22
ATOM     22  C   UNL     1       1.672   9.262  19.898  0.00  0.00    +0.000 C 
BRANCH  22  23
ATOM     23  N   UNL     1       0.182   9.319  19.973  0.00  0.00    +0.000 NA
ATOM     24  C   UNL     1      -0.369   9.028  21.314  0.00  0.00    +0.000 C 
ATOM     25  C   UNL     1       0.023  10.115  22.323  0.00  0.00    +0.000 C 
ATOM     26  N   UNL     1      -0.448  11.402  21.820  0.00  0.00    +0.000 N 
ATOM     27  C   UNL     1      -0.026  11.765  20.469  0.00  0.00    +0.000 C 
ATOM     28  C   UNL     1      -0.363  10.617  19.497  0.00  0.00    +0.000 C 
BRANCH  26  29
ATOM     29  C   UNL     1      -1.299  12.238  22.627  0.00  0.00    +0.000 A 
ATOM     30  C   UNL     1      -0.859  13.519  23.028  0.00  0.00    +0.000 A 
ATOM     31  C   UNL     1      -1.660  14.344  23.812  0.00  0.00    +0.000 A 
ATOM     32  C   UNL     1      -2.925  13.913  24.221  0.00  0.00    +0.000 A 
ATOM     33  C   UNL     1      -3.384  12.654  23.828  0.00  0.00    +0.000 A 
ATOM     34  C   UNL     1      -2.590  11.825  23.032  0.00  0.00    +0.000 A 
BRANCH  32  35
ATOM     35  O   UNL     1      -3.700  14.702  24.992  0.00  0.00    +0.000 OA
ATOM     36  H   UNL     1      -4.605  14.937  24.736  0.00  0.00    +0.000 HD
ENDBRANCH  32  35
ENDBRANCH  26  29
ENDBRANCH  22  23
ENDBRANCH  19  22
ENDBRANCH   1  19
TORSDOF 12
ENDMDL
MODEL 7
REMARK VINA RESULT:      -7.3      3.284     10.400
REMARK  Name = 
REMARK  12 active torsions:
REMARK  status: ('A' for Active; 'I' for Inactive)
REMARK    1  A    between atoms: C_2  and  C_3
REMARK    2  A    between atoms: C_2  and  C_11
REMARK    3  A    between atoms: C_3  and  C_4
REMARK    4  A    between atoms: C_4  and  C_5
REMARK    5  A    between atoms: C_16  and  O_17
REMARK    6  A    between atoms: O_17  and  C_18
REMARK    7  A    between atoms: C_18  and  C_19
REMARK    8  A    between atoms: C_19  and  O_20
REMARK    9  A    between atoms: C_19  and  C_21
REMARK   10  A    between atoms: C_21  and  N_22
REMARK   11  A    between atoms: N_25  and  C_26
REMARK   12  A    between atoms: C_29  and  O_30
REMARK                            x       y       z     vdW  Elec       q    Type
REMARK                         _______ _______ _______ _____ _____    ______ ____
ROOT
ATOM      1  C   UNL     1       1.896   7.199  18.321  0.00  0.00    +0.000 C 
ENDROOT
BRANCH   1   2
ATOM      2  O   UNL     1       2.941   6.308  18.535  0.00  0.00    +0.000 OA
BRANCH   2   8
ATOM      3  C   UNL     1       3.867   4.053  18.410  0.00  0.00    +0.000 A 
ATOM      4  C   UNL     1       3.620   2.661  18.453  0.00  0.00    +0.000 A 
ATOM      5  C   UNL     1       2.336   2.162  18.661  0.00  0.00    +0.000 A 
ATOM      6  C   UNL     1       1.271   3.031  18.839  0.00  0.00    +0.000 A 
ATOM      7  C   UNL     1       1.477   4.403  18.790  0.00  0.00    +0.000 A 
ATOM      8  C   UNL     1       2.766   4.949  18.568  0.00  0.00    +0.000 A 
BRANCH   3  10
ATOM      9  O   UNL     1       6.038   4.478  19.219  0.00  0.00    +0.000 OA
ATOM     10  C   UNL     1       5.277   4.539  18.264  0.00  0.00    +0.000 C 
BRANCH  10  11
ATOM     11  C   UNL     1       5.820   4.964  16.899  0.00  0.00    +0.000 C 
BRANCH  11  12
ATOM     12  C   UNL     1       5.234   4.121  15.751  0.00  0.00    +0.000 C 
BRANCH  12  13
ATOM     13  C   UNL     1       6.004   4.218  14.454  0.00  0.00    +0.000 A 
ATOM     14  C   UNL     1       5.593   3.480  13.330  0.00  0.00    +0.000 A 
ATOM     15  C   UNL     1       6.267   3.604  12.110  0.00  0.00    +0.000 A 
ATOM     16  C   UNL     1       7.363   4.462  11.997  0.00  0.00    +0.000 A 
ATOM     17  C   UNL     1       7.787   5.196  13.107  0.00  0.00    +0.000 A 
ATOM     18  C   UNL     1       7.115   5.083  14.327  0.00  0.00    +0.000 A 
ENDBRANCH  12  13
ENDBRANCH  11  12
ENDBRANCH  10  11
ENDBRANCH   3  10
ENDBRANCH   2   8
ENDBRANCH   1   2
BRANCH   1  19
ATOM     19  C   UNL     1       2.320   8.668  18.399  0.00  0.00    +0.000 C 
BRANCH  19  20
ATOM     20  O   UNL     1       1.852   9.377  17.279  0.00  0.00    +0.000 OA
ATOM     21  H   UNL     1       1.226  10.079  17.601  0.00  0.00    +0.000 HD
ENDBRANCH  19  20
BRANCH  19  22
ATOM     22  C   UNL     1       1.779   9.320  19.708  0.00  0.00    +0.000 C 
BRANCH  22  23
ATOM     23  N   UNL     1       0.289   9.398  19.768  0.00  0.00    +0.000 NA
ATOM     24  C   UNL     1      -0.282   9.055  21.087  0.00  0.00    +0.000 C 
ATOM     25  C   UNL     1       0.114  10.088  22.150  0.00  0.00    +0.000 C 
ATOM     26  N   UNL     1      -0.331  11.404  21.702  0.00  0.00    +0.000 N 
ATOM     27  C   UNL     1       0.114  11.822  20.374  0.00  0.00    +0.000 C 
ATOM     28  C   UNL     1      -0.228  10.725  19.346  0.00  0.00    +0.000 C 
BRANCH  26  29
ATOM     29  C   UNL     1      -1.178  12.215  22.536  0.00  0.00    +0.000 A 
ATOM     30  C   UNL     1      -0.806  13.542  22.847  0.00  0.00    +0.000 A 
ATOM     31  C   UNL     1      -1.605  14.346  23.655  0.00  0.00    +0.000 A 
ATOM     32  C   UNL     1      -2.799  13.846  24.181  0.00  0.00    +0.000 A 
ATOM     33  C   UNL     1      -3.192  12.541  23.878  0.00  0.00    +0.000 A 
ATOM     34  C   UNL     1      -2.401  11.732  23.059  0.00  0.00    +0.000 A 
BRANCH  32  35
ATOM     35  O   UNL     1      -3.572  14.615  24.975  0.00  0.00    +0.000 OA
ATOM     36  H   UNL     1      -3.542  14.543  25.941  0.00  0.00    +0.000 HD
ENDBRANCH  32  35
ENDBRANCH  26  29
ENDBRANCH  22  23
ENDBRANCH  19  22
ENDBRANCH   1  19
TORSDOF 12
ENDMDL
MODEL 8
REMARK VINA RESULT:      -7.3      3.344      9.990
REMARK  Name = 
REMARK  12 active torsions:
REMARK  status: ('A' for Active; 'I' for Inactive)
REMARK    1  A    between atoms: C_2  and  C_3
REMARK    2  A    between atoms: C_2  and  C_11
REMARK    3  A    between atoms: C_3  and  C_4
REMARK    4  A    between atoms: C_4  and  C_5
REMARK    5  A    between atoms: C_16  and  O_17
REMARK    6  A    between atoms: O_17  and  C_18
REMARK    7  A    between atoms: C_18  and  C_19
REMARK    8  A    between atoms: C_19  and  O_20
REMARK    9  A    between atoms: C_19  and  C_21
REMARK   10  A    between atoms: C_21  and  N_22
REMARK   11  A    between atoms: N_25  and  C_26
REMARK   12  A    between atoms: C_29  and  O_30
REMARK                            x       y       z     vdW  Elec       q    Type
REMARK                         _______ _______ _______ _____ _____    ______ ____
ROOT
ATOM      1  C   UNL     1       1.296   6.471  20.684  0.00  0.00    +0.000 C 
ENDROOT
BRANCH   1   2
ATOM      2  O   UNL     1       2.128   5.363  20.779  0.00  0.00    +0.000 OA
BRANCH   2   8
ATOM      3  C   UNL     1       3.123   3.669  19.330  0.00  0.00    +0.000 A 
ATOM      4  C   UNL     1       2.918   2.532  18.514  0.00  0.00    +0.000 A 
ATOM      5  C   UNL     1       1.648   1.980  18.351  0.00  0.00    +0.000 A 
ATOM      6  C   UNL     1       0.557   2.539  18.997  0.00  0.00    +0.000 A 
ATOM      7  C   UNL     1       0.722   3.662  19.795  0.00  0.00    +0.000 A 
ATOM      8  C   UNL     1       1.994   4.260  19.977  0.00  0.00    +0.000 A 
BRANCH   3  10
ATOM      9  O   UNL     1       5.428   3.379  19.715  0.00  0.00    +0.000 OA
ATOM     10  C   UNL     1       4.518   4.176  19.538  0.00  0.00    +0.000 C 
BRANCH  10  11
ATOM     11  C   UNL     1       4.842   5.661  19.376  0.00  0.00    +0.000 C 
BRANCH  11  12
ATOM     12  C   UNL     1       6.189   5.890  18.665  0.00  0.00    +0.000 C 
BRANCH  12  13
ATOM     13  C   UNL     1       6.174   5.571  17.188  0.00  0.00    +0.000 A 
ATOM     14  C   UNL     1       7.032   4.586  16.669  0.00  0.00    +0.000 A 
ATOM     15  C   UNL     1       6.988   4.246  15.313  0.00  0.00    +0.000 A 
ATOM     16  C   UNL     1       6.091   4.888  14.455  0.00  0.00    +0.000 A 
ATOM     17  C   UNL     1       5.237   5.873  14.956  0.00  0.00    +0.000 A 
ATOM     18  C   UNL     1       5.271   6.214  16.311  0.00  0.00    +0.000 A 
ENDBRANCH  12  13
ENDBRANCH  11  12
ENDBRANCH  10  11
ENDBRANCH   3  10
ENDBRANCH   2   8
ENDBRANCH   1   2
BRANCH   1  19
ATOM     19  C   UNL     1       1.998   7.718  20.138  0.00  0.00    +0.000 C 
BRANCH  19  20
ATOM     20  O   UNL     1       1.843   7.801  18.744  0.00  0.00    +0.000 OA
ATOM     21  H   UNL     1       1.969   8.750  18.478  0.00  0.00    +0.000 HD
ENDBRANCH  19  20
BRANCH  19  22
ATOM     22  C   UNL     1       1.429   9.002  20.816  0.00  0.00    +0.000 C 
BRANCH  22  23
ATOM     23  N   UNL     1      -0.063   9.048  20.855  0.00  0.00    +0.000 NA
ATOM     24  C   UNL     1      -0.637   8.938  22.212  0.00  0.00    +0.000 C 
ATOM     25  C   UNL     1      -0.277  10.160  23.068  0.00  0.00    +0.000 C 
ATOM     26  N   UNL     1      -0.753  11.358  22.384  0.00  0.00    +0.000 N 
ATOM     27  C   UNL     1      -0.307  11.537  21.003  0.00  0.00    +0.000 C 
ATOM     28  C   UNL     1      -0.612  10.261  20.193  0.00  0.00    +0.000 C 
BRANCH  26  29
ATOM     29  C   UNL     1      -1.629  12.285  23.051  0.00  0.00    +0.000 A 
ATOM     30  C   UNL     1      -1.173  13.582  23.375  0.00  0.00    +0.000 A 
ATOM     31  C   UNL     1      -1.998  14.496  24.025  0.00  0.00    +0.000 A 
ATOM     32  C   UNL     1      -3.303  14.140  24.373  0.00  0.00    +0.000 A 
ATOM     33  C   UNL     1      -3.778  12.866  24.053  0.00  0.00    +0.000 A 
ATOM     34  C   UNL     1      -2.959  11.947  23.392  0.00  0.00    +0.000 A 
BRANCH  32  35
ATOM     35  O   UNL     1      -4.104  15.016  25.014  0.00  0.00    +0.000 OA
ATOM     36  H   UNL     1      -4.702  15.608  24.534  0.00  0.00    +0.000 HD
ENDBRANCH  32  35
ENDBRANCH  26  29
ENDBRANCH  22  23
ENDBRANCH  19  22
ENDBRANCH   1  19
TORSDOF 12
ENDMDL
MODEL 9
REMARK VINA RESULT:      -7.2      3.142     10.240
REMARK  Name = 
REMARK  12 active torsions:
REMARK  status: ('A' for Active; 'I' for Inactive)
REMARK    1  A    between atoms: C_2  and  C_3
REMARK    2  A    between atoms: C_2  and  C_11
REMARK    3  A    between atoms: C_3  and  C_4
REMARK    4  A    between atoms: C_4  and  C_5
REMARK    5  A    between atoms: C_16  and  O_17
REMARK    6  A    between atoms: O_17  and  C_18
REMARK    7  A    between atoms: C_18  and  C_19
REMARK    8  A    between atoms: C_19  and  O_20
REMARK    9  A    between atoms: C_19  and  C_21
REMARK   10  A    between atoms: C_21  and  N_22
REMARK   11  A    between atoms: N_25  and  C_26
REMARK   12  A    between atoms: C_29  and  O_30
REMARK                            x       y       z     vdW  Elec       q    Type
REMARK                         _______ _______ _______ _____ _____    ______ ____
ROOT
ATOM      1  C   UNL     1       2.984   7.123  18.766  0.00  0.00    +0.000 C 
ENDROOT
BRANCH   1   2
ATOM      2  O   UNL     1       3.378   5.940  19.379  0.00  0.00    +0.000 OA
BRANCH   2   8
ATOM      3  C   UNL     1       4.116   3.891  18.275  0.00  0.00    +0.000 A 
ATOM      4  C   UNL     1       3.760   2.624  17.758  0.00  0.00    +0.000 A 
ATOM      5  C   UNL     1       2.448   2.159  17.827  0.00  0.00    +0.000 A 
ATOM      6  C   UNL     1       1.463   2.936  18.416  0.00  0.00    +0.000 A 
ATOM      7  C   UNL     1       1.777   4.190  18.922  0.00  0.00    +0.000 A 
ATOM      8  C   UNL     1       3.096   4.703  18.861  0.00  0.00    +0.000 A 
BRANCH   3  10
ATOM      9  O   UNL     1       6.178   4.390  19.299  0.00  0.00    +0.000 OA
ATOM     10  C   UNL     1       5.555   4.312  18.250  0.00  0.00    +0.000 C 
BRANCH  10  11
ATOM     11  C   UNL     1       6.292   4.492  16.924  0.00  0.00    +0.000 C 
BRANCH  11  12
ATOM     12  C   UNL     1       5.331   4.783  15.756  0.00  0.00    +0.000 C 
BRANCH  12  13
ATOM     13  C   UNL     1       5.916   4.514  14.388  0.00  0.00    +0.000 A 
ATOM     14  C   UNL     1       7.179   5.027  14.046  0.00  0.00    +0.000 A 
ATOM     15  C   UNL     1       7.752   4.740  12.803  0.00  0.00    +0.000 A 
ATOM     16  C   UNL     1       7.070   3.940  11.882  0.00  0.00    +0.000 A 
ATOM     17  C   UNL     1       5.811   3.429  12.206  0.00  0.00    +0.000 A 
ATOM     18  C   UNL     1       5.235   3.707  13.449  0.00  0.00    +0.000 A 
ENDBRANCH  12  13
ENDBRANCH  11  12
ENDBRANCH  10  11
ENDBRANCH   3  10
ENDBRANCH   2   8
ENDBRANCH   1   2
BRANCH   1  19
ATOM     19  C   UNL     1       1.818   7.819  19.474  0.00  0.00    +0.000 C 
BRANCH  19  20
ATOM     20  O   UNL     1       1.828   7.523  20.848  0.00  0.00    +0.000 OA
ATOM     21  H   UNL     1       0.925   7.728  21.211  0.00  0.00    +0.000 HD
ENDBRANCH  19  20
BRANCH  19  22
ATOM     22  C   UNL     1       1.896   9.362  19.259  0.00  0.00    +0.000 C 
BRANCH  22  23
ATOM     23  N   UNL     1       0.568  10.002  19.023  0.00  0.00    +0.000 NA
ATOM     24  C   UNL     1      -0.469   9.628  20.008  0.00  0.00    +0.000 C 
ATOM     25  C   UNL     1      -0.125  10.159  21.405  0.00  0.00    +0.000 C 
ATOM     26  N   UNL     1       0.033  11.608  21.322  0.00  0.00    +0.000 N 
ATOM     27  C   UNL     1       0.983  12.101  20.326  0.00  0.00    +0.000 C 
ATOM     28  C   UNL     1       0.656  11.484  18.951  0.00  0.00    +0.000 C 
BRANCH  26  29
ATOM     29  C   UNL     1      -0.733  12.480  22.173  0.00  0.00    +0.000 A 
ATOM     30  C   UNL     1      -0.300  13.803  22.405  0.00  0.00    +0.000 A 
ATOM     31  C   UNL     1      -1.020  14.665  23.228  0.00  0.00    +0.000 A 
ATOM     32  C   UNL     1      -2.195  14.228  23.846  0.00  0.00    +0.000 A 
ATOM     33  C   UNL     1      -2.647  12.926  23.622  0.00  0.00    +0.000 A 
ATOM     34  C   UNL     1      -1.935  12.059  22.789  0.00  0.00    +0.000 A 
BRANCH  32  35
ATOM     35  O   UNL     1      -2.890  15.053  24.655  0.00  0.00    +0.000 OA
ATOM     36  H   UNL     1      -2.871  16.015  24.542  0.00  0.00    +0.000 HD
ENDBRANCH  32  35
ENDBRANCH  26  29
ENDBRANCH  22  23
ENDBRANCH  19  22
ENDBRANCH   1  19
TORSDOF 12
ENDMDL
