MODEL 1
REMARK VINA RESULT:      -5.8      0.000      0.000
REMARK  Name = 
REMARK  12 active torsions:
REMARK  status: ('A' for Active; 'I' for Inactive)
REMARK    1  A    between atoms: C_1  and  C_2
REMARK    2  A    between atoms: C_2  and  C_3
REMARK    3  A    between atoms: C_3  and  C_4
REMARK    4  A    between atoms: C_4  and  O_5
REMARK    5  A    between atoms: O_5  and  C_6
REMARK    6  A    between atoms: C_6  and  C_8
REMARK    7  A    between atoms: C_9  and  C_10
REMARK    8  A    between atoms: C_10  and  O_12
REMARK    9  A    between atoms: O_12  and  C_13
REMARK   10  A    between atoms: C_13  and  C_14
REMARK   11  A    between atoms: C_14  and  C_15
REMARK   12  A    between atoms: C_15  and  C_16
REMARK                            x       y       z     vdW  Elec       q    Type
REMARK                         _______ _______ _______ _____ _____    ______ ____
ROOT
ATOM      1  C   UNL     1       5.475   5.451  15.228  0.00  0.00    +0.000 C 
ATOM      2  C   UNL     1       4.959   5.312  16.454  0.00  0.00    +0.000 C 
ENDROOT
BRANCH   1   3
ATOM      3  C   UNL     1       6.703   4.808  14.719  0.00  0.00    +0.000 C 
ATOM      4  O   UNL     1       7.805   5.321  14.663  0.00  0.00    +0.000 OA
BRANCH   3   5
ATOM      5  O   UNL     1       6.297   3.693  14.054  0.00  0.00    +0.000 OA
BRANCH   5   6
ATOM      6  C   UNL     1       6.436   3.813  12.638  0.00  0.00    +0.000 C 
BRANCH   6   7
ATOM      7  C   UNL     1       5.308   3.137  11.864  0.00  0.00    +0.000 C 
BRANCH   7   9
ATOM      8  C   UNL     1       7.217   1.692  11.009  0.00  0.00    +0.000 C 
ATOM      9  C   UNL     1       5.772   1.734  11.468  0.00  0.00    +0.000 C 
ENDBRANCH   7   9
ENDBRANCH   6   7
ENDBRANCH   5   6
ENDBRANCH   3   5
ENDBRANCH   1   3
BRANCH   2  10
ATOM     10  C   UNL     1       5.303   4.265  17.439  0.00  0.00    +0.000 C 
ATOM     11  O   UNL     1       4.516   3.511  17.981  0.00  0.00    +0.000 OA
BRANCH  10  12
ATOM     12  O   UNL     1       6.574   4.529  17.845  0.00  0.00    +0.000 OA
BRANCH  12  13
ATOM     13  C   UNL     1       6.639   5.545  18.849  0.00  0.00    +0.000 C 
BRANCH  13  14
ATOM     14  C   UNL     1       7.877   6.422  18.736  0.00  0.00    +0.000 C 
BRANCH  14  15
ATOM     15  C   UNL     1       7.636   7.468  17.648  0.00  0.00    +0.000 C 
ATOM     16  C   UNL     1       8.221   8.825  17.985  0.00  0.00    +0.000 C 
ENDBRANCH  14  15
ENDBRANCH  13  14
ENDBRANCH  12  13
ENDBRANCH  10  12
ENDBRANCH   2  10
TORSDOF 10
ENDMDL
MODEL 2
REMARK VINA RESULT:      -5.7      2.379      5.962
REMARK  Name = 
REMARK  12 active torsions:
REMARK  status: ('A' for Active; 'I' for Inactive)
REMARK    1  A    between atoms: C_1  and  C_2
REMARK    2  A    between atoms: C_2  and  C_3
REMARK    3  A    between atoms: C_3  and  C_4
REMARK    4  A    between atoms: C_4  and  O_5
REMARK    5  A    between atoms: O_5  and  C_6
REMARK    6  A    between atoms: C_6  and  C_8
REMARK    7  A    between atoms: C_9  and  C_10
REMARK    8  A    between atoms: C_10  and  O_12
REMARK    9  A    between atoms: O_12  and  C_13
REMARK   10  A    between atoms: C_13  and  C_14
REMARK   11  A    between atoms: C_14  and  C_15
REMARK   12  A    between atoms: C_15  and  C_16
REMARK                            x       y       z     vdW  Elec       q    Type
REMARK                         _______ _______ _______ _____ _____    ______ ____
ROOT
ATOM      1  C   UNL     1       4.969   5.560  18.225  0.00  0.00    +0.000 C 
ATOM      2  C   UNL     1       5.897   6.036  17.387  0.00  0.00    +0.000 C 
ENDROOT
BRANCH   1   3
ATOM      3  C   UNL     1       4.696   4.137  18.511  0.00  0.00    +0.000 C 
ATOM      4  O   UNL     1       5.263   3.457  19.346  0.00  0.00    +0.000 OA
BRANCH   3   5
ATOM      5  O   UNL     1       3.944   3.681  17.474  0.00  0.00    +0.000 OA
BRANCH   5   6
ATOM      6  C   UNL     1       2.820   2.912  17.904  0.00  0.00    +0.000 C 
BRANCH   6   7
ATOM      7  C   UNL     1       1.568   3.753  18.131  0.00  0.00    +0.000 C 
BRANCH   7   9
ATOM      8  C   UNL     1       1.580   4.106  20.649  0.00  0.00    +0.000 C 
ATOM      9  C   UNL     1       0.964   3.360  19.481  0.00  0.00    +0.000 C 
ENDBRANCH   7   9
ENDBRANCH   6   7
ENDBRANCH   5   6
ENDBRANCH   3   5
ENDBRANCH   1   3
BRANCH   2  10
ATOM     10  C   UNL     1       7.040   5.287  16.826  0.00  0.00    +0.000 C 
ATOM     11  O   UNL     1       7.818   4.595  17.458  0.00  0.00    +0.000 OA
BRANCH  10  12
ATOM     12  O   UNL     1       7.234   5.774  15.571  0.00  0.00    +0.000 OA
BRANCH  12  13
ATOM     13  C   UNL     1       7.201   4.757  14.567  0.00  0.00    +0.000 C 
BRANCH  13  14
ATOM     14  C   UNL     1       5.889   3.988  14.534  0.00  0.00    +0.000 C 
BRANCH  14  15
ATOM     15  C   UNL     1       5.511   3.732  13.076  0.00  0.00    +0.000 C 
ATOM     16  C   UNL     1       6.712   3.622  12.158  0.00  0.00    +0.000 C 
ENDBRANCH  14  15
ENDBRANCH  13  14
ENDBRANCH  12  13
ENDBRANCH  10  12
ENDBRANCH   2  10
TORSDOF 10
ENDMDL
MODEL 3
REMARK VINA RESULT:      -5.7      2.255      6.349
REMARK  Name = 
REMARK  12 active torsions:
REMARK  status: ('A' for Active; 'I' for Inactive)
REMARK    1  A    between atoms: C_1  and  C_2
REMARK    2  A    between atoms: C_2  and  C_3
REMARK    3  A    between atoms: C_3  and  C_4
REMARK    4  A    between atoms: C_4  and  O_5
REMARK    5  A    between atoms: O_5  and  C_6
REMARK    6  A    between atoms: C_6  and  C_8
REMARK    7  A    between atoms: C_9  and  C_10
REMARK    8  A    between atoms: C_10  and  O_12
REMARK    9  A    between atoms: O_12  and  C_13
REMARK   10  A    between atoms: C_13  and  C_14
REMARK   11  A    between atoms: C_14  and  C_15
REMARK   12  A    between atoms: C_15  and  C_16
REMARK                            x       y       z     vdW  Elec       q    Type
REMARK                         _______ _______ _______ _____ _____    ______ ____
ROOT
ATOM      1  C   UNL     1       4.943   5.710  17.154  0.00  0.00    +0.000 C 
ATOM      2  C   UNL     1       5.479   5.867  15.939  0.00  0.00    +0.000 C 
ENDROOT
BRANCH   1   3
ATOM      3  C   UNL     1       5.151   4.562  18.059  0.00  0.00    +0.000 C 
ATOM      4  O   UNL     1       6.142   4.357  18.734  0.00  0.00    +0.000 OA
BRANCH   3   5
ATOM      5  O   UNL     1       4.186   3.655  17.747  0.00  0.00    +0.000 OA
BRANCH   5   6
ATOM      6  C   UNL     1       3.055   3.732  18.614  0.00  0.00    +0.000 C 
BRANCH   6   7
ATOM      7  C   UNL     1       1.821   3.028  18.058  0.00  0.00    +0.000 C 
BRANCH   7   9
ATOM      8  C   UNL     1       1.172   3.637  20.439  0.00  0.00    +0.000 C 
ATOM      9  C   UNL     1       0.823   2.835  19.200  0.00  0.00    +0.000 C 
ENDBRANCH   7   9
ENDBRANCH   6   7
ENDBRANCH   5   6
ENDBRANCH   3   5
ENDBRANCH   1   3
BRANCH   2  10
ATOM     10  C   UNL     1       6.620   5.115  15.378  0.00  0.00    +0.000 C 
ATOM     11  O   UNL     1       7.708   5.580  15.089  0.00  0.00    +0.000 OA
BRANCH  10  12
ATOM     12  O   UNL     1       6.120   3.922  14.959  0.00  0.00    +0.000 OA
BRANCH  12  13
ATOM     13  C   UNL     1       5.451   4.009  13.699  0.00  0.00    +0.000 C 
BRANCH  13  14
ATOM     14  C   UNL     1       6.331   3.608  12.524  0.00  0.00    +0.000 C 
BRANCH  14  15
ATOM     15  C   UNL     1       5.562   2.611  11.657  0.00  0.00    +0.000 C 
ATOM     16  C   UNL     1       4.184   3.103  11.260  0.00  0.00    +0.000 C 
ENDBRANCH  14  15
ENDBRANCH  13  14
ENDBRANCH  12  13
ENDBRANCH  10  12
ENDBRANCH   2  10
TORSDOF 10
ENDMDL
MODEL 4
REMARK VINA RESULT:      -5.6      2.383      6.416
REMARK  Name = 
REMARK  12 active torsions:
REMARK  status: ('A' for Active; 'I' for Inactive)
REMARK    1  A    between atoms: C_1  and  C_2
REMARK    2  A    between atoms: C_2  and  C_3
REMARK    3  A    between atoms: C_3  and  C_4
REMARK    4  A    between atoms: C_4  and  O_5
REMARK    5  A    between atoms: O_5  and  C_6
REMARK    6  A    between atoms: C_6  and  C_8
REMARK    7  A    between atoms: C_9  and  C_10
REMARK    8  A    between atoms: C_10  and  O_12
REMARK    9  A    between atoms: O_12  and  C_13
REMARK   10  A    between atoms: C_13  and  C_14
REMARK   11  A    between atoms: C_14  and  C_15
REMARK   12  A    between atoms: C_15  and  C_16
REMARK                            x       y       z     vdW  Elec       q    Type
REMARK                         _______ _______ _______ _____ _____    ______ ____
ROOT
ATOM      1  C   UNL     1       5.365   5.977  17.610  0.00  0.00    +0.000 C 
ATOM      2  C   UNL     1       5.898   5.509  16.476  0.00  0.00    +0.000 C 
ENDROOT
BRANCH   1   3
ATOM      3  C   UNL     1       5.310   5.272  18.907  0.00  0.00    +0.000 C 
ATOM      4  O   UNL     1       6.239   5.126  19.677  0.00  0.00    +0.000 OA
BRANCH   3   5
ATOM      5  O   UNL     1       4.143   4.573  18.908  0.00  0.00    +0.000 OA
BRANCH   5   6
ATOM      6  C   UNL     1       4.258   3.308  19.560  0.00  0.00    +0.000 C 
BRANCH   6   7
ATOM      7  C   UNL     1       2.999   2.455  19.445  0.00  0.00    +0.000 C 
BRANCH   7   9
ATOM      8  C   UNL     1       1.048   3.720  20.474  0.00  0.00    +0.000 C 
ATOM      9  C   UNL     1       2.143   2.693  20.690  0.00  0.00    +0.000 C 
ENDBRANCH   7   9
ENDBRANCH   6   7
ENDBRANCH   5   6
ENDBRANCH   3   5
ENDBRANCH   1   3
BRANCH   2  10
ATOM     10  C   UNL     1       6.815   4.357  16.347  0.00  0.00    +0.000 C 
ATOM     11  O   UNL     1       7.946   4.293  16.794  0.00  0.00    +0.000 OA
BRANCH  10  12
ATOM     12  O   UNL     1       6.284   3.555  15.386  0.00  0.00    +0.000 OA
BRANCH  12  13
ATOM     13  C   UNL     1       5.750   4.288  14.281  0.00  0.00    +0.000 C 
BRANCH  13  14
ATOM     14  C   UNL     1       6.480   4.019  12.973  0.00  0.00    +0.000 C 
BRANCH  14  15
ATOM     15  C   UNL     1       5.788   2.858  12.259  0.00  0.00    +0.000 C 
ATOM     16  C   UNL     1       4.534   3.275  11.517  0.00  0.00    +0.000 C 
ENDBRANCH  14  15
ENDBRANCH  13  14
ENDBRANCH  12  13
ENDBRANCH  10  12
ENDBRANCH   2  10
TORSDOF 10
ENDMDL
MODEL 5
REMARK VINA RESULT:      -5.5      3.637      6.055
REMARK  Name = 
REMARK  12 active torsions:
REMARK  status: ('A' for Active; 'I' for Inactive)
REMARK    1  A    between atoms: C_1  and  C_2
REMARK    2  A    between atoms: C_2  and  C_3
REMARK    3  A    between atoms: C_3  and  C_4
REMARK    4  A    between atoms: C_4  and  O_5
REMARK    5  A    between atoms: O_5  and  C_6
REMARK    6  A    between atoms: C_6  and  C_8
REMARK    7  A    between atoms: C_9  and  C_10
REMARK    8  A    between atoms: C_10  and  O_12
REMARK    9  A    between atoms: O_12  and  C_13
REMARK   10  A    between atoms: C_13  and  C_14
REMARK   11  A    between atoms: C_14  and  C_15
REMARK   12  A    between atoms: C_15  and  C_16
REMARK                            x       y       z     vdW  Elec       q    Type
REMARK                         _______ _______ _______ _____ _____    ______ ____
ROOT
ATOM      1  C   UNL     1       3.095   3.317  16.957  0.00  0.00    +0.000 C 
ATOM      2  C   UNL     1       4.257   3.975  17.026  0.00  0.00    +0.000 C 
ENDROOT
BRANCH   1   3
ATOM      3  C   UNL     1       2.477   2.520  18.036  0.00  0.00    +0.000 C 
ATOM      4  O   UNL     1       2.942   1.513  18.535  0.00  0.00    +0.000 OA
BRANCH   3   5
ATOM      5  O   UNL     1       1.186   2.942  18.125  0.00  0.00    +0.000 OA
BRANCH   5   6
ATOM      6  C   UNL     1       0.788   3.220  19.467  0.00  0.00    +0.000 C 
BRANCH   6   7
ATOM      7  C   UNL     1       1.490   4.436  20.063  0.00  0.00    +0.000 C 
BRANCH   7   9
ATOM      8  C   UNL     1       1.815   2.601  21.794  0.00  0.00    +0.000 C 
ATOM      9  C   UNL     1       2.196   4.000  21.348  0.00  0.00    +0.000 C 
ENDBRANCH   7   9
ENDBRANCH   6   7
ENDBRANCH   5   6
ENDBRANCH   3   5
ENDBRANCH   1   3
BRANCH   2  10
ATOM     10  C   UNL     1       5.002   4.317  18.255  0.00  0.00    +0.000 C 
ATOM     11  O   UNL     1       5.298   3.544  19.148  0.00  0.00    +0.000 OA
BRANCH  10  12
ATOM     12  O   UNL     1       4.996   5.675  18.337  0.00  0.00    +0.000 OA
BRANCH  12  13
ATOM     13  C   UNL     1       5.509   6.307  17.162  0.00  0.00    +0.000 C 
BRANCH  13  14
ATOM     14  C   UNL     1       7.017   6.169  17.016  0.00  0.00    +0.000 C 
BRANCH  14  15
ATOM     15  C   UNL     1       7.689   6.939  18.152  0.00  0.00    +0.000 C 
ATOM     16  C   UNL     1       7.991   8.382  17.799  0.00  0.00    +0.000 C 
ENDBRANCH  14  15
ENDBRANCH  13  14
ENDBRANCH  12  13
ENDBRANCH  10  12
ENDBRANCH   2  10
TORSDOF 10
ENDMDL
MODEL 6
REMARK VINA RESULT:      -5.5      3.561      6.279
REMARK  Name = 
REMARK  12 active torsions:
REMARK  status: ('A' for Active; 'I' for Inactive)
REMARK    1  A    between atoms: C_1  and  C_2
REMARK    2  A    between atoms: C_2  and  C_3
REMARK    3  A    between atoms: C_3  and  C_4
REMARK    4  A    between atoms: C_4  and  O_5
REMARK    5  A    between atoms: O_5  and  C_6
REMARK    6  A    between atoms: C_6  and  C_8
REMARK    7  A    between atoms: C_9  and  C_10
REMARK    8  A    between atoms: C_10  and  O_12
REMARK    9  A    between atoms: O_12  and  C_13
REMARK   10  A    between atoms: C_13  and  C_14
REMARK   11  A    between atoms: C_14  and  C_15
REMARK   12  A    between atoms: C_15  and  C_16
REMARK                            x       y       z     vdW  Elec       q    Type
REMARK                         _______ _______ _______ _____ _____    ______ ____
ROOT
ATOM      1  C   UNL     1       4.360   4.637  16.832  0.00  0.00    +0.000 C 
ATOM      2  C   UNL     1       4.082   3.342  17.020  0.00  0.00    +0.000 C 
ENDROOT
BRANCH   1   3
ATOM      3  C   UNL     1       4.064   5.739  17.769  0.00  0.00    +0.000 C 
ATOM      4  O   UNL     1       2.955   6.096  18.120  0.00  0.00    +0.000 OA
BRANCH   3   5
ATOM      5  O   UNL     1       5.218   6.447  17.896  0.00  0.00    +0.000 OA
BRANCH   5   6
ATOM      6  C   UNL     1       6.175   5.798  18.733  0.00  0.00    +0.000 C 
BRANCH   6   7
ATOM      7  C   UNL     1       7.618   6.121  18.359  0.00  0.00    +0.000 C 
BRANCH   7   9
ATOM      8  C   UNL     1       8.128   8.579  17.958  0.00  0.00    +0.000 C 
ATOM      9  C   UNL     1       7.607   7.284  17.365  0.00  0.00    +0.000 C 
ENDBRANCH   7   9
ENDBRANCH   6   7
ENDBRANCH   5   6
ENDBRANCH   3   5
ENDBRANCH   1   3
BRANCH   2  10
ATOM     10  C   UNL     1       3.728   2.696  18.301  0.00  0.00    +0.000 C 
ATOM     11  O   UNL     1       4.424   2.661  19.298  0.00  0.00    +0.000 OA
BRANCH  10  12
ATOM     12  O   UNL     1       2.656   1.900  18.040  0.00  0.00    +0.000 OA
BRANCH  12  13
ATOM     13  C   UNL     1       1.652   1.966  19.056  0.00  0.00    +0.000 C 
BRANCH  13  14
ATOM     14  C   UNL     1       0.963   3.321  19.131  0.00  0.00    +0.000 C 
BRANCH  14  15
ATOM     15  C   UNL     1       1.074   3.844  20.563  0.00  0.00    +0.000 C 
ATOM     16  C   UNL     1       1.680   2.839  21.521  0.00  0.00    +0.000 C 
ENDBRANCH  14  15
ENDBRANCH  13  14
ENDBRANCH  12  13
ENDBRANCH  10  12
ENDBRANCH   2  10
TORSDOF 10
ENDMDL
MODEL 7
REMARK VINA RESULT:      -5.5      2.589      4.130
REMARK  Name = 
REMARK  12 active torsions:
REMARK  status: ('A' for Active; 'I' for Inactive)
REMARK    1  A    between atoms: C_1  and  C_2
REMARK    2  A    between atoms: C_2  and  C_3
REMARK    3  A    between atoms: C_3  and  C_4
REMARK    4  A    between atoms: C_4  and  O_5
REMARK    5  A    between atoms: O_5  and  C_6
REMARK    6  A    between atoms: C_6  and  C_8
REMARK    7  A    between atoms: C_9  and  C_10
REMARK    8  A    between atoms: C_10  and  O_12
REMARK    9  A    between atoms: O_12  and  C_13
REMARK   10  A    between atoms: C_13  and  C_14
REMARK   11  A    between atoms: C_14  and  C_15
REMARK   12  A    between atoms: C_15  and  C_16
REMARK                            x       y       z     vdW  Elec       q    Type
REMARK                         _______ _______ _______ _____ _____    ______ ____
ROOT
ATOM      1  C   UNL     1       6.941   4.985  18.150  0.00  0.00    +0.000 C 
ATOM      2  C   UNL     1       5.773   4.490  18.575  0.00  0.00    +0.000 C 
ENDROOT
BRANCH   1   3
ATOM      3  C   UNL     1       7.167   5.743  16.903  0.00  0.00    +0.000 C 
ATOM      4  O   UNL     1       6.860   6.904  16.709  0.00  0.00    +0.000 OA
BRANCH   3   5
ATOM      5  O   UNL     1       7.478   4.821  15.952  0.00  0.00    +0.000 OA
BRANCH   5   6
ATOM      6  C   UNL     1       6.788   5.044  14.721  0.00  0.00    +0.000 C 
BRANCH   6   7
ATOM      7  C   UNL     1       5.993   3.830  14.250  0.00  0.00    +0.000 C 
BRANCH   7   9
ATOM      8  C   UNL     1       5.048   3.259  11.959  0.00  0.00    +0.000 C 
ATOM      9  C   UNL     1       6.284   3.614  12.763  0.00  0.00    +0.000 C 
ENDBRANCH   7   9
ENDBRANCH   6   7
ENDBRANCH   5   6
ENDBRANCH   3   5
ENDBRANCH   1   3
BRANCH   2  10
ATOM     10  C   UNL     1       4.431   4.857  18.079  0.00  0.00    +0.000 C 
ATOM     11  O   UNL     1       3.915   4.452  17.053  0.00  0.00    +0.000 OA
BRANCH  10  12
ATOM     12  O   UNL     1       4.045   5.945  18.797  0.00  0.00    +0.000 OA
BRANCH  12  13
ATOM     13  C   UNL     1       2.706   5.845  19.287  0.00  0.00    +0.000 C 
BRANCH  13  14
ATOM     14  C   UNL     1       2.554   4.838  20.418  0.00  0.00    +0.000 C 
BRANCH  14  15
ATOM     15  C   UNL     1       1.137   4.267  20.375  0.00  0.00    +0.000 C 
ATOM     16  C   UNL     1       1.027   3.004  19.544  0.00  0.00    +0.000 C 
ENDBRANCH  14  15
ENDBRANCH  13  14
ENDBRANCH  12  13
ENDBRANCH  10  12
ENDBRANCH   2  10
TORSDOF 10
ENDMDL
MODEL 8
REMARK VINA RESULT:      -5.5      2.442      5.851
REMARK  Name = 
REMARK  12 active torsions:
REMARK  status: ('A' for Active; 'I' for Inactive)
REMARK    1  A    between atoms: C_1  and  C_2
REMARK    2  A    between atoms: C_2  and  C_3
REMARK    3  A    between atoms: C_3  and  C_4
REMARK    4  A    between atoms: C_4  and  O_5
REMARK    5  A    between atoms: O_5  and  C_6
REMARK    6  A    between atoms: C_6  and  C_8
REMARK    7  A    between atoms: C_9  and  C_10
REMARK    8  A    between atoms: C_10  and  O_12
REMARK    9  A    between atoms: O_12  and  C_13
REMARK   10  A    between atoms: C_13  and  C_14
REMARK   11  A    between atoms: C_14  and  C_15
REMARK   12  A    between atoms: C_15  and  C_16
REMARK                            x       y       z     vdW  Elec       q    Type
REMARK                         _______ _______ _______ _____ _____    ______ ____
ROOT
ATOM      1  C   UNL     1       5.523   6.630  17.666  0.00  0.00    +0.000 C 
ATOM      2  C   UNL     1       6.684   6.245  17.126  0.00  0.00    +0.000 C 
ENDROOT
BRANCH   1   3
ATOM      3  C   UNL     1       4.553   5.763  18.363  0.00  0.00    +0.000 C 
ATOM      4  O   UNL     1       4.652   5.358  19.506  0.00  0.00    +0.000 OA
BRANCH   3   5
ATOM      5  O   UNL     1       3.729   5.267  17.401  0.00  0.00    +0.000 OA
BRANCH   5   6
ATOM      6  C   UNL     1       2.494   4.782  17.928  0.00  0.00    +0.000 C 
BRANCH   6   7
ATOM      7  C   UNL     1       2.343   3.269  17.810  0.00  0.00    +0.000 C 
BRANCH   7   9
ATOM      8  C   UNL     1       0.977   3.694  19.912  0.00  0.00    +0.000 C 
ATOM      9  C   UNL     1       1.158   2.835  18.675  0.00  0.00    +0.000 C 
ENDBRANCH   7   9
ENDBRANCH   6   7
ENDBRANCH   5   6
ENDBRANCH   3   5
ENDBRANCH   1   3
BRANCH   2  10
ATOM     10  C   UNL     1       7.393   4.974  17.381  0.00  0.00    +0.000 C 
ATOM     11  O   UNL     1       7.818   4.599  18.459  0.00  0.00    +0.000 OA
BRANCH  10  12
ATOM     12  O   UNL     1       7.751   4.487  16.163  0.00  0.00    +0.000 OA
BRANCH  12  13
ATOM     13  C   UNL     1       6.645   3.959  15.427  0.00  0.00    +0.000 C 
BRANCH  13  14
ATOM     14  C   UNL     1       6.666   4.341  13.954  0.00  0.00    +0.000 C 
BRANCH  14  15
ATOM     15  C   UNL     1       5.468   3.691  13.264  0.00  0.00    +0.000 C 
ATOM     16  C   UNL     1       5.829   3.003  11.962  0.00  0.00    +0.000 C 
ENDBRANCH  14  15
ENDBRANCH  13  14
ENDBRANCH  12  13
ENDBRANCH  10  12
ENDBRANCH   2  10
TORSDOF 10
ENDMDL
MODEL 9
REMARK VINA RESULT:      -5.5      2.486      4.546
REMARK  Name = 
REMARK  12 active torsions:
REMARK  status: ('A' for Active; 'I' for Inactive)
REMARK    1  A    between atoms: C_1  and  C_2
REMARK    2  A    between atoms: C_2  and  C_3
REMARK    3  A    between atoms: C_3  and  C_4
REMARK    4  A    between atoms: C_4  and  O_5
REMARK    5  A    between atoms: O_5  and  C_6
REMARK    6  A    between atoms: C_6  and  C_8
REMARK    7  A    between atoms: C_9  and  C_10
REMARK    8  A    between atoms: C_10  and  O_12
REMARK    9  A    between atoms: O_12  and  C_13
REMARK   10  A    between atoms: C_13  and  C_14
REMARK   11  A    between atoms: C_14  and  C_15
REMARK   12  A    between atoms: C_15  and  C_16
REMARK                            x       y       z     vdW  Elec       q    Type
REMARK                         _______ _______ _______ _____ _____    ______ ____
ROOT
ATOM      1  C   UNL     1       6.670   5.613  18.774  0.00  0.00    +0.000 C 
ATOM      2  C   UNL     1       5.428   5.262  19.124  0.00  0.00    +0.000 C 
ENDROOT
BRANCH   1   3
ATOM      3  C   UNL     1       7.457   5.049  17.659  0.00  0.00    +0.000 C 
ATOM      4  O   UNL     1       8.187   4.078  17.722  0.00  0.00    +0.000 OA
BRANCH   3   5
ATOM      5  O   UNL     1       7.448   5.989  16.676  0.00  0.00    +0.000 OA
BRANCH   5   6
ATOM      6  C   UNL     1       6.512   5.696  15.639  0.00  0.00    +0.000 C 
BRANCH   6   7
ATOM      7  C   UNL     1       6.614   4.263  15.125  0.00  0.00    +0.000 C 
BRANCH   7   9
ATOM      8  C   UNL     1       6.166   3.599  12.712  0.00  0.00    +0.000 C 
ATOM      9  C   UNL     1       5.570   4.074  14.023  0.00  0.00    +0.000 C 
ENDBRANCH   7   9
ENDBRANCH   6   7
ENDBRANCH   5   6
ENDBRANCH   3   5
ENDBRANCH   1   3
BRANCH   2  10
ATOM     10  C   UNL     1       4.469   4.492  18.304  0.00  0.00    +0.000 C 
ATOM     11  O   UNL     1       3.648   4.962  17.538  0.00  0.00    +0.000 OA
BRANCH  10  12
ATOM     12  O   UNL     1       4.466   3.229  18.810  0.00  0.00    +0.000 OA
BRANCH  12  13
ATOM     13  C   UNL     1       3.397   3.000  19.731  0.00  0.00    +0.000 C 
BRANCH  13  14
ATOM     14  C   UNL     1       2.315   2.083  19.178  0.00  0.00    +0.000 C 
BRANCH  14  15
ATOM     15  C   UNL     1       0.966   2.789  19.307  0.00  0.00    +0.000 C 
ATOM     16  C   UNL     1       0.994   3.961  20.267  0.00  0.00    +0.000 C 
ENDBRANCH  14  15
ENDBRANCH  13  14
ENDBRANCH  12  13
ENDBRANCH  10  12
ENDBRANCH   2  10
TORSDOF 10
ENDMDL
