MODEL 1
REMARK VINA RESULT:      -9.1      0.000      0.000
REMARK  Name = 
REMARK  4 active torsions:
REMARK  status: ('A' for Active; 'I' for Inactive)
REMARK    1  A    between atoms: C_1  and  O_2
REMARK    2  A    between atoms: O_2  and  C_3
REMARK    3  A    between atoms: C_6  and  N_7
REMARK    4  A    between atoms: C_12  and  C_14
REMARK                            x       y       z     vdW  Elec       q    Type
REMARK                         _______ _______ _______ _____ _____    ______ ____
ROOT
ATOM      1  N   UNL     1       2.452   7.056  18.948  0.00  0.00    +0.000 N 
ATOM      2  C   UNL     1       3.188   7.472  17.839  0.00  0.00    +0.000 C 
ATOM      3  O   UNL     1       2.892   8.447  17.141  0.00  0.00    +0.000 OA
ATOM      4  C   UNL     1       4.536   6.796  17.637  0.00  0.00    +0.000 C 
ATOM      5  N   UNL     1       4.741   5.489  18.247  0.00  0.00    +0.000 N 
ATOM      6  C   UNL     1       5.494   4.447  17.705  0.00  0.00    +0.000 C 
ATOM      7  O   UNL     1       5.605   3.363  18.279  0.00  0.00    +0.000 OA
ATOM      8  C   UNL     1       4.082   5.305  19.545  0.00  0.00    +0.000 C 
ATOM      9  C   UNL     1       2.566   5.663  19.454  0.00  0.00    +0.000 C 
ATOM     10  C   UNL     1       1.907   5.363  20.838  0.00  0.00    +0.000 C 
ATOM     11  C   UNL     1       0.764   4.387  20.561  0.00  0.00    +0.000 C 
ATOM     12  C   UNL     1       1.247   3.605  19.358  0.00  0.00    +0.000 C 
ATOM     13  C   UNL     1       1.852   4.686  18.477  0.00  0.00    +0.000 C 
ENDROOT
BRANCH   6  14
ATOM     14  C   UNL     1       6.103   4.547  16.350  0.00  0.00    +0.000 A 
ATOM     15  C   UNL     1       5.591   3.703  15.350  0.00  0.00    +0.000 A 
ATOM     16  C   UNL     1       6.058   3.796  14.036  0.00  0.00    +0.000 A 
ATOM     17  C   UNL     1       7.023   4.745  13.719  0.00  0.00    +0.000 A 
ATOM     18  F   UNL     1       7.437   4.868  12.452  0.00  0.00    +0.000 F 
ATOM     19  C   UNL     1       7.575   5.555  14.699  0.00  0.00    +0.000 A 
ATOM     20  C   UNL     1       7.146   5.415  16.017  0.00  0.00    +0.000 A 
ATOM     21  F   UNL     1       7.764   6.152  16.952  0.00  0.00    +0.000 F 
ENDBRANCH   6  14
BRANCH   1  25
ATOM     22  C   UNL     1       0.139   9.972  20.930  0.00  0.00    +0.000 A 
ATOM     23  C   UNL     1       0.229   9.988  19.534  0.00  0.00    +0.000 A 
ATOM     24  C   UNL     1       0.979   9.022  18.855  0.00  0.00    +0.000 A 
ATOM     25  C   UNL     1       1.651   8.038  19.576  0.00  0.00    +0.000 A 
ATOM     26  C   UNL     1       1.590   8.045  20.978  0.00  0.00    +0.000 A 
ATOM     27  C   UNL     1       0.827   8.997  21.653  0.00  0.00    +0.000 A 
BRANCH  22  29
ATOM     28  C   UNL     1      -0.921  10.818  22.860  0.00  0.00    +0.000 C 
ATOM     29  O   UNL     1      -0.615  10.968  21.479  0.00  0.00    +0.000 OA
ENDBRANCH  22  29
ENDBRANCH   1  25
TORSDOF 3
ENDMDL
MODEL 2
REMARK VINA RESULT:      -8.5      0.917      1.561
REMARK  Name = 
REMARK  4 active torsions:
REMARK  status: ('A' for Active; 'I' for Inactive)
REMARK    1  A    between atoms: C_1  and  O_2
REMARK    2  A    between atoms: O_2  and  C_3
REMARK    3  A    between atoms: C_6  and  N_7
REMARK    4  A    between atoms: C_12  and  C_14
REMARK                            x       y       z     vdW  Elec       q    Type
REMARK                         _______ _______ _______ _____ _____    ______ ____
ROOT
ATOM      1  N   UNL     1       2.464   7.089  18.983  0.00  0.00    +0.000 N 
ATOM      2  C   UNL     1       3.133   7.535  17.843  0.00  0.00    +0.000 C 
ATOM      3  O   UNL     1       2.800   8.531  17.194  0.00  0.00    +0.000 OA
ATOM      4  C   UNL     1       4.463   6.861  17.539  0.00  0.00    +0.000 C 
ATOM      5  N   UNL     1       4.698   5.536  18.097  0.00  0.00    +0.000 N 
ATOM      6  C   UNL     1       5.412   4.508  17.479  0.00  0.00    +0.000 C 
ATOM      7  O   UNL     1       5.552   3.407  18.014  0.00  0.00    +0.000 OA
ATOM      8  C   UNL     1       4.119   5.316  19.427  0.00  0.00    +0.000 C 
ATOM      9  C   UNL     1       2.602   5.681  19.440  0.00  0.00    +0.000 C 
ATOM     10  C   UNL     1       2.027   5.343  20.853  0.00  0.00    +0.000 C 
ATOM     11  C   UNL     1       0.865   4.380  20.618  0.00  0.00    +0.000 C 
ATOM     12  C   UNL     1       1.270   3.631  19.365  0.00  0.00    +0.000 C 
ATOM     13  C   UNL     1       1.825   4.736  18.480  0.00  0.00    +0.000 C 
ENDROOT
BRANCH   6  14
ATOM     14  C   UNL     1       5.937   4.646  16.093  0.00  0.00    +0.000 A 
ATOM     15  C   UNL     1       7.190   5.264  15.940  0.00  0.00    +0.000 A 
ATOM     16  C   UNL     1       7.783   5.358  14.677  0.00  0.00    +0.000 A 
ATOM     17  C   UNL     1       7.133   4.818  13.574  0.00  0.00    +0.000 A 
ATOM     18  F   UNL     1       7.722   4.865  12.373  0.00  0.00    +0.000 F 
ATOM     19  C   UNL     1       5.876   4.246  13.697  0.00  0.00    +0.000 A 
ATOM     20  C   UNL     1       5.266   4.210  14.949  0.00  0.00    +0.000 A 
ATOM     21  F   UNL     1       4.016   3.730  15.015  0.00  0.00    +0.000 F 
ENDBRANCH   6  14
BRANCH   1  25
ATOM     22  C   UNL     1       0.133   9.982  20.977  0.00  0.00    +0.000 A 
ATOM     23  C   UNL     1       0.821   9.014  21.717  0.00  0.00    +0.000 A 
ATOM     24  C   UNL     1       1.612   8.054  21.077  0.00  0.00    +0.000 A 
ATOM     25  C   UNL     1       1.709   8.055  19.687  0.00  0.00    +0.000 A 
ATOM     26  C   UNL     1       0.990   9.003  18.945  0.00  0.00    +0.000 A 
ATOM     27  C   UNL     1       0.216   9.971  19.584  0.00  0.00    +0.000 A 
BRANCH  22  29
ATOM     28  C   UNL     1      -0.903  10.454  23.043  0.00  0.00    +0.000 C 
ATOM     29  O   UNL     1      -0.609  10.860  21.711  0.00  0.00    +0.000 OA
ENDBRANCH  22  29
ENDBRANCH   1  25
TORSDOF 3
ENDMDL
MODEL 3
REMARK VINA RESULT:      -7.8      3.428      6.645
REMARK  Name = 
REMARK  4 active torsions:
REMARK  status: ('A' for Active; 'I' for Inactive)
REMARK    1  A    between atoms: C_1  and  O_2
REMARK    2  A    between atoms: O_2  and  C_3
REMARK    3  A    between atoms: C_6  and  N_7
REMARK    4  A    between atoms: C_12  and  C_14
REMARK                            x       y       z     vdW  Elec       q    Type
REMARK                         _______ _______ _______ _____ _____    ______ ____
ROOT
ATOM      1  N   UNL     1      -0.086  11.646  21.250  0.00  0.00    +0.000 N 
ATOM      2  C   UNL     1       0.312  10.404  21.743  0.00  0.00    +0.000 C 
ATOM      3  O   UNL     1       0.391  10.132  22.944  0.00  0.00    +0.000 OA
ATOM      4  C   UNL     1       0.440   9.287  20.718  0.00  0.00    +0.000 C 
ATOM      5  N   UNL     1       0.642   9.660  19.324  0.00  0.00    +0.000 N 
ATOM      6  C   UNL     1       1.418   8.960  18.398  0.00  0.00    +0.000 C 
ATOM      7  O   UNL     1       1.551   9.353  17.239  0.00  0.00    +0.000 OA
ATOM      8  C   UNL     1      -0.055  10.881  18.907  0.00  0.00    +0.000 C 
ATOM      9  C   UNL     1       0.272  12.064  19.869  0.00  0.00    +0.000 C 
ATOM     10  C   UNL     1      -0.427  13.350  19.322  0.00  0.00    +0.000 C 
ATOM     11  C   UNL     1       0.679  14.387  19.134  0.00  0.00    +0.000 C 
ATOM     12  C   UNL     1       1.900  13.551  18.809  0.00  0.00    +0.000 C 
ATOM     13  C   UNL     1       1.789  12.399  19.796  0.00  0.00    +0.000 C 
ENDROOT
BRANCH   6  14
ATOM     14  C   UNL     1       2.221   7.771  18.794  0.00  0.00    +0.000 A 
ATOM     15  C   UNL     1       1.901   7.157  20.018  0.00  0.00    +0.000 A 
ATOM     16  C   UNL     1       2.559   5.990  20.417  0.00  0.00    +0.000 A 
ATOM     17  C   UNL     1       3.519   5.427  19.586  0.00  0.00    +0.000 A 
ATOM     18  F   UNL     1       4.115   4.283  19.945  0.00  0.00    +0.000 F 
ATOM     19  C   UNL     1       3.882   6.042  18.397  0.00  0.00    +0.000 A 
ATOM     20  C   UNL     1       3.265   7.237  18.035  0.00  0.00    +0.000 A 
ATOM     21  F   UNL     1       3.702   7.848  16.925  0.00  0.00    +0.000 F 
ENDBRANCH   6  14
BRANCH   1  25
ATOM     22  C   UNL     1      -2.522  13.903  23.851  0.00  0.00    +0.000 A 
ATOM     23  C   UNL     1      -1.221  14.335  23.567  0.00  0.00    +0.000 A 
ATOM     24  C   UNL     1      -0.401  13.609  22.695  0.00  0.00    +0.000 A 
ATOM     25  C   UNL     1      -0.880  12.440  22.111  0.00  0.00    +0.000 A 
ATOM     26  C   UNL     1      -2.171  11.989  22.424  0.00  0.00    +0.000 A 
ATOM     27  C   UNL     1      -2.994  12.722  23.278  0.00  0.00    +0.000 A 
BRANCH  22  29
ATOM     28  C   UNL     1      -2.438  15.505  25.579  0.00  0.00    +0.000 C 
ATOM     29  O   UNL     1      -3.222  14.689  24.717  0.00  0.00    +0.000 OA
ENDBRANCH  22  29
ENDBRANCH   1  25
TORSDOF 3
ENDMDL
MODEL 4
REMARK VINA RESULT:      -7.7      3.598      6.951
REMARK  Name = 
REMARK  4 active torsions:
REMARK  status: ('A' for Active; 'I' for Inactive)
REMARK    1  A    between atoms: C_1  and  O_2
REMARK    2  A    between atoms: O_2  and  C_3
REMARK    3  A    between atoms: C_6  and  N_7
REMARK    4  A    between atoms: C_12  and  C_14
REMARK                            x       y       z     vdW  Elec       q    Type
REMARK                         _______ _______ _______ _____ _____    ______ ____
ROOT
ATOM      1  N   UNL     1      -0.451  11.791  21.336  0.00  0.00    +0.000 N 
ATOM      2  C   UNL     1      -0.292  10.461  21.722  0.00  0.00    +0.000 C 
ATOM      3  O   UNL     1      -0.534  10.038  22.856  0.00  0.00    +0.000 OA
ATOM      4  C   UNL     1      -0.010   9.468  20.604  0.00  0.00    +0.000 C 
ATOM      5  N   UNL     1       0.559   9.981  19.365  0.00  0.00    +0.000 N 
ATOM      6  C   UNL     1       1.477   9.312  18.553  0.00  0.00    +0.000 C 
ATOM      7  O   UNL     1       1.924   9.824  17.526  0.00  0.00    +0.000 OA
ATOM      8  C   UNL     1       0.091  11.317  18.979  0.00  0.00    +0.000 C 
ATOM      9  C   UNL     1       0.270  12.329  20.152  0.00  0.00    +0.000 C 
ATOM     10  C   UNL     1      -0.162  13.744  19.651  0.00  0.00    +0.000 C 
ATOM     11  C   UNL     1       1.039  14.660  19.878  0.00  0.00    +0.000 C 
ATOM     12  C   UNL     1       2.228  13.732  19.728  0.00  0.00    +0.000 C 
ATOM     13  C   UNL     1       1.780  12.491  20.483  0.00  0.00    +0.000 C 
ENDROOT
BRANCH   6  14
ATOM     14  C   UNL     1       2.055   7.998  18.947  0.00  0.00    +0.000 A 
ATOM     15  C   UNL     1       1.704   7.495  20.212  0.00  0.00    +0.000 A 
ATOM     16  C   UNL     1       2.144   6.232  20.618  0.00  0.00    +0.000 A 
ATOM     17  C   UNL     1       2.917   5.466  19.754  0.00  0.00    +0.000 A 
ATOM     18  F   UNL     1       3.299   4.237  20.123  0.00  0.00    +0.000 F 
ATOM     19  C   UNL     1       3.314   5.963  18.521  0.00  0.00    +0.000 A 
ATOM     20  C   UNL     1       2.920   7.246  18.149  0.00  0.00    +0.000 A 
ATOM     21  F   UNL     1       3.394   7.728  16.991  0.00  0.00    +0.000 F 
ENDBRANCH   6  14
BRANCH   1  25
ATOM     22  C   UNL     1      -3.074  14.180  23.618  0.00  0.00    +0.000 A 
ATOM     23  C   UNL     1      -3.590  13.312  22.648  0.00  0.00    +0.000 A 
ATOM     24  C   UNL     1      -2.739  12.500  21.890  0.00  0.00    +0.000 A 
ATOM     25  C   UNL     1      -1.363  12.562  22.095  0.00  0.00    +0.000 A 
ATOM     26  C   UNL     1      -0.845  13.458  23.042  0.00  0.00    +0.000 A 
ATOM     27  C   UNL     1      -1.694  14.253  23.810  0.00  0.00    +0.000 A 
BRANCH  22  29
ATOM     28  C   UNL     1      -3.495  16.069  24.965  0.00  0.00    +0.000 C 
ATOM     29  O   UNL     1      -4.000  14.924  24.288  0.00  0.00    +0.000 OA
ENDBRANCH  22  29
ENDBRANCH   1  25
TORSDOF 3
ENDMDL
MODEL 5
REMARK VINA RESULT:      -7.5      3.271      5.164
REMARK  Name = 
REMARK  4 active torsions:
REMARK  status: ('A' for Active; 'I' for Inactive)
REMARK    1  A    between atoms: C_1  and  O_2
REMARK    2  A    between atoms: O_2  and  C_3
REMARK    3  A    between atoms: C_6  and  N_7
REMARK    4  A    between atoms: C_12  and  C_14
REMARK                            x       y       z     vdW  Elec       q    Type
REMARK                         _______ _______ _______ _____ _____    ______ ____
ROOT
ATOM      1  N   UNL     1       0.895   9.899  19.476  0.00  0.00    +0.000 N 
ATOM      2  C   UNL     1       1.138   9.077  18.375  0.00  0.00    +0.000 C 
ATOM      3  O   UNL     1       0.814   9.361  17.219  0.00  0.00    +0.000 OA
ATOM      4  C   UNL     1       2.041   7.878  18.621  0.00  0.00    +0.000 C 
ATOM      5  N   UNL     1       2.166   7.387  19.987  0.00  0.00    +0.000 N 
ATOM      6  C   UNL     1       2.315   6.051  20.361  0.00  0.00    +0.000 C 
ATOM      7  O   UNL     1       2.398   5.716  21.543  0.00  0.00    +0.000 OA
ATOM      8  C   UNL     1       2.131   8.427  21.021  0.00  0.00    +0.000 C 
ATOM      9  C   UNL     1       0.874   9.336  20.852  0.00  0.00    +0.000 C 
ATOM     10  C   UNL     1       0.848  10.362  22.030  0.00  0.00    +0.000 C 
ATOM     11  C   UNL     1      -0.500  10.177  22.724  0.00  0.00    +0.000 C 
ATOM     12  C   UNL     1      -0.813   8.710  22.509  0.00  0.00    +0.000 C 
ATOM     13  C   UNL     1      -0.417   8.493  21.058  0.00  0.00    +0.000 C 
ENDROOT
BRANCH   6  14
ATOM     14  C   UNL     1       2.262   4.949  19.360  0.00  0.00    +0.000 A 
ATOM     15  C   UNL     1       3.255   4.936  18.366  0.00  0.00    +0.000 A 
ATOM     16  C   UNL     1       3.316   3.890  17.440  0.00  0.00    +0.000 A 
ATOM     17  C   UNL     1       2.398   2.850  17.522  0.00  0.00    +0.000 A 
ATOM     18  F   UNL     1       2.484   1.824  16.666  0.00  0.00    +0.000 F 
ATOM     19  C   UNL     1       1.382   2.868  18.465  0.00  0.00    +0.000 A 
ATOM     20  C   UNL     1       1.292   3.944  19.345  0.00  0.00    +0.000 A 
ATOM     21  F   UNL     1       0.248   3.973  20.185  0.00  0.00    +0.000 F 
ENDBRANCH   6  14
BRANCH   1  25
ATOM     22  C   UNL     1       0.282  14.006  18.743  0.00  0.00    +0.000 A 
ATOM     23  C   UNL     1       1.583  13.492  18.772  0.00  0.00    +0.000 A 
ATOM     24  C   UNL     1       1.809  12.130  18.999  0.00  0.00    +0.000 A 
ATOM     25  C   UNL     1       0.728  11.277  19.208  0.00  0.00    +0.000 A 
ATOM     26  C   UNL     1      -0.574  11.800  19.214  0.00  0.00    +0.000 A 
ATOM     27  C   UNL     1      -0.799  13.154  18.969  0.00  0.00    +0.000 A 
BRANCH  22  29
ATOM     28  C   UNL     1       1.385  16.091  18.724  0.00  0.00    +0.000 C 
ATOM     29  O   UNL     1       0.189  15.348  18.519  0.00  0.00    +0.000 OA
ENDBRANCH  22  29
ENDBRANCH   1  25
TORSDOF 3
ENDMDL
MODEL 6
REMARK VINA RESULT:      -7.4      3.270      6.278
REMARK  Name = 
REMARK  4 active torsions:
REMARK  status: ('A' for Active; 'I' for Inactive)
REMARK    1  A    between atoms: C_1  and  O_2
REMARK    2  A    between atoms: O_2  and  C_3
REMARK    3  A    between atoms: C_6  and  N_7
REMARK    4  A    between atoms: C_12  and  C_14
REMARK                            x       y       z     vdW  Elec       q    Type
REMARK                         _______ _______ _______ _____ _____    ______ ____
ROOT
ATOM      1  N   UNL     1       0.250  11.303  21.011  0.00  0.00    +0.000 N 
ATOM      2  C   UNL     1       0.824  10.142  21.528  0.00  0.00    +0.000 C 
ATOM      3  O   UNL     1       1.079   9.972  22.723  0.00  0.00    +0.000 OA
ATOM      4  C   UNL     1       0.929   8.964  20.570  0.00  0.00    +0.000 C 
ATOM      5  N   UNL     1       0.918   9.243  19.141  0.00  0.00    +0.000 N 
ATOM      6  C   UNL     1       1.634   8.543  18.169  0.00  0.00    +0.000 C 
ATOM      7  O   UNL     1       1.583   8.855  16.979  0.00  0.00    +0.000 OA
ATOM      8  C   UNL     1       0.060  10.364  18.740  0.00  0.00    +0.000 C 
ATOM      9  C   UNL     1       0.390  11.642  19.570  0.00  0.00    +0.000 C 
ATOM     10  C   UNL     1      -0.491  12.816  19.036  0.00  0.00    +0.000 C 
ATOM     11  C   UNL     1       0.479  13.927  18.637  0.00  0.00    +0.000 C 
ATOM     12  C   UNL     1       1.723  13.177  18.209  0.00  0.00    +0.000 C 
ATOM     13  C   UNL     1       1.847  12.100  19.275  0.00  0.00    +0.000 C 
ENDROOT
BRANCH   6  14
ATOM     14  C   UNL     1       2.591   7.462  18.533  0.00  0.00    +0.000 A 
ATOM     15  C   UNL     1       3.788   7.390  17.801  0.00  0.00    +0.000 A 
ATOM     16  C   UNL     1       4.769   6.452  18.138  0.00  0.00    +0.000 A 
ATOM     17  C   UNL     1       4.559   5.600  19.215  0.00  0.00    +0.000 A 
ATOM     18  F   UNL     1       5.516   4.733  19.568  0.00  0.00    +0.000 F 
ATOM     19  C   UNL     1       3.365   5.622  19.920  0.00  0.00    +0.000 A 
ATOM     20  C   UNL     1       2.370   6.520  19.540  0.00  0.00    +0.000 A 
ATOM     21  F   UNL     1       1.196   6.454  20.186  0.00  0.00    +0.000 F 
ENDBRANCH   6  14
BRANCH   1  25
ATOM     22  C   UNL     1      -1.942  13.757  23.649  0.00  0.00    +0.000 A 
ATOM     23  C   UNL     1      -2.403  12.470  23.353  0.00  0.00    +0.000 A 
ATOM     24  C   UNL     1      -1.684  11.633  22.491  0.00  0.00    +0.000 A 
ATOM     25  C   UNL     1      -0.501  12.090  21.915  0.00  0.00    +0.000 A 
ATOM     26  C   UNL     1      -0.059  13.393  22.184  0.00  0.00    +0.000 A 
ATOM     27  C   UNL     1      -0.766  14.220  23.056  0.00  0.00    +0.000 A 
BRANCH  22  29
ATOM     28  C   UNL     1      -2.039  15.269  25.457  0.00  0.00    +0.000 C 
ATOM     29  O   UNL     1      -2.730  14.480  24.495  0.00  0.00    +0.000 OA
ENDBRANCH  22  29
ENDBRANCH   1  25
TORSDOF 3
ENDMDL
MODEL 7
REMARK VINA RESULT:      -7.4      8.770     10.342
REMARK  Name = 
REMARK  4 active torsions:
REMARK  status: ('A' for Active; 'I' for Inactive)
REMARK    1  A    between atoms: C_1  and  O_2
REMARK    2  A    between atoms: O_2  and  C_3
REMARK    3  A    between atoms: C_6  and  N_7
REMARK    4  A    between atoms: C_12  and  C_14
REMARK                            x       y       z     vdW  Elec       q    Type
REMARK                         _______ _______ _______ _____ _____    ______ ____
ROOT
ATOM      1  N   UNL     1       7.377  12.755  24.251  0.00  0.00    +0.000 N 
ATOM      2  C   UNL     1       8.062  11.980  23.316  0.00  0.00    +0.000 C 
ATOM      3  O   UNL     1       8.554  10.876  23.564  0.00  0.00    +0.000 OA
ATOM      4  C   UNL     1       7.994  12.456  21.872  0.00  0.00    +0.000 C 
ATOM      5  N   UNL     1       7.692  13.860  21.631  0.00  0.00    +0.000 N 
ATOM      6  C   UNL     1       8.212  14.638  20.595  0.00  0.00    +0.000 C 
ATOM      7  O   UNL     1       7.918  15.827  20.469  0.00  0.00    +0.000 OA
ATOM      8  C   UNL     1       6.753  14.461  22.584  0.00  0.00    +0.000 C 
ATOM      9  C   UNL     1       7.220  14.221  24.052  0.00  0.00    +0.000 C 
ATOM     10  C   UNL     1       6.230  14.957  25.010  0.00  0.00    +0.000 C 
ATOM     11  C   UNL     1       7.081  15.905  25.854  0.00  0.00    +0.000 C 
ATOM     12  C   UNL     1       8.228  16.268  24.933  0.00  0.00    +0.000 C 
ATOM     13  C   UNL     1       8.581  14.934  24.295  0.00  0.00    +0.000 C 
ENDROOT
BRANCH   6  14
ATOM     14  C   UNL     1       9.240  14.105  19.659  0.00  0.00    +0.000 A 
ATOM     15  C   UNL     1       8.780  13.439  18.510  0.00  0.00    +0.000 A 
ATOM     16  C   UNL     1       9.684  12.982  17.547  0.00  0.00    +0.000 A 
ATOM     17  C   UNL     1      11.044  13.206  17.724  0.00  0.00    +0.000 A 
ATOM     18  F   UNL     1      11.907  12.811  16.780  0.00  0.00    +0.000 F 
ATOM     19  C   UNL     1      11.522  13.819  18.872  0.00  0.00    +0.000 A 
ATOM     20  C   UNL     1      10.618  14.218  19.854  0.00  0.00    +0.000 A 
ATOM     21  F   UNL     1      11.121  14.727  20.989  0.00  0.00    +0.000 F 
ENDBRANCH   6  14
BRANCH   1  25
ATOM     22  C   UNL     1       5.736  10.782  27.597  0.00  0.00    +0.000 A 
ATOM     23  C   UNL     1       5.107  10.677  26.351  0.00  0.00    +0.000 A 
ATOM     24  C   UNL     1       5.642  11.312  25.225  0.00  0.00    +0.000 A 
ATOM     25  C   UNL     1       6.808  12.064  25.345  0.00  0.00    +0.000 A 
ATOM     26  C   UNL     1       7.417  12.198  26.602  0.00  0.00    +0.000 A 
ATOM     27  C   UNL     1       6.894  11.550  27.720  0.00  0.00    +0.000 A 
BRANCH  22  29
ATOM     28  C   UNL     1       4.928   8.729  28.430  0.00  0.00    +0.000 C 
ATOM     29  O   UNL     1       5.118  10.126  28.621  0.00  0.00    +0.000 OA
ENDBRANCH  22  29
ENDBRANCH   1  25
TORSDOF 3
ENDMDL
MODEL 8
REMARK VINA RESULT:      -7.4      8.981     10.195
REMARK  Name = 
REMARK  4 active torsions:
REMARK  status: ('A' for Active; 'I' for Inactive)
REMARK    1  A    between atoms: C_1  and  O_2
REMARK    2  A    between atoms: O_2  and  C_3
REMARK    3  A    between atoms: C_6  and  N_7
REMARK    4  A    between atoms: C_12  and  C_14
REMARK                            x       y       z     vdW  Elec       q    Type
REMARK                         _______ _______ _______ _____ _____    ______ ____
ROOT
ATOM      1  N   UNL     1       4.780  16.072  19.022  0.00  0.00    +0.000 N 
ATOM      2  C   UNL     1       5.317  15.000  18.308  0.00  0.00    +0.000 C 
ATOM      3  O   UNL     1       4.640  14.093  17.815  0.00  0.00    +0.000 OA
ATOM      4  C   UNL     1       6.793  15.102  17.956  0.00  0.00    +0.000 C 
ATOM      5  N   UNL     1       7.628  15.979  18.765  0.00  0.00    +0.000 N 
ATOM      6  C   UNL     1       8.964  15.750  19.101  0.00  0.00    +0.000 C 
ATOM      7  O   UNL     1       9.597  16.536  19.806  0.00  0.00    +0.000 OA
ATOM      8  C   UNL     1       6.963  17.197  19.240  0.00  0.00    +0.000 C 
ATOM      9  C   UNL     1       5.625  16.853  19.964  0.00  0.00    +0.000 C 
ATOM     10  C   UNL     1       5.012  18.178  20.521  0.00  0.00    +0.000 C 
ATOM     11  C   UNL     1       4.827  17.962  22.022  0.00  0.00    +0.000 C 
ATOM     12  C   UNL     1       5.944  17.005  22.385  0.00  0.00    +0.000 C 
ATOM     13  C   UNL     1       5.916  16.009  21.237  0.00  0.00    +0.000 C 
ENDROOT
BRANCH   6  14
ATOM     14  C   UNL     1       9.657  14.487  18.725  0.00  0.00    +0.000 A 
ATOM     15  C   UNL     1      10.488  14.522  17.592  0.00  0.00    +0.000 A 
ATOM     16  C   UNL     1      11.232  13.397  17.225  0.00  0.00    +0.000 A 
ATOM     17  C   UNL     1      11.160  12.246  18.000  0.00  0.00    +0.000 A 
ATOM     18  F   UNL     1      11.908  11.184  17.677  0.00  0.00    +0.000 F 
ATOM     19  C   UNL     1      10.310  12.175  19.094  0.00  0.00    +0.000 A 
ATOM     20  C   UNL     1       9.527  13.281  19.418  0.00  0.00    +0.000 A 
ATOM     21  F   UNL     1       8.654  13.148  20.426  0.00  0.00    +0.000 F 
ENDBRANCH   6  14
BRANCH   1  25
ATOM     22  C   UNL     1       0.725  17.023  18.362  0.00  0.00    +0.000 A 
ATOM     23  C   UNL     1       1.689  17.401  17.422  0.00  0.00    +0.000 A 
ATOM     24  C   UNL     1       3.039  17.084  17.613  0.00  0.00    +0.000 A 
ATOM     25  C   UNL     1       3.428  16.391  18.757  0.00  0.00    +0.000 A 
ATOM     26  C   UNL     1       2.466  16.043  19.716  0.00  0.00    +0.000 A 
ATOM     27  C   UNL     1       1.119  16.344  19.516  0.00  0.00    +0.000 A 
BRANCH  22  29
ATOM     28  C   UNL     1      -1.476  17.332  19.151  0.00  0.00    +0.000 C 
ATOM     29  O   UNL     1      -0.554  17.393  18.069  0.00  0.00    +0.000 OA
ENDBRANCH  22  29
ENDBRANCH   1  25
TORSDOF 3
ENDMDL
MODEL 9
REMARK VINA RESULT:      -7.3      8.077      9.931
REMARK  Name = 
REMARK  4 active torsions:
REMARK  status: ('A' for Active; 'I' for Inactive)
REMARK    1  A    between atoms: C_1  and  O_2
REMARK    2  A    between atoms: O_2  and  C_3
REMARK    3  A    between atoms: C_6  and  N_7
REMARK    4  A    between atoms: C_12  and  C_14
REMARK                            x       y       z     vdW  Elec       q    Type
REMARK                         _______ _______ _______ _____ _____    ______ ____
ROOT
ATOM      1  N   UNL     1       4.448  16.005  19.091  0.00  0.00    +0.000 N 
ATOM      2  C   UNL     1       4.752  14.741  18.587  0.00  0.00    +0.000 C 
ATOM      3  O   UNL     1       3.907  13.942  18.173  0.00  0.00    +0.000 OA
ATOM      4  C   UNL     1       6.227  14.451  18.351  0.00  0.00    +0.000 C 
ATOM      5  N   UNL     1       7.204  15.236  19.094  0.00  0.00    +0.000 N 
ATOM      6  C   UNL     1       8.429  14.769  19.572  0.00  0.00    +0.000 C 
ATOM      7  O   UNL     1       9.193  15.495  20.209  0.00  0.00    +0.000 OA
ATOM      8  C   UNL     1       6.820  16.632  19.331  0.00  0.00    +0.000 C 
ATOM      9  C   UNL     1       5.404  16.718  19.979  0.00  0.00    +0.000 C 
ATOM     10  C   UNL     1       5.093  18.218  20.285  0.00  0.00    +0.000 C 
ATOM     11  C   UNL     1       4.788  18.291  21.781  0.00  0.00    +0.000 C 
ATOM     12  C   UNL     1       5.629  17.178  22.371  0.00  0.00    +0.000 C 
ATOM     13  C   UNL     1       5.425  16.043  21.380  0.00  0.00    +0.000 C 
ENDROOT
BRANCH   6  14
ATOM     14  C   UNL     1       8.823  13.339  19.442  0.00  0.00    +0.000 A 
ATOM     15  C   UNL     1       8.931  12.592  20.628  0.00  0.00    +0.000 A 
ATOM     16  C   UNL     1       9.220  11.225  20.580  0.00  0.00    +0.000 A 
ATOM     17  C   UNL     1       9.381  10.603  19.348  0.00  0.00    +0.000 A 
ATOM     18  F   UNL     1       9.609   9.285  19.298  0.00  0.00    +0.000 F 
ATOM     19  C   UNL     1       9.325  11.331  18.169  0.00  0.00    +0.000 A 
ATOM     20  C   UNL     1       9.096  12.703  18.229  0.00  0.00    +0.000 A 
ATOM     21  F   UNL     1       9.135  13.389  17.078  0.00  0.00    +0.000 F 
ENDBRANCH   6  14
BRANCH   1  25
ATOM     22  C   UNL     1       0.829  17.670  17.705  0.00  0.00    +0.000 A 
ATOM     23  C   UNL     1       0.908  17.165  19.007  0.00  0.00    +0.000 A 
ATOM     24  C   UNL     1       2.102  16.621  19.493  0.00  0.00    +0.000 A 
ATOM     25  C   UNL     1       3.224  16.574  18.668  0.00  0.00    +0.000 A 
ATOM     26  C   UNL     1       3.134  17.047  17.351  0.00  0.00    +0.000 A 
ATOM     27  C   UNL     1       1.948  17.605  16.874  0.00  0.00    +0.000 A 
BRANCH  22  29
ATOM     28  C   UNL     1      -1.319  18.346  18.404  0.00  0.00    +0.000 C 
ATOM     29  O   UNL     1      -0.388  18.168  17.343  0.00  0.00    +0.000 OA
ENDBRANCH  22  29
ENDBRANCH   1  25
TORSDOF 3
ENDMDL
