MODEL 1
REMARK VINA RESULT:      -7.5      0.000      0.000
REMARK  Name = 
REMARK  5 active torsions:
REMARK  status: ('A' for Active; 'I' for Inactive)
REMARK    1  A    between atoms: C_1  and  C_2
REMARK    2  A    between atoms: C_2  and  O_3
REMARK    3  A    between atoms: O_3  and  C_4
REMARK    4  A    between atoms: C_9  and  C_10
REMARK    5  A    between atoms: N_15  and  C_16
REMARK                            x       y       z     vdW  Elec       q    Type
REMARK                         _______ _______ _______ _____ _____    ______ ____
ROOT
ATOM      1  C   UNL     1       1.832   7.936  19.396  0.00  0.00    +0.000 C 
ATOM      2  O   UNL     1       2.222   7.383  20.425  0.00  0.00    +0.000 OA
ATOM      3  N   UNL     1       1.174   9.152  19.439  0.00  0.00    +0.000 N 
ATOM      4  C   UNL     1       1.131   9.877  20.710  0.00  0.00    +0.000 C 
ATOM      5  C   UNL     1       0.970  11.409  20.559  0.00  0.00    +0.000 C 
ATOM      6  N   UNL     1       0.089  11.918  19.465  0.00  0.00    +0.000 NA
ATOM      7  C   UNL     1       0.502  11.176  18.258  0.00  0.00    +0.000 C 
ATOM      8  C   UNL     1       0.287   9.667  18.393  0.00  0.00    +0.000 C 
ENDROOT
BRANCH   6   9
ATOM      9  C   UNL     1      -1.396  11.932  19.835  0.00  0.00    +0.000 C 
ATOM     10  C   UNL     1      -1.702  13.209  20.693  0.00  0.00    +0.000 A 
ATOM     11  C   UNL     1      -0.770  14.262  20.839  0.00  0.00    +0.000 A 
ATOM     12  C   UNL     1      -1.017  15.373  21.654  0.00  0.00    +0.000 A 
ATOM     13  C   UNL     1      -2.244  15.504  22.280  0.00  0.00    +0.000 A 
ATOM     14 CL   UNL     1      -2.598  16.909  23.207  0.00  0.00    +0.000 Cl
ATOM     15  C   UNL     1      -3.199  14.505  22.141  0.00  0.00    +0.000 A 
ATOM     16  C   UNL     1      -2.920  13.346  21.389  0.00  0.00    +0.000 A 
ATOM     17  C   UNL     1      -3.997  12.310  21.259  0.00  0.00    +0.000 C 
ATOM     18  C   UNL     1      -4.637  12.457  19.897  0.00  0.00    +0.000 C 
ATOM     19  C   UNL     1      -3.823  11.990  18.714  0.00  0.00    +0.000 A 
ATOM     20  C   UNL     1      -4.620  11.791  17.543  0.00  0.00    +0.000 A 
ATOM     21  C   UNL     1      -4.069  11.247  16.397  0.00  0.00    +0.000 A 
ATOM     22  C   UNL     1      -2.746  10.903  16.451  0.00  0.00    +0.000 A 
ATOM     23  N   UNL     1      -1.973  11.110  17.531  0.00  0.00    +0.000 NA
ATOM     24  C   UNL     1      -2.445  11.723  18.654  0.00  0.00    +0.000 A 
ENDBRANCH   6   9
BRANCH   1  30
ATOM     25  C   UNL     1       4.636   4.066  17.590  0.00  0.00    +0.000 C 
ATOM     26  O   UNL     1       4.161   2.951  17.417  0.00  0.00    +0.000 OA
ATOM     27  N   UNL     1       3.943   5.121  18.140  0.00  0.00    +0.000 N 
ATOM     28  C   UNL     1       2.587   4.924  18.621  0.00  0.00    +0.000 C 
ATOM     29  C   UNL     1       1.648   5.880  17.900  0.00  0.00    +0.000 C 
ATOM     30  C   UNL     1       2.116   7.337  18.017  0.00  0.00    +0.000 C 
ATOM     31  C   UNL     1       3.607   7.490  17.664  0.00  0.00    +0.000 C 
ATOM     32  C   UNL     1       4.497   6.453  18.340  0.00  0.00    +0.000 C 
BRANCH  25  33
ATOM     33  O   UNL     1       5.927   4.387  17.316  0.00  0.00    +0.000 OA
BRANCH  33  35
ATOM     34  C   UNL     1       5.672   5.169  15.073  0.00  0.00    +0.000 C 
ATOM     35  C   UNL     1       6.334   4.135  15.968  0.00  0.00    +0.000 C 
ENDBRANCH  33  35
ENDBRANCH  25  33
ENDBRANCH   1  30
TORSDOF 4
ENDMDL
MODEL 2
REMARK VINA RESULT:      -6.9      4.208     10.342
REMARK  Name = 
REMARK  5 active torsions:
REMARK  status: ('A' for Active; 'I' for Inactive)
REMARK    1  A    between atoms: C_1  and  C_2
REMARK    2  A    between atoms: C_2  and  O_3
REMARK    3  A    between atoms: O_3  and  C_4
REMARK    4  A    between atoms: C_9  and  C_10
REMARK    5  A    between atoms: N_15  and  C_16
REMARK                            x       y       z     vdW  Elec       q    Type
REMARK                         _______ _______ _______ _____ _____    ______ ____
ROOT
ATOM      1  C   UNL     1       0.067  10.065  18.698  0.00  0.00    +0.000 C 
ATOM      2  O   UNL     1      -0.004  10.727  17.662  0.00  0.00    +0.000 OA
ATOM      3  N   UNL     1       0.988   9.042  18.836  0.00  0.00    +0.000 N 
ATOM      4  C   UNL     1       2.020   8.891  17.810  0.00  0.00    +0.000 C 
ATOM      5  C   UNL     1       3.315   8.206  18.310  0.00  0.00    +0.000 C 
ATOM      6  N   UNL     1       3.182   7.093  19.298  0.00  0.00    +0.000 NA
ATOM      7  C   UNL     1       2.262   7.601  20.334  0.00  0.00    +0.000 C 
ATOM      8  C   UNL     1       0.874   7.926  19.778  0.00  0.00    +0.000 C 
ENDROOT
BRANCH   6   9
ATOM      9  C   UNL     1       2.872   5.739  18.654  0.00  0.00    +0.000 C 
ATOM     10  C   UNL     1       3.965   5.418  17.575  0.00  0.00    +0.000 A 
ATOM     11  C   UNL     1       5.154   6.175  17.457  0.00  0.00    +0.000 A 
ATOM     12  C   UNL     1       6.100   5.928  16.455  0.00  0.00    +0.000 A 
ATOM     13  C   UNL     1       5.926   4.859  15.595  0.00  0.00    +0.000 A 
ATOM     14 CL   UNL     1       7.126   4.487  14.421  0.00  0.00    +0.000 Cl
ATOM     15  C   UNL     1       4.785   4.074  15.694  0.00  0.00    +0.000 A 
ATOM     16  C   UNL     1       3.789   4.372  16.647  0.00  0.00    +0.000 A 
ATOM     17  C   UNL     1       2.588   3.478  16.720  0.00  0.00    +0.000 C 
ATOM     18  C   UNL     1       2.759   2.545  17.898  0.00  0.00    +0.000 C 
ATOM     19  C   UNL     1       2.589   3.153  19.270  0.00  0.00    +0.000 A 
ATOM     20  C   UNL     1       2.372   2.167  20.285  0.00  0.00    +0.000 A 
ATOM     21  C   UNL     1       2.072   2.542  21.582  0.00  0.00    +0.000 A 
ATOM     22  C   UNL     1       1.983   3.884  21.831  0.00  0.00    +0.000 A 
ATOM     23  N   UNL     1       2.214   4.826  20.900  0.00  0.00    +0.000 NA
ATOM     24  C   UNL     1       2.599   4.511  19.630  0.00  0.00    +0.000 A 
ENDBRANCH   6   9
BRANCH   1  30
ATOM     25  C   UNL     1      -1.156  14.272  21.326  0.00  0.00    +0.000 C 
ATOM     26  O   UNL     1      -2.154  14.930  21.061  0.00  0.00    +0.000 OA
ATOM     27  N   UNL     1      -0.745  13.173  20.604  0.00  0.00    +0.000 N 
ATOM     28  C   UNL     1      -1.471  12.780  19.410  0.00  0.00    +0.000 C 
ATOM     29  C   UNL     1      -1.961  11.347  19.562  0.00  0.00    +0.000 C 
ATOM     30  C   UNL     1      -0.815  10.386  19.907  0.00  0.00    +0.000 C 
ATOM     31  C   UNL     1       0.045  10.913  21.071  0.00  0.00    +0.000 C 
ATOM     32  C   UNL     1       0.435  12.379  20.918  0.00  0.00    +0.000 C 
BRANCH  25  33
ATOM     33  O   UNL     1      -0.293  14.578  22.330  0.00  0.00    +0.000 OA
BRANCH  33  35
ATOM     34  C   UNL     1      -1.309  14.869  24.472  0.00  0.00    +0.000 C 
ATOM     35  C   UNL     1      -0.764  15.574  23.241  0.00  0.00    +0.000 C 
ENDBRANCH  33  35
ENDBRANCH  25  33
ENDBRANCH   1  30
TORSDOF 4
ENDMDL
MODEL 3
REMARK VINA RESULT:      -6.9      6.938     10.381
REMARK  Name = 
REMARK  5 active torsions:
REMARK  status: ('A' for Active; 'I' for Inactive)
REMARK    1  A    between atoms: C_1  and  C_2
REMARK    2  A    between atoms: C_2  and  O_3
REMARK    3  A    between atoms: O_3  and  C_4
REMARK    4  A    between atoms: C_9  and  C_10
REMARK    5  A    between atoms: N_15  and  C_16
REMARK                            x       y       z     vdW  Elec       q    Type
REMARK                         _______ _______ _______ _____ _____    ______ ____
ROOT
ATOM      1  C   UNL     1       2.424  14.355  19.150  0.00  0.00    +0.000 C 
ATOM      2  O   UNL     1       2.343  14.520  17.933  0.00  0.00    +0.000 OA
ATOM      3  N   UNL     1       3.610  14.569  19.827  0.00  0.00    +0.000 N 
ATOM      4  C   UNL     1       4.719  15.197  19.109  0.00  0.00    +0.000 C 
ATOM      5  C   UNL     1       5.717  15.954  20.020  0.00  0.00    +0.000 C 
ATOM      6  N   UNL     1       6.030  15.366  21.357  0.00  0.00    +0.000 NA
ATOM      7  C   UNL     1       4.721  15.027  21.949  0.00  0.00    +0.000 C 
ATOM      8  C   UNL     1       3.955  13.989  21.128  0.00  0.00    +0.000 C 
ENDROOT
BRANCH   6   9
ATOM      9  C   UNL     1       7.105  14.278  21.308  0.00  0.00    +0.000 C 
ATOM     10  C   UNL     1       8.443  14.899  20.774  0.00  0.00    +0.000 A 
ATOM     11  C   UNL     1       8.624  16.294  20.631  0.00  0.00    +0.000 A 
ATOM     12  C   UNL     1       9.795  16.845  20.096  0.00  0.00    +0.000 A 
ATOM     13  C   UNL     1      10.855  16.019  19.768  0.00  0.00    +0.000 A 
ATOM     14 CL   UNL     1      12.333  16.690  19.200  0.00  0.00    +0.000 Cl
ATOM     15  C   UNL     1      10.729  14.644  19.918  0.00  0.00    +0.000 A 
ATOM     16  C   UNL     1       9.520  14.081  20.377  0.00  0.00    +0.000 A 
ATOM     17  C   UNL     1       9.450  12.591  20.537  0.00  0.00    +0.000 C 
ATOM     18  C   UNL     1       9.602  12.262  22.005  0.00  0.00    +0.000 C 
ATOM     19  C   UNL     1       8.422  12.574  22.893  0.00  0.00    +0.000 A 
ATOM     20  C   UNL     1       8.482  11.889  24.148  0.00  0.00    +0.000 A 
ATOM     21  C   UNL     1       7.427  11.954  25.040  0.00  0.00    +0.000 A 
ATOM     22  C   UNL     1       6.338  12.687  24.655  0.00  0.00    +0.000 A 
ATOM     23  N   UNL     1       6.274  13.363  23.495  0.00  0.00    +0.000 NA
ATOM     24  C   UNL     1       7.320  13.402  22.621  0.00  0.00    +0.000 A 
ENDBRANCH   6   9
BRANCH   1  30
ATOM     25  C   UNL     1      -1.515  11.148  18.601  0.00  0.00    +0.000 C 
ATOM     26  O   UNL     1      -1.485  10.007  19.045  0.00  0.00    +0.000 OA
ATOM     27  N   UNL     1      -0.455  12.025  18.660  0.00  0.00    +0.000 N 
ATOM     28  C   UNL     1       0.815  11.589  19.211  0.00  0.00    +0.000 C 
ATOM     29  C   UNL     1       1.198  12.487  20.379  0.00  0.00    +0.000 C 
ATOM     30  C   UNL     1       1.198  13.970  19.981  0.00  0.00    +0.000 C 
ATOM     31  C   UNL     1      -0.095  14.366  19.245  0.00  0.00    +0.000 C 
ATOM     32  C   UNL     1      -0.486  13.387  18.144  0.00  0.00    +0.000 C 
BRANCH  25  33
ATOM     33  O   UNL     1      -2.580  11.673  17.939  0.00  0.00    +0.000 OA
BRANCH  33  35
ATOM     34  C   UNL     1      -2.610  10.715  15.751  0.00  0.00    +0.000 C 
ATOM     35  C   UNL     1      -3.287  10.746  17.112  0.00  0.00    +0.000 C 
ENDBRANCH  33  35
ENDBRANCH  25  33
ENDBRANCH   1  30
TORSDOF 4
ENDMDL
MODEL 4
REMARK VINA RESULT:      -6.6      7.132     11.096
REMARK  Name = 
REMARK  5 active torsions:
REMARK  status: ('A' for Active; 'I' for Inactive)
REMARK    1  A    between atoms: C_1  and  C_2
REMARK    2  A    between atoms: C_2  and  O_3
REMARK    3  A    between atoms: O_3  and  C_4
REMARK    4  A    between atoms: C_9  and  C_10
REMARK    5  A    between atoms: N_15  and  C_16
REMARK                            x       y       z     vdW  Elec       q    Type
REMARK                         _______ _______ _______ _____ _____    ______ ____
ROOT
ATOM      1  C   UNL     1       2.374  14.214  18.799  0.00  0.00    +0.000 C 
ATOM      2  O   UNL     1       2.147  13.496  17.825  0.00  0.00    +0.000 OA
ATOM      3  N   UNL     1       3.662  14.595  19.127  0.00  0.00    +0.000 N 
ATOM      4  C   UNL     1       4.738  14.303  18.178  0.00  0.00    +0.000 C 
ATOM      5  C   UNL     1       5.952  15.258  18.284  0.00  0.00    +0.000 C 
ATOM      6  N   UNL     1       6.362  15.723  19.643  0.00  0.00    +0.000 NA
ATOM      7  C   UNL     1       5.115  16.166  20.296  0.00  0.00    +0.000 C 
ATOM      8  C   UNL     1       4.100  15.033  20.454  0.00  0.00    +0.000 C 
ENDROOT
BRANCH   6   9
ATOM      9  C   UNL     1       7.252  14.724  20.386  0.00  0.00    +0.000 C 
ATOM     10  C   UNL     1       8.520  14.414  19.515  0.00  0.00    +0.000 A 
ATOM     11  C   UNL     1       8.848  15.169  18.365  0.00  0.00    +0.000 A 
ATOM     12  C   UNL     1       9.944  14.855  17.552  0.00  0.00    +0.000 A 
ATOM     13  C   UNL     1      10.795  13.827  17.916  0.00  0.00    +0.000 A 
ATOM     14 CL   UNL     1      12.198  13.492  16.979  0.00  0.00    +0.000 Cl
ATOM     15  C   UNL     1      10.524  13.077  19.052  0.00  0.00    +0.000 A 
ATOM     16  C   UNL     1       9.374  13.338  19.826  0.00  0.00    +0.000 A 
ATOM     17  C   UNL     1       9.144  12.508  21.054  0.00  0.00    +0.000 C 
ATOM     18  C   UNL     1       9.554  13.320  22.262  0.00  0.00    +0.000 C 
ATOM     19  C   UNL     1       8.634  14.450  22.659  0.00  0.00    +0.000 A 
ATOM     20  C   UNL     1       8.864  14.901  23.997  0.00  0.00    +0.000 A 
ATOM     21  C   UNL     1       8.035  15.844  24.577  0.00  0.00    +0.000 A 
ATOM     22  C   UNL     1       6.995  16.303  23.816  0.00  0.00    +0.000 A 
ATOM     23  N   UNL     1       6.781  15.916  22.547  0.00  0.00    +0.000 NA
ATOM     24  C   UNL     1       7.619  15.056  21.900  0.00  0.00    +0.000 A 
ENDBRANCH   6   9
BRANCH   1  30
ATOM     25  C   UNL     1      -1.972  12.388  20.768  0.00  0.00    +0.000 C 
ATOM     26  O   UNL     1      -2.024  11.930  21.903  0.00  0.00    +0.000 OA
ATOM     27  N   UNL     1      -0.813  12.826  20.167  0.00  0.00    +0.000 N 
ATOM     28  C   UNL     1       0.456  12.690  20.859  0.00  0.00    +0.000 C 
ATOM     29  C   UNL     1       1.104  14.060  21.004  0.00  0.00    +0.000 C 
ATOM     30  C   UNL     1       1.234  14.776  19.653  0.00  0.00    +0.000 C 
ATOM     31  C   UNL     1      -0.087  14.756  18.863  0.00  0.00    +0.000 C 
ATOM     32  C   UNL     1      -0.744  13.380  18.822  0.00  0.00    +0.000 C 
BRANCH  25  33
ATOM     33  O   UNL     1      -3.043  12.466  19.935  0.00  0.00    +0.000 OA
BRANCH  33  35
ATOM     34  C   UNL     1      -5.421  12.305  20.088  0.00  0.00    +0.000 C 
ATOM     35  C   UNL     1      -4.194  13.101  20.498  0.00  0.00    +0.000 C 
ENDBRANCH  33  35
ENDBRANCH  25  33
ENDBRANCH   1  30
TORSDOF 4
ENDMDL
MODEL 5
REMARK VINA RESULT:      -6.6      5.528      7.934
REMARK  Name = 
REMARK  5 active torsions:
REMARK  status: ('A' for Active; 'I' for Inactive)
REMARK    1  A    between atoms: C_1  and  C_2
REMARK    2  A    between atoms: C_2  and  O_3
REMARK    3  A    between atoms: O_3  and  C_4
REMARK    4  A    between atoms: C_9  and  C_10
REMARK    5  A    between atoms: N_15  and  C_16
REMARK                            x       y       z     vdW  Elec       q    Type
REMARK                         _______ _______ _______ _____ _____    ______ ____
ROOT
ATOM      1  C   UNL     1       3.040  15.439  19.108  0.00  0.00    +0.000 C 
ATOM      2  O   UNL     1       2.819  16.638  18.933  0.00  0.00    +0.000 OA
ATOM      3  N   UNL     1       2.008  14.535  19.279  0.00  0.00    +0.000 N 
ATOM      4  C   UNL     1       0.637  14.990  19.041  0.00  0.00    +0.000 C 
ATOM      5  C   UNL     1      -0.343  13.862  18.636  0.00  0.00    +0.000 C 
ATOM      6  N   UNL     1      -0.182  12.526  19.285  0.00  0.00    +0.000 NA
ATOM      7  C   UNL     1       1.258  12.217  19.185  0.00  0.00    +0.000 C 
ATOM      8  C   UNL     1       2.129  13.229  19.931  0.00  0.00    +0.000 C 
ENDROOT
BRANCH   6   9
ATOM      9  C   UNL     1      -0.849  12.431  20.659  0.00  0.00    +0.000 C 
ATOM     10  C   UNL     1      -2.407  12.470  20.480  0.00  0.00    +0.000 A 
ATOM     11  C   UNL     1      -3.025  12.349  19.214  0.00  0.00    +0.000 A 
ATOM     12  C   UNL     1      -4.411  12.446  19.046  0.00  0.00    +0.000 A 
ATOM     13  C   UNL     1      -5.229  12.581  20.154  0.00  0.00    +0.000 A 
ATOM     14 CL   UNL     1      -6.939  12.605  19.971  0.00  0.00    +0.000 Cl
ATOM     15  C   UNL     1      -4.664  12.677  21.419  0.00  0.00    +0.000 A 
ATOM     16  C   UNL     1      -3.264  12.664  21.582  0.00  0.00    +0.000 A 
ATOM     17  C   UNL     1      -2.713  12.753  22.974  0.00  0.00    +0.000 C 
ATOM     18  C   UNL     1      -2.294  11.366  23.410  0.00  0.00    +0.000 C 
ATOM     19  C   UNL     1      -1.041  10.810  22.777  0.00  0.00    +0.000 A 
ATOM     20  C   UNL     1      -0.501   9.704  23.507  0.00  0.00    +0.000 A 
ATOM     21  C   UNL     1       0.712   9.144  23.148  0.00  0.00    +0.000 A 
ATOM     22  C   UNL     1       1.360   9.707  22.083  0.00  0.00    +0.000 A 
ATOM     23  N   UNL     1       0.855  10.725  21.365  0.00  0.00    +0.000 NA
ATOM     24  C   UNL     1      -0.375  11.255  21.623  0.00  0.00    +0.000 A 
ENDBRANCH   6   9
BRANCH   1  30
ATOM     25  C   UNL     1       7.682  17.183  20.337  0.00  0.00    +0.000 C 
ATOM     26  O   UNL     1       8.172  16.990  21.443  0.00  0.00    +0.000 OA
ATOM     27  N   UNL     1       6.409  16.796  19.981  0.00  0.00    +0.000 N 
ATOM     28  C   UNL     1       5.537  16.183  20.966  0.00  0.00    +0.000 C 
ATOM     29  C   UNL     1       5.100  14.811  20.473  0.00  0.00    +0.000 C 
ATOM     30  C   UNL     1       4.466  14.882  19.078  0.00  0.00    +0.000 C 
ATOM     31  C   UNL     1       5.333  15.687  18.093  0.00  0.00    +0.000 C 
ATOM     32  C   UNL     1       5.823  17.013  18.666  0.00  0.00    +0.000 C 
BRANCH  25  33
ATOM     33  O   UNL     1       8.312  17.857  19.340  0.00  0.00    +0.000 OA
BRANCH  33  35
ATOM     34  C   UNL     1       9.513  16.150  18.179  0.00  0.00    +0.000 C 
ATOM     35  C   UNL     1       9.632  17.393  19.044  0.00  0.00    +0.000 C 
ENDBRANCH  33  35
ENDBRANCH  25  33
ENDBRANCH   1  30
TORSDOF 4
ENDMDL
MODEL 6
REMARK VINA RESULT:      -6.6      7.092     10.569
REMARK  Name = 
REMARK  5 active torsions:
REMARK  status: ('A' for Active; 'I' for Inactive)
REMARK    1  A    between atoms: C_1  and  C_2
REMARK    2  A    between atoms: C_2  and  O_3
REMARK    3  A    between atoms: O_3  and  C_4
REMARK    4  A    between atoms: C_9  and  C_10
REMARK    5  A    between atoms: N_15  and  C_16
REMARK                            x       y       z     vdW  Elec       q    Type
REMARK                         _______ _______ _______ _____ _____    ______ ____
ROOT
ATOM      1  C   UNL     1       2.479  14.791  18.701  0.00  0.00    +0.000 C 
ATOM      2  O   UNL     1       2.282  14.837  17.486  0.00  0.00    +0.000 OA
ATOM      3  N   UNL     1       3.743  14.969  19.231  0.00  0.00    +0.000 N 
ATOM      4  C   UNL     1       4.815  15.422  18.343  0.00  0.00    +0.000 C 
ATOM      5  C   UNL     1       5.958  16.178  19.063  0.00  0.00    +0.000 C 
ATOM      6  N   UNL     1       6.365  15.705  20.420  0.00  0.00    +0.000 NA
ATOM      7  C   UNL     1       5.105  15.545  21.171  0.00  0.00    +0.000 C 
ATOM      8  C   UNL     1       4.180  14.498  20.548  0.00  0.00    +0.000 C 
ENDROOT
BRANCH   6   9
ATOM      9  C   UNL     1       7.344  14.529  20.387  0.00  0.00    +0.000 C 
ATOM     10  C   UNL     1       8.621  14.942  19.576  0.00  0.00    +0.000 A 
ATOM     11  C   UNL     1       8.872  16.280  19.192  0.00  0.00    +0.000 A 
ATOM     12  C   UNL     1       9.979  16.640  18.415  0.00  0.00    +0.000 A 
ATOM     13  C   UNL     1      10.917  15.682  18.072  0.00  0.00    +0.000 A 
ATOM     14 CL   UNL     1      12.330  16.127  17.199  0.00  0.00    +0.000 Cl
ATOM     15  C   UNL     1      10.722  14.361  18.451  0.00  0.00    +0.000 A 
ATOM     16  C   UNL     1       9.565  13.981  19.162  0.00  0.00    +0.000 A 
ATOM     17  C   UNL     1       9.419  12.542  19.560  0.00  0.00    +0.000 C 
ATOM     18  C   UNL     1       9.776  12.416  21.024  0.00  0.00    +0.000 C 
ATOM     19  C   UNL     1       8.772  12.958  22.013  0.00  0.00    +0.000 A 
ATOM     20  C   UNL     1       8.980  12.459  23.338  0.00  0.00    +0.000 A 
ATOM     21  C   UNL     1       8.085  12.748  24.351  0.00  0.00    +0.000 A 
ATOM     22  C   UNL     1       7.001  13.513  24.017  0.00  0.00    +0.000 A 
ATOM     23  N   UNL     1       6.803  14.018  22.787  0.00  0.00    +0.000 NA
ATOM     24  C   UNL     1       7.701  13.835  21.776  0.00  0.00    +0.000 A 
ENDBRANCH   6   9
BRANCH   1  30
ATOM     25  C   UNL     1      -0.909  11.101  19.707  0.00  0.00    +0.000 C 
ATOM     26  O   UNL     1      -0.704  10.255  20.568  0.00  0.00    +0.000 OA
ATOM     27  N   UNL     1       0.001  12.071  19.349  0.00  0.00    +0.000 N 
ATOM     28  C   UNL     1       1.320  12.084  19.955  0.00  0.00    +0.000 C 
ATOM     29  C   UNL     1       1.551  13.423  20.642  0.00  0.00    +0.000 C 
ATOM     30  C   UNL     1       1.322  14.601  19.685  0.00  0.00    +0.000 C 
ATOM     31  C   UNL     1      -0.011  14.474  18.926  0.00  0.00    +0.000 C 
ATOM     32  C   UNL     1      -0.238  13.087  18.333  0.00  0.00    +0.000 C 
BRANCH  25  33
ATOM     33  O   UNL     1      -2.037  11.153  18.952  0.00  0.00    +0.000 OA
BRANCH  33  35
ATOM     34  C   UNL     1      -3.499  10.244  17.296  0.00  0.00    +0.000 C 
ATOM     35  C   UNL     1      -2.122  10.155  17.931  0.00  0.00    +0.000 C 
ENDBRANCH  33  35
ENDBRANCH  25  33
ENDBRANCH   1  30
TORSDOF 4
ENDMDL
MODEL 7
REMARK VINA RESULT:      -6.6      7.441     10.737
REMARK  Name = 
REMARK  5 active torsions:
REMARK  status: ('A' for Active; 'I' for Inactive)
REMARK    1  A    between atoms: C_1  and  C_2
REMARK    2  A    between atoms: C_2  and  O_3
REMARK    3  A    between atoms: O_3  and  C_4
REMARK    4  A    between atoms: C_9  and  C_10
REMARK    5  A    between atoms: N_15  and  C_16
REMARK                            x       y       z     vdW  Elec       q    Type
REMARK                         _______ _______ _______ _____ _____    ______ ____
ROOT
ATOM      1  C   UNL     1       2.660  14.085  18.897  0.00  0.00    +0.000 C 
ATOM      2  O   UNL     1       2.594  13.830  17.695  0.00  0.00    +0.000 OA
ATOM      3  N   UNL     1       3.731  14.784  19.425  0.00  0.00    +0.000 N 
ATOM      4  C   UNL     1       4.686  15.398  18.502  0.00  0.00    +0.000 C 
ATOM      5  C   UNL     1       5.432  16.623  19.085  0.00  0.00    +0.000 C 
ATOM      6  N   UNL     1       5.821  16.585  20.528  0.00  0.00    +0.000 NA
ATOM      7  C   UNL     1       4.608  16.148  21.246  0.00  0.00    +0.000 C 
ATOM      8  C   UNL     1       4.150  14.750  20.829  0.00  0.00    +0.000 C 
ENDROOT
BRANCH   6   9
ATOM      9  C   UNL     1       7.128  15.832  20.787  0.00  0.00    +0.000 C 
ATOM     10  C   UNL     1       8.267  16.454  19.906  0.00  0.00    +0.000 A 
ATOM     11  C   UNL     1       8.101  17.673  19.209  0.00  0.00    +0.000 A 
ATOM     12  C   UNL     1       9.094  18.198  18.372  0.00  0.00    +0.000 A 
ATOM     13  C   UNL     1      10.318  17.559  18.277  0.00  0.00    +0.000 A 
ATOM     14 CL   UNL     1      11.579  18.243  17.329  0.00  0.00    +0.000 Cl
ATOM     15  C   UNL     1      10.532  16.373  18.966  0.00  0.00    +0.000 A 
ATOM     16  C   UNL     1       9.504  15.799  19.743  0.00  0.00    +0.000 A 
ATOM     17  C   UNL     1       9.800  14.527  20.479  0.00  0.00    +0.000 C 
ATOM     18  C   UNL     1      10.050  14.865  21.932  0.00  0.00    +0.000 C 
ATOM     19  C   UNL     1       8.843  15.248  22.754  0.00  0.00    +0.000 A 
ATOM     20  C   UNL     1       9.087  15.164  24.161  0.00  0.00    +0.000 A 
ATOM     21  C   UNL     1       8.062  15.358  25.069  0.00  0.00    +0.000 A 
ATOM     22  C   UNL     1       6.822  15.617  24.554  0.00  0.00    +0.000 A 
ATOM     23  N   UNL     1       6.578  15.731  23.237  0.00  0.00    +0.000 NA
ATOM     24  C   UNL     1       7.570  15.635  22.305  0.00  0.00    +0.000 A 
ENDBRANCH   6   9
BRANCH   1  30
ATOM     25  C   UNL     1      -1.538  11.187  18.631  0.00  0.00    +0.000 C 
ATOM     26  O   UNL     1      -1.533  10.011  18.972  0.00  0.00    +0.000 OA
ATOM     27  N   UNL     1      -0.419  11.989  18.617  0.00  0.00    +0.000 N 
ATOM     28  C   UNL     1       0.878  11.428  18.951  0.00  0.00    +0.000 C 
ATOM     29  C   UNL     1       1.474  12.192  20.125  0.00  0.00    +0.000 C 
ATOM     30  C   UNL     1       1.529  13.701  19.854  0.00  0.00    +0.000 C 
ATOM     31  C   UNL     1       0.184  14.241  19.336  0.00  0.00    +0.000 C 
ATOM     32  C   UNL     1      -0.419  13.391  18.222  0.00  0.00    +0.000 C 
BRANCH  25  33
ATOM     33  O   UNL     1      -2.639  11.834  18.166  0.00  0.00    +0.000 OA
BRANCH  33  35
ATOM     34  C   UNL     1      -4.809  11.624  17.190  0.00  0.00    +0.000 C 
ATOM     35  C   UNL     1      -3.375  11.121  17.169  0.00  0.00    +0.000 C 
ENDBRANCH  33  35
ENDBRANCH  25  33
ENDBRANCH   1  30
TORSDOF 4
ENDMDL
MODEL 8
REMARK VINA RESULT:      -6.5      6.970     10.473
REMARK  Name = 
REMARK  5 active torsions:
REMARK  status: ('A' for Active; 'I' for Inactive)
REMARK    1  A    between atoms: C_1  and  C_2
REMARK    2  A    between atoms: C_2  and  O_3
REMARK    3  A    between atoms: O_3  and  C_4
REMARK    4  A    between atoms: C_9  and  C_10
REMARK    5  A    between atoms: N_15  and  C_16
REMARK                            x       y       z     vdW  Elec       q    Type
REMARK                         _______ _______ _______ _____ _____    ______ ____
ROOT
ATOM      1  C   UNL     1       2.320  13.377  18.769  0.00  0.00    +0.000 C 
ATOM      2  O   UNL     1       2.303  13.066  17.577  0.00  0.00    +0.000 OA
ATOM      3  N   UNL     1       3.398  14.044  19.321  0.00  0.00    +0.000 N 
ATOM      4  C   UNL     1       4.432  14.561  18.424  0.00  0.00    +0.000 C 
ATOM      5  C   UNL     1       5.214  15.772  18.990  0.00  0.00    +0.000 C 
ATOM      6  N   UNL     1       5.524  15.786  20.451  0.00  0.00    +0.000 NA
ATOM      7  C   UNL     1       4.252  15.449  21.121  0.00  0.00    +0.000 C 
ATOM      8  C   UNL     1       3.741  14.058  20.746  0.00  0.00    +0.000 C 
ENDROOT
BRANCH   6   9
ATOM      9  C   UNL     1       6.771  14.979  20.818  0.00  0.00    +0.000 C 
ATOM     10  C   UNL     1       7.899  15.267  19.766  0.00  0.00    +0.000 A 
ATOM     11  C   UNL     1       7.798  16.309  18.816  0.00  0.00    +0.000 A 
ATOM     12  C   UNL     1       8.775  16.527  17.837  0.00  0.00    +0.000 A 
ATOM     13  C   UNL     1       9.927  15.761  17.836  0.00  0.00    +0.000 A 
ATOM     14 CL   UNL     1      11.178  16.081  16.700  0.00  0.00    +0.000 Cl
ATOM     15  C   UNL     1      10.079  14.744  18.769  0.00  0.00    +0.000 A 
ATOM     16  C   UNL     1       9.058  14.468  19.702  0.00  0.00    +0.000 A 
ATOM     17  C   UNL     1       9.287  13.369  20.697  0.00  0.00    +0.000 C 
ATOM     18  C   UNL     1       9.665  13.997  22.020  0.00  0.00    +0.000 C 
ATOM     19  C   UNL     1       8.556  14.677  22.786  0.00  0.00    +0.000 A 
ATOM     20  C   UNL     1       8.886  14.886  24.162  0.00  0.00    +0.000 A 
ATOM     21  C   UNL     1       7.947  15.383  25.047  0.00  0.00    +0.000 A 
ATOM     22  C   UNL     1       6.703  15.646  24.543  0.00  0.00    +0.000 A 
ATOM     23  N   UNL     1       6.382  15.487  23.247  0.00  0.00    +0.000 NA
ATOM     24  C   UNL     1       7.295  15.083  22.318  0.00  0.00    +0.000 A 
ENDBRANCH   6   9
BRANCH   1  30
ATOM     25  C   UNL     1      -2.161  10.969  18.296  0.00  0.00    +0.000 C 
ATOM     26  O   UNL     1      -2.297   9.792  18.607  0.00  0.00    +0.000 OA
ATOM     27  N   UNL     1      -0.960  11.642  18.337  0.00  0.00    +0.000 N 
ATOM     28  C   UNL     1       0.254  10.934  18.699  0.00  0.00    +0.000 C 
ATOM     29  C   UNL     1       0.890  11.602  19.910  0.00  0.00    +0.000 C 
ATOM     30  C   UNL     1       1.121  13.101  19.679  0.00  0.00    +0.000 C 
ATOM     31  C   UNL     1      -0.138  13.798  19.131  0.00  0.00    +0.000 C 
ATOM     32  C   UNL     1      -0.791  13.043  17.977  0.00  0.00    +0.000 C 
BRANCH  25  33
ATOM     33  O   UNL     1      -3.167  11.743  17.812  0.00  0.00    +0.000 OA
BRANCH  33  35
ATOM     34  C   UNL     1      -5.481  11.151  17.825  0.00  0.00    +0.000 C 
ATOM     35  C   UNL     1      -4.345  11.769  18.622  0.00  0.00    +0.000 C 
ENDBRANCH  33  35
ENDBRANCH  25  33
ENDBRANCH   1  30
TORSDOF 4
ENDMDL
MODEL 9
REMARK VINA RESULT:      -6.5      1.313      1.604
REMARK  Name = 
REMARK  5 active torsions:
REMARK  status: ('A' for Active; 'I' for Inactive)
REMARK    1  A    between atoms: C_1  and  C_2
REMARK    2  A    between atoms: C_2  and  O_3
REMARK    3  A    between atoms: O_3  and  C_4
REMARK    4  A    between atoms: C_9  and  C_10
REMARK    5  A    between atoms: N_15  and  C_16
REMARK                            x       y       z     vdW  Elec       q    Type
REMARK                         _______ _______ _______ _____ _____    ______ ____
ROOT
ATOM      1  C   UNL     1       1.837   8.121  19.618  0.00  0.00    +0.000 C 
ATOM      2  O   UNL     1       2.099   7.588  20.697  0.00  0.00    +0.000 OA
ATOM      3  N   UNL     1       1.085   9.280  19.552  0.00  0.00    +0.000 N 
ATOM      4  C   UNL     1       0.778   9.983  20.799  0.00  0.00    +0.000 C 
ATOM      5  C   UNL     1       0.521  11.500  20.623  0.00  0.00    +0.000 C 
ATOM      6  N   UNL     1      -0.210  11.950  19.400  0.00  0.00    +0.000 NA
ATOM      7  C   UNL     1       0.451  11.258  18.276  0.00  0.00    +0.000 C 
ATOM      8  C   UNL     1       0.340   9.736  18.377  0.00  0.00    +0.000 C 
ENDROOT
BRANCH   6   9
ATOM      9  C   UNL     1      -1.731  11.841  19.525  0.00  0.00    +0.000 C 
ATOM     10  C   UNL     1      -2.277  13.095  20.293  0.00  0.00    +0.000 A 
ATOM     11  C   UNL     1      -1.471  14.225  20.564  0.00  0.00    +0.000 A 
ATOM     12  C   UNL     1      -1.939  15.317  21.305  0.00  0.00    +0.000 A 
ATOM     13  C   UNL     1      -3.258  15.349  21.721  0.00  0.00    +0.000 A 
ATOM     14 CL   UNL     1      -3.872  16.727  22.547  0.00  0.00    +0.000 Cl
ATOM     15  C   UNL     1      -4.092  14.272  21.452  0.00  0.00    +0.000 A 
ATOM     16  C   UNL     1      -3.599  13.134  20.780  0.00  0.00    +0.000 A 
ATOM     17  C   UNL     1      -4.552  12.009  20.501  0.00  0.00    +0.000 C 
ATOM     18  C   UNL     1      -4.971  12.090  19.051  0.00  0.00    +0.000 C 
ATOM     19  C   UNL     1      -3.940  11.684  18.026  0.00  0.00    +0.000 A 
ATOM     20  C   UNL     1      -4.516  11.408  16.746  0.00  0.00    +0.000 A 
ATOM     21  C   UNL     1      -3.743  10.902  15.716  0.00  0.00    +0.000 A 
ATOM     22  C   UNL     1      -2.423  10.673  15.991  0.00  0.00    +0.000 A 
ATOM     23  N   UNL     1      -1.855  10.954  17.177  0.00  0.00    +0.000 NA
ATOM     24  C   UNL     1      -2.553  11.535  18.195  0.00  0.00    +0.000 A 
ENDBRANCH   6   9
BRANCH   1  30
ATOM     25  C   UNL     1       2.924   3.482  17.775  0.00  0.00    +0.000 C 
ATOM     26  O   UNL     1       2.112   2.841  17.120  0.00  0.00    +0.000 OA
ATOM     27  N   UNL     1       2.656   4.703  18.353  0.00  0.00    +0.000 N 
ATOM     28  C   UNL     1       1.321   5.268  18.263  0.00  0.00    +0.000 C 
ATOM     29  C   UNL     1       1.392   6.634  17.595  0.00  0.00    +0.000 C 
ATOM     30  C   UNL     1       2.387   7.563  18.303  0.00  0.00    +0.000 C 
ATOM     31  C   UNL     1       3.745   6.878  18.540  0.00  0.00    +0.000 C 
ATOM     32  C   UNL     1       3.619   5.475  19.126  0.00  0.00    +0.000 C 
BRANCH  25  33
ATOM     33  O   UNL     1       4.176   3.040  18.067  0.00  0.00    +0.000 OA
BRANCH  33  35
ATOM     34  C   UNL     1       4.459   2.144  20.262  0.00  0.00    +0.000 C 
ATOM     35  C   UNL     1       4.223   1.813  18.799  0.00  0.00    +0.000 C 
ENDBRANCH  33  35
ENDBRANCH  25  33
ENDBRANCH   1  30
TORSDOF 4
ENDMDL
