MODEL 1
REMARK VINA RESULT:      -7.2      0.000      0.000
REMARK  Name = 
REMARK  6 active torsions:
REMARK  status: ('A' for Active; 'I' for Inactive)
REMARK    1  A    between atoms: C_1  and  O_2
REMARK    2  A    between atoms: O_2  and  C_3
REMARK    3  A    between atoms: C_8  and  C_9
REMARK    4  A    between atoms: N_11  and  C_12
REMARK    5  A    between atoms: C_12  and  C_13
REMARK    6  A    between atoms: C_13  and  N_14
REMARK                            x       y       z     vdW  Elec       q    Type
REMARK                         _______ _______ _______ _____ _____    ______ ____
ROOT
ATOM      1  C   UNL     1       9.808  13.331  18.696  0.00  0.00    +0.000 A 
ATOM      2  C   UNL     1      10.416  12.779  19.825  0.00  0.00    +0.000 A 
ATOM      3  C   UNL     1      10.281  11.416  20.138  0.00  0.00    +0.000 A 
ATOM      4  C   UNL     1       9.511  10.627  19.281  0.00  0.00    +0.000 A 
ATOM      5  N   UNL     1       9.182   9.291  19.331  0.00  0.00    +0.000 N 
ATOM      6  C   UNL     1       8.358   8.945  18.276  0.00  0.00    +0.000 A 
ATOM      7  C   UNL     1       8.202  10.092  17.517  0.00  0.00    +0.000 A 
ATOM      8  C   UNL     1       8.902  11.150  18.144  0.00  0.00    +0.000 A 
ATOM      9  C   UNL     1       9.058  12.514  17.845  0.00  0.00    +0.000 A 
ATOM     10  H   UNL     1       9.466   8.640  20.053  0.00  0.00    +0.000 HD
ENDROOT
BRANCH   6  11
ATOM     11  C   UNL     1       7.807   7.619  18.114  0.00  0.00    +0.000 C 
ATOM     12  O   UNL     1       8.191   6.664  18.782  0.00  0.00    +0.000 OA
ATOM     13  N   UNL     1       6.812   7.513  17.170  0.00  0.00    +0.000 N 
ATOM     14  H   UNL     1       6.615   8.284  16.548  0.00  0.00    +0.000 HD
BRANCH  13  15
ATOM     15  C   UNL     1       6.160   6.254  16.886  0.00  0.00    +0.000 C 
BRANCH  15  16
ATOM     16  C   UNL     1       5.250   5.774  18.037  0.00  0.00    +0.000 C 
BRANCH  16  17
ATOM     17  N   UNL     1       4.156   4.862  17.628  0.00  0.00    +0.000 NA
ATOM     18  C   UNL     1       4.368   3.499  18.153  0.00  0.00    +0.000 C 
ATOM     19  C   UNL     1       3.262   2.549  17.696  0.00  0.00    +0.000 C 
ATOM     20  C   UNL     1       1.889   3.055  18.112  0.00  0.00    +0.000 C 
ATOM     21  C   UNL     1       1.696   4.495  17.656  0.00  0.00    +0.000 C 
ATOM     22  C   UNL     1       2.859   5.386  18.103  0.00  0.00    +0.000 C 
ENDBRANCH  16  17
ENDBRANCH  15  16
ENDBRANCH  13  15
ENDBRANCH   6  11
BRANCH   1  24
ATOM     23  C   UNL     1      11.068  15.342  18.613  0.00  0.00    +0.000 C 
ATOM     24  O   UNL     1       9.869  14.642  18.308  0.00  0.00    +0.000 OA
ENDBRANCH   1  24
TORSDOF 5
ENDMDL
MODEL 2
REMARK VINA RESULT:      -7.2      5.846      8.102
REMARK  Name = 
REMARK  6 active torsions:
REMARK  status: ('A' for Active; 'I' for Inactive)
REMARK    1  A    between atoms: C_1  and  O_2
REMARK    2  A    between atoms: O_2  and  C_3
REMARK    3  A    between atoms: C_8  and  C_9
REMARK    4  A    between atoms: N_11  and  C_12
REMARK    5  A    between atoms: C_12  and  C_13
REMARK    6  A    between atoms: C_13  and  N_14
REMARK                            x       y       z     vdW  Elec       q    Type
REMARK                         _______ _______ _______ _____ _____    ______ ____
ROOT
ATOM      1  C   UNL     1       6.577   4.745  16.163  0.00  0.00    +0.000 A 
ATOM      2  C   UNL     1       7.340   4.761  17.330  0.00  0.00    +0.000 A 
ATOM      3  C   UNL     1       6.760   5.023  18.583  0.00  0.00    +0.000 A 
ATOM      4  C   UNL     1       5.386   5.273  18.622  0.00  0.00    +0.000 A 
ATOM      5  N   UNL     1       4.550   5.576  19.673  0.00  0.00    +0.000 N 
ATOM      6  C   UNL     1       3.255   5.779  19.232  0.00  0.00    +0.000 A 
ATOM      7  C   UNL     1       3.274   5.553  17.866  0.00  0.00    +0.000 A 
ATOM      8  C   UNL     1       4.600   5.254  17.473  0.00  0.00    +0.000 A 
ATOM      9  C   UNL     1       5.200   4.981  16.233  0.00  0.00    +0.000 A 
ATOM     10  H   UNL     1       4.831   5.676  20.641  0.00  0.00    +0.000 HD
ENDROOT
BRANCH   6  11
ATOM     11  C   UNL     1       2.180   6.172  20.113  0.00  0.00    +0.000 C 
ATOM     12  O   UNL     1       1.440   5.354  20.650  0.00  0.00    +0.000 OA
ATOM     13  N   UNL     1       2.060   7.528  20.316  0.00  0.00    +0.000 N 
ATOM     14  H   UNL     1       2.596   8.177  19.756  0.00  0.00    +0.000 HD
BRANCH  13  15
ATOM     15  C   UNL     1       1.033   8.085  21.167  0.00  0.00    +0.000 C 
BRANCH  15  16
ATOM     16  C   UNL     1       1.106   9.624  21.272  0.00  0.00    +0.000 C 
BRANCH  16  17
ATOM     17  N   UNL     1       0.728  10.352  20.039  0.00  0.00    +0.000 NA
ATOM     18  C   UNL     1      -0.678  10.096  19.673  0.00  0.00    +0.000 C 
ATOM     19  C   UNL     1      -1.057  10.813  18.379  0.00  0.00    +0.000 C 
ATOM     20  C   UNL     1      -0.815  12.311  18.483  0.00  0.00    +0.000 C 
ATOM     21  C   UNL     1       0.607  12.586  18.952  0.00  0.00    +0.000 C 
ATOM     22  C   UNL     1       0.941  11.802  20.224  0.00  0.00    +0.000 C 
ENDBRANCH  16  17
ENDBRANCH  15  16
ENDBRANCH  13  15
ENDBRANCH   6  11
BRANCH   1  24
ATOM     23  C   UNL     1       6.120   3.963  13.968  0.00  0.00    +0.000 C 
ATOM     24  O   UNL     1       7.044   4.512  14.898  0.00  0.00    +0.000 OA
ENDBRANCH   1  24
TORSDOF 5
ENDMDL
MODEL 3
REMARK VINA RESULT:      -7.1      1.042      1.236
REMARK  Name = 
REMARK  6 active torsions:
REMARK  status: ('A' for Active; 'I' for Inactive)
REMARK    1  A    between atoms: C_1  and  O_2
REMARK    2  A    between atoms: O_2  and  C_3
REMARK    3  A    between atoms: C_8  and  C_9
REMARK    4  A    between atoms: N_11  and  C_12
REMARK    5  A    between atoms: C_12  and  C_13
REMARK    6  A    between atoms: C_13  and  N_14
REMARK                            x       y       z     vdW  Elec       q    Type
REMARK                         _______ _______ _______ _____ _____    ______ ____
ROOT
ATOM      1  C   UNL     1       9.537  13.056  18.690  0.00  0.00    +0.000 A 
ATOM      2  C   UNL     1      10.109  12.560  19.863  0.00  0.00    +0.000 A 
ATOM      3  C   UNL     1      10.032  11.197  20.197  0.00  0.00    +0.000 A 
ATOM      4  C   UNL     1       9.355  10.350  19.315  0.00  0.00    +0.000 A 
ATOM      5  N   UNL     1       9.098   8.999  19.375  0.00  0.00    +0.000 N 
ATOM      6  C   UNL     1       8.356   8.589  18.283  0.00  0.00    +0.000 A 
ATOM      7  C   UNL     1       8.180   9.712  17.492  0.00  0.00    +0.000 A 
ATOM      8  C   UNL     1       8.785  10.818  18.134  0.00  0.00    +0.000 A 
ATOM      9  C   UNL     1       8.882  12.183  17.816  0.00  0.00    +0.000 A 
ATOM     10  H   UNL     1       9.376   8.378  20.125  0.00  0.00    +0.000 HD
ENDROOT
BRANCH   6  11
ATOM     11  C   UNL     1       7.889   7.232  18.119  0.00  0.00    +0.000 C 
ATOM     12  O   UNL     1       8.163   6.343  18.919  0.00  0.00    +0.000 OA
ATOM     13  N   UNL     1       7.103   7.016  17.010  0.00  0.00    +0.000 N 
ATOM     14  H   UNL     1       7.009   7.733  16.304  0.00  0.00    +0.000 HD
BRANCH  13  15
ATOM     15  C   UNL     1       6.559   5.712  16.701  0.00  0.00    +0.000 C 
BRANCH  15  16
ATOM     16  C   UNL     1       5.104   5.536  17.188  0.00  0.00    +0.000 C 
BRANCH  16  17
ATOM     17  N   UNL     1       4.778   4.187  17.705  0.00  0.00    +0.000 NA
ATOM     18  C   UNL     1       4.711   4.177  19.179  0.00  0.00    +0.000 C 
ATOM     19  C   UNL     1       4.416   2.777  19.714  0.00  0.00    +0.000 C 
ATOM     20  C   UNL     1       3.124   2.221  19.134  0.00  0.00    +0.000 C 
ATOM     21  C   UNL     1       3.145   2.313  17.614  0.00  0.00    +0.000 C 
ATOM     22  C   UNL     1       3.492   3.728  17.142  0.00  0.00    +0.000 C 
ENDBRANCH  16  17
ENDBRANCH  15  16
ENDBRANCH  13  15
ENDBRANCH   6  11
BRANCH   1  24
ATOM     23  C   UNL     1       8.283  14.969  18.053  0.00  0.00    +0.000 C 
ATOM     24  O   UNL     1       9.547  14.361  18.279  0.00  0.00    +0.000 OA
ENDBRANCH   1  24
TORSDOF 5
ENDMDL
MODEL 4
REMARK VINA RESULT:      -7.1      5.950      8.197
REMARK  Name = 
REMARK  6 active torsions:
REMARK  status: ('A' for Active; 'I' for Inactive)
REMARK    1  A    between atoms: C_1  and  O_2
REMARK    2  A    between atoms: O_2  and  C_3
REMARK    3  A    between atoms: C_8  and  C_9
REMARK    4  A    between atoms: N_11  and  C_12
REMARK    5  A    between atoms: C_12  and  C_13
REMARK    6  A    between atoms: C_13  and  N_14
REMARK                            x       y       z     vdW  Elec       q    Type
REMARK                         _______ _______ _______ _____ _____    ______ ____
ROOT
ATOM      1  C   UNL     1       6.295   4.310  16.105  0.00  0.00    +0.000 A 
ATOM      2  C   UNL     1       7.158   4.578  17.168  0.00  0.00    +0.000 A 
ATOM      3  C   UNL     1       6.675   5.019  18.412  0.00  0.00    +0.000 A 
ATOM      4  C   UNL     1       5.296   5.187  18.550  0.00  0.00    +0.000 A 
ATOM      5  N   UNL     1       4.537   5.618  19.615  0.00  0.00    +0.000 N 
ATOM      6  C   UNL     1       3.196   5.659  19.282  0.00  0.00    +0.000 A 
ATOM      7  C   UNL     1       3.108   5.199  17.979  0.00  0.00    +0.000 A 
ATOM      8  C   UNL     1       4.412   4.917  17.508  0.00  0.00    +0.000 A 
ATOM      9  C   UNL     1       4.916   4.469  16.276  0.00  0.00    +0.000 A 
ATOM     10  H   UNL     1       4.897   5.903  20.518  0.00  0.00    +0.000 HD
ENDROOT
BRANCH   6  11
ATOM     11  C   UNL     1       2.178   6.135  20.190  0.00  0.00    +0.000 C 
ATOM     12  O   UNL     1       1.506   5.373  20.879  0.00  0.00    +0.000 OA
ATOM     13  N   UNL     1       2.031   7.502  20.237  0.00  0.00    +0.000 N 
ATOM     14  H   UNL     1       2.503   8.089  19.563  0.00  0.00    +0.000 HD
BRANCH  13  15
ATOM     15  C   UNL     1       1.053   8.136  21.093  0.00  0.00    +0.000 C 
BRANCH  15  16
ATOM     16  C   UNL     1       0.937   9.657  20.849  0.00  0.00    +0.000 C 
BRANCH  16  17
ATOM     17  N   UNL     1      -0.248  10.074  20.065  0.00  0.00    +0.000 NA
ATOM     18  C   UNL     1      -0.693  11.430  20.441  0.00  0.00    +0.000 C 
ATOM     19  C   UNL     1      -1.941  11.844  19.663  0.00  0.00    +0.000 C 
ATOM     20  C   UNL     1      -1.706  11.775  18.161  0.00  0.00    +0.000 C 
ATOM     21  C   UNL     1      -1.157  10.408  17.773  0.00  0.00    +0.000 C 
ATOM     22  C   UNL     1       0.061  10.032  18.621  0.00  0.00    +0.000 C 
ENDBRANCH  16  17
ENDBRANCH  15  16
ENDBRANCH  13  15
ENDBRANCH   6  11
BRANCH   1  24
ATOM     23  C   UNL     1       7.071   4.891  13.938  0.00  0.00    +0.000 C 
ATOM     24  O   UNL     1       6.662   3.887  14.856  0.00  0.00    +0.000 OA
ENDBRANCH   1  24
TORSDOF 5
ENDMDL
MODEL 5
REMARK VINA RESULT:      -7.1      0.801      1.343
REMARK  Name = 
REMARK  6 active torsions:
REMARK  status: ('A' for Active; 'I' for Inactive)
REMARK    1  A    between atoms: C_1  and  O_2
REMARK    2  A    between atoms: O_2  and  C_3
REMARK    3  A    between atoms: C_8  and  C_9
REMARK    4  A    between atoms: N_11  and  C_12
REMARK    5  A    between atoms: C_12  and  C_13
REMARK    6  A    between atoms: C_13  and  N_14
REMARK                            x       y       z     vdW  Elec       q    Type
REMARK                         _______ _______ _______ _____ _____    ______ ____
ROOT
ATOM      1  C   UNL     1       9.797  13.264  18.771  0.00  0.00    +0.000 A 
ATOM      2  C   UNL     1      10.296  12.735  19.962  0.00  0.00    +0.000 A 
ATOM      3  C   UNL     1      10.146  11.375  20.281  0.00  0.00    +0.000 A 
ATOM      4  C   UNL     1       9.471  10.565  19.364  0.00  0.00    +0.000 A 
ATOM      5  N   UNL     1       9.152   9.226  19.402  0.00  0.00    +0.000 N 
ATOM      6  C   UNL     1       8.441   8.856  18.276  0.00  0.00    +0.000 A 
ATOM      7  C   UNL     1       8.348   9.991  17.488  0.00  0.00    +0.000 A 
ATOM      8  C   UNL     1       8.972  11.065  18.165  0.00  0.00    +0.000 A 
ATOM      9  C   UNL     1       9.142  12.427  17.862  0.00  0.00    +0.000 A 
ATOM     10  H   UNL     1       9.371   8.589  20.158  0.00  0.00    +0.000 HD
ENDROOT
BRANCH   6  11
ATOM     11  C   UNL     1       7.922   7.522  18.081  0.00  0.00    +0.000 C 
ATOM     12  O   UNL     1       7.986   6.660  18.951  0.00  0.00    +0.000 OA
ATOM     13  N   UNL     1       7.338   7.297  16.855  0.00  0.00    +0.000 N 
ATOM     14  H   UNL     1       7.421   7.982  16.117  0.00  0.00    +0.000 HD
BRANCH  13  15
ATOM     15  C   UNL     1       6.774   6.013  16.502  0.00  0.00    +0.000 C 
BRANCH  15  16
ATOM     16  C   UNL     1       5.239   6.055  16.335  0.00  0.00    +0.000 C 
BRANCH  16  17
ATOM     17  N   UNL     1       4.471   5.576  17.507  0.00  0.00    +0.000 NA
ATOM     18  C   UNL     1       3.462   6.565  17.930  0.00  0.00    +0.000 C 
ATOM     19  C   UNL     1       2.698   6.089  19.165  0.00  0.00    +0.000 C 
ATOM     20  C   UNL     1       2.032   4.744  18.921  0.00  0.00    +0.000 C 
ATOM     21  C   UNL     1       3.047   3.738  18.393  0.00  0.00    +0.000 C 
ATOM     22  C   UNL     1       3.812   4.293  17.188  0.00  0.00    +0.000 C 
ENDBRANCH  16  17
ENDBRANCH  15  16
ENDBRANCH  13  15
ENDBRANCH   6  11
BRANCH   1  24
ATOM     23  C   UNL     1      10.939  15.340  18.929  0.00  0.00    +0.000 C 
ATOM     24  O   UNL     1       9.882  14.570  18.372  0.00  0.00    +0.000 OA
ENDBRANCH   1  24
TORSDOF 5
ENDMDL
MODEL 6
REMARK VINA RESULT:      -7.0      5.543      7.673
REMARK  Name = 
REMARK  6 active torsions:
REMARK  status: ('A' for Active; 'I' for Inactive)
REMARK    1  A    between atoms: C_1  and  O_2
REMARK    2  A    between atoms: O_2  and  C_3
REMARK    3  A    between atoms: C_8  and  C_9
REMARK    4  A    between atoms: N_11  and  C_12
REMARK    5  A    between atoms: C_12  and  C_13
REMARK    6  A    between atoms: C_13  and  N_14
REMARK                            x       y       z     vdW  Elec       q    Type
REMARK                         _______ _______ _______ _____ _____    ______ ____
ROOT
ATOM      1  C   UNL     1      -0.663  11.311  21.723  0.00  0.00    +0.000 A 
ATOM      2  C   UNL     1      -0.525  10.506  22.854  0.00  0.00    +0.000 A 
ATOM      3  C   UNL     1       0.194   9.299  22.813  0.00  0.00    +0.000 A 
ATOM      4  C   UNL     1       0.766   8.927  21.594  0.00  0.00    +0.000 A 
ATOM      5  N   UNL     1       1.497   7.815  21.238  0.00  0.00    +0.000 N 
ATOM      6  C   UNL     1       1.833   7.853  19.898  0.00  0.00    +0.000 A 
ATOM      7  C   UNL     1       1.334   9.048  19.409  0.00  0.00    +0.000 A 
ATOM      8  C   UNL     1       0.653   9.717  20.453  0.00  0.00    +0.000 A 
ATOM      9  C   UNL     1      -0.063  10.924  20.520  0.00  0.00    +0.000 A 
ATOM     10  H   UNL     1       1.737   7.046  21.852  0.00  0.00    +0.000 HD
ENDROOT
BRANCH   6  11
ATOM     11  C   UNL     1       2.546   6.783  19.239  0.00  0.00    +0.000 C 
ATOM     12  O   UNL     1       2.664   6.729  18.018  0.00  0.00    +0.000 OA
ATOM     13  N   UNL     1       3.094   5.842  20.080  0.00  0.00    +0.000 N 
ATOM     14  H   UNL     1       2.865   5.844  21.065  0.00  0.00    +0.000 HD
BRANCH  13  15
ATOM     15  C   UNL     1       3.835   4.707  19.578  0.00  0.00    +0.000 C 
BRANCH  15  16
ATOM     16  C   UNL     1       5.344   4.996  19.418  0.00  0.00    +0.000 C 
BRANCH  16  17
ATOM     17  N   UNL     1       5.883   4.761  18.059  0.00  0.00    +0.000 NA
ATOM     18  C   UNL     1       4.903   4.063  17.204  0.00  0.00    +0.000 C 
ATOM     19  C   UNL     1       5.474   3.783  15.815  0.00  0.00    +0.000 C 
ATOM     20  C   UNL     1       5.932   5.064  15.135  0.00  0.00    +0.000 C 
ATOM     21  C   UNL     1       6.872   5.841  16.048  0.00  0.00    +0.000 C 
ATOM     22  C   UNL     1       6.263   6.046  17.437  0.00  0.00    +0.000 C 
ENDBRANCH  16  17
ENDBRANCH  15  16
ENDBRANCH  13  15
ENDBRANCH   6  11
BRANCH   1  24
ATOM     23  C   UNL     1      -1.851  12.867  20.379  0.00  0.00    +0.000 C 
ATOM     24  O   UNL     1      -1.347  12.494  21.655  0.00  0.00    +0.000 OA
ENDBRANCH   1  24
TORSDOF 5
ENDMDL
MODEL 7
REMARK VINA RESULT:      -7.0      5.648      7.739
REMARK  Name = 
REMARK  6 active torsions:
REMARK  status: ('A' for Active; 'I' for Inactive)
REMARK    1  A    between atoms: C_1  and  O_2
REMARK    2  A    between atoms: O_2  and  C_3
REMARK    3  A    between atoms: C_8  and  C_9
REMARK    4  A    between atoms: N_11  and  C_12
REMARK    5  A    between atoms: C_12  and  C_13
REMARK    6  A    between atoms: C_13  and  N_14
REMARK                            x       y       z     vdW  Elec       q    Type
REMARK                         _______ _______ _______ _____ _____    ______ ____
ROOT
ATOM      1  C   UNL     1      -0.671  11.284  21.862  0.00  0.00    +0.000 A 
ATOM      2  C   UNL     1      -0.503  10.470  22.983  0.00  0.00    +0.000 A 
ATOM      3  C   UNL     1       0.224   9.269  22.915  0.00  0.00    +0.000 A 
ATOM      4  C   UNL     1       0.773   8.912  21.681  0.00  0.00    +0.000 A 
ATOM      5  N   UNL     1       1.504   7.810  21.300  0.00  0.00    +0.000 N 
ATOM      6  C   UNL     1       1.812   7.862  19.953  0.00  0.00    +0.000 A 
ATOM      7  C   UNL     1       1.293   9.058  19.485  0.00  0.00    +0.000 A 
ATOM      8  C   UNL     1       0.629   9.712  20.550  0.00  0.00    +0.000 A 
ATOM      9  C   UNL     1      -0.094  10.912  20.643  0.00  0.00    +0.000 A 
ATOM     10  H   UNL     1       1.763   7.036  21.902  0.00  0.00    +0.000 HD
ENDROOT
BRANCH   6  11
ATOM     11  C   UNL     1       2.518   6.803  19.270  0.00  0.00    +0.000 C 
ATOM     12  O   UNL     1       2.691   6.809  18.055  0.00  0.00    +0.000 OA
ATOM     13  N   UNL     1       2.994   5.800  20.082  0.00  0.00    +0.000 N 
ATOM     14  H   UNL     1       2.719   5.758  21.054  0.00  0.00    +0.000 HD
BRANCH  13  15
ATOM     15  C   UNL     1       3.719   4.667  19.553  0.00  0.00    +0.000 C 
BRANCH  15  16
ATOM     16  C   UNL     1       5.205   4.982  19.271  0.00  0.00    +0.000 C 
BRANCH  16  17
ATOM     17  N   UNL     1       5.539   5.184  17.842  0.00  0.00    +0.000 NA
ATOM     18  C   UNL     1       6.994   5.340  17.647  0.00  0.00    +0.000 C 
ATOM     19  C   UNL     1       7.335   5.592  16.180  0.00  0.00    +0.000 C 
ATOM     20  C   UNL     1       6.811   4.475  15.289  0.00  0.00    +0.000 C 
ATOM     21  C   UNL     1       5.329   4.242  15.550  0.00  0.00    +0.000 C 
ATOM     22  C   UNL     1       5.046   4.045  17.042  0.00  0.00    +0.000 C 
ENDBRANCH  16  17
ENDBRANCH  15  16
ENDBRANCH  13  15
ENDBRANCH   6  11
BRANCH   1  24
ATOM     23  C   UNL     1      -1.337  13.263  22.993  0.00  0.00    +0.000 C 
ATOM     24  O   UNL     1      -1.365  12.463  21.819  0.00  0.00    +0.000 OA
ENDBRANCH   1  24
TORSDOF 5
ENDMDL
MODEL 8
REMARK VINA RESULT:      -7.0      5.918      8.316
REMARK  Name = 
REMARK  6 active torsions:
REMARK  status: ('A' for Active; 'I' for Inactive)
REMARK    1  A    between atoms: C_1  and  O_2
REMARK    2  A    between atoms: O_2  and  C_3
REMARK    3  A    between atoms: C_8  and  C_9
REMARK    4  A    between atoms: N_11  and  C_12
REMARK    5  A    between atoms: C_12  and  C_13
REMARK    6  A    between atoms: C_13  and  N_14
REMARK                            x       y       z     vdW  Elec       q    Type
REMARK                         _______ _______ _______ _____ _____    ______ ____
ROOT
ATOM      1  C   UNL     1       6.857   4.882  16.278  0.00  0.00    +0.000 A 
ATOM      2  C   UNL     1       7.491   4.684  17.505  0.00  0.00    +0.000 A 
ATOM      3  C   UNL     1       6.814   4.882  18.721  0.00  0.00    +0.000 A 
ATOM      4  C   UNL     1       5.480   5.291  18.662  0.00  0.00    +0.000 A 
ATOM      5  N   UNL     1       4.577   5.583  19.659  0.00  0.00    +0.000 N 
ATOM      6  C   UNL     1       3.366   5.985  19.127  0.00  0.00    +0.000 A 
ATOM      7  C   UNL     1       3.502   5.902  17.752  0.00  0.00    +0.000 A 
ATOM      8  C   UNL     1       4.821   5.486  17.451  0.00  0.00    +0.000 A 
ATOM      9  C   UNL     1       5.514   5.274  16.248  0.00  0.00    +0.000 A 
ATOM     10  H   UNL     1       4.764   5.546  20.654  0.00  0.00    +0.000 HD
ENDROOT
BRANCH   6  11
ATOM     11  C   UNL     1       2.254   6.412  19.945  0.00  0.00    +0.000 C 
ATOM     12  O   UNL     1       1.476   5.616  20.461  0.00  0.00    +0.000 OA
ATOM     13  N   UNL     1       2.145   7.773  20.115  0.00  0.00    +0.000 N 
ATOM     14  H   UNL     1       2.718   8.402  19.570  0.00  0.00    +0.000 HD
BRANCH  13  15
ATOM     15  C   UNL     1       1.085   8.362  20.902  0.00  0.00    +0.000 C 
BRANCH  15  16
ATOM     16  C   UNL     1       0.664   9.759  20.397  0.00  0.00    +0.000 C 
BRANCH  16  17
ATOM     17  N   UNL     1      -0.504  10.348  21.091  0.00  0.00    +0.000 NA
ATOM     18  C   UNL     1      -0.274  10.441  22.546  0.00  0.00    +0.000 C 
ATOM     19  C   UNL     1      -1.495  11.009  23.268  0.00  0.00    +0.000 C 
ATOM     20  C   UNL     1      -1.880  12.374  22.717  0.00  0.00    +0.000 C 
ATOM     21  C   UNL     1      -2.028  12.311  21.202  0.00  0.00    +0.000 C 
ATOM     22  C   UNL     1      -0.794  11.689  20.543  0.00  0.00    +0.000 C 
ENDBRANCH  16  17
ENDBRANCH  15  16
ENDBRANCH  13  15
ENDBRANCH   6  11
BRANCH   1  24
ATOM     23  C   UNL     1       6.554   4.359  13.981  0.00  0.00    +0.000 C 
ATOM     24  O   UNL     1       7.425   4.726  15.043  0.00  0.00    +0.000 OA
ENDBRANCH   1  24
TORSDOF 5
ENDMDL
MODEL 9
REMARK VINA RESULT:      -7.0      2.318      9.409
REMARK  Name = 
REMARK  6 active torsions:
REMARK  status: ('A' for Active; 'I' for Inactive)
REMARK    1  A    between atoms: C_1  and  O_2
REMARK    2  A    between atoms: O_2  and  C_3
REMARK    3  A    between atoms: C_8  and  C_9
REMARK    4  A    between atoms: N_11  and  C_12
REMARK    5  A    between atoms: C_12  and  C_13
REMARK    6  A    between atoms: C_13  and  N_14
REMARK                            x       y       z     vdW  Elec       q    Type
REMARK                         _______ _______ _______ _____ _____    ______ ____
ROOT
ATOM      1  C   UNL     1       2.308   3.760  18.690  0.00  0.00    +0.000 A 
ATOM      2  C   UNL     1       3.268   3.014  19.376  0.00  0.00    +0.000 A 
ATOM      3  C   UNL     1       4.619   3.398  19.396  0.00  0.00    +0.000 A 
ATOM      4  C   UNL     1       4.975   4.555  18.699  0.00  0.00    +0.000 A 
ATOM      5  N   UNL     1       6.196   5.164  18.518  0.00  0.00    +0.000 N 
ATOM      6  C   UNL     1       6.076   6.284  17.717  0.00  0.00    +0.000 A 
ATOM      7  C   UNL     1       4.729   6.404  17.422  0.00  0.00    +0.000 A 
ATOM      8  C   UNL     1       4.036   5.323  18.016  0.00  0.00    +0.000 A 
ATOM      9  C   UNL     1       2.689   4.924  18.016  0.00  0.00    +0.000 A 
ATOM     10  H   UNL     1       7.081   4.833  18.886  0.00  0.00    +0.000 HD
ENDROOT
BRANCH   6  11
ATOM     11  C   UNL     1       7.210   7.082  17.310  0.00  0.00    +0.000 C 
ATOM     12  O   UNL     1       7.904   6.788  16.342  0.00  0.00    +0.000 OA
ATOM     13  N   UNL     1       7.442   8.200  18.078  0.00  0.00    +0.000 N 
ATOM     14  H   UNL     1       6.938   8.338  18.943  0.00  0.00    +0.000 HD
BRANCH  13  15
ATOM     15  C   UNL     1       8.540   9.100  17.804  0.00  0.00    +0.000 C 
BRANCH  15  16
ATOM     16  C   UNL     1       8.157  10.586  17.976  0.00  0.00    +0.000 C 
BRANCH  16  17
ATOM     17  N   UNL     1       9.188  11.424  18.632  0.00  0.00    +0.000 NA
ATOM     18  C   UNL     1       9.484  10.944  19.995  0.00  0.00    +0.000 C 
ATOM     19  C   UNL     1      10.516  11.833  20.687  0.00  0.00    +0.000 C 
ATOM     20  C   UNL     1      11.802  11.922  19.880  0.00  0.00    +0.000 C 
ATOM     21  C   UNL     1      11.499  12.326  18.443  0.00  0.00    +0.000 C 
ATOM     22  C   UNL     1      10.424  11.428  17.823  0.00  0.00    +0.000 C 
ENDBRANCH  16  17
ENDBRANCH  15  16
ENDBRANCH  13  15
ENDBRANCH   6  11
BRANCH   1  24
ATOM     23  C   UNL     1       0.594   2.127  18.881  0.00  0.00    +0.000 C 
ATOM     24  O   UNL     1       0.974   3.468  18.601  0.00  0.00    +0.000 OA
ENDBRANCH   1  24
TORSDOF 5
ENDMDL
