MODEL 1
REMARK VINA RESULT:      -9.1      0.000      0.000
REMARK  Name = 
REMARK  9 active torsions:
REMARK  status: ('A' for Active; 'I' for Inactive)
REMARK    1  A    between atoms: C_1  and  C_2
REMARK    2  A    between atoms: C_2  and  O_3
REMARK    3  A    between atoms: O_3  and  C_4
REMARK    4  A    between atoms: C_4  and  C_6
REMARK    5  A    between atoms: C_7  and  C_8
REMARK    6  A    between atoms: C_8  and  C_9
REMARK    7  A    between atoms: N_16  and  C_17
REMARK    8  A    between atoms: C_20  and  C_21
REMARK    9  A    between atoms: C_32  and  O_33
REMARK                            x       y       z     vdW  Elec       q    Type
REMARK                         _______ _______ _______ _____ _____    ______ ____
ROOT
ATOM      1  C   UNL     1       4.386   4.306  16.859  0.00  0.00    +0.000 A 
ATOM      2  C   UNL     1       4.842   5.332  17.694  0.00  0.00    +0.000 A 
ATOM      3  N   UNL     1       5.939   5.935  17.074  0.00  0.00    +0.000 N 
ATOM      4  C   UNL     1       6.173   5.296  15.849  0.00  0.00    +0.000 A 
ATOM      5  C   UNL     1       7.194   5.464  14.884  0.00  0.00    +0.000 A 
ATOM      6  C   UNL     1       7.191   4.678  13.731  0.00  0.00    +0.000 A 
ATOM      7  C   UNL     1       6.221   3.714  13.552  0.00  0.00    +0.000 A 
ATOM      8  C   UNL     1       5.237   3.503  14.517  0.00  0.00    +0.000 A 
ATOM      9  C   UNL     1       5.210   4.295  15.692  0.00  0.00    +0.000 A 
ENDROOT
BRANCH   3  10
ATOM     10  C   UNL     1       6.744   7.001  17.584  0.00  0.00    +0.000 A 
ATOM     11  C   UNL     1       7.785   6.755  18.477  0.00  0.00    +0.000 A 
ATOM     12  C   UNL     1       8.613   7.801  18.903  0.00  0.00    +0.000 A 
ATOM     13  C   UNL     1       8.457   9.112  18.420  0.00  0.00    +0.000 A 
ATOM     14  C   UNL     1       7.403   9.338  17.521  0.00  0.00    +0.000 A 
ATOM     15  C   UNL     1       6.539   8.309  17.133  0.00  0.00    +0.000 A 
BRANCH  13  16
ATOM     16  C   UNL     1       9.357  10.208  18.851  0.00  0.00    +0.000 A 
ATOM     17  C   UNL     1       9.467  10.580  20.203  0.00  0.00    +0.000 A 
ATOM     18  C   UNL     1      10.286  11.641  20.603  0.00  0.00    +0.000 A 
ATOM     19  C   UNL     1      11.028  12.342  19.658  0.00  0.00    +0.000 A 
ATOM     20  C   UNL     1      10.957  11.980  18.317  0.00  0.00    +0.000 A 
ATOM     21  C   UNL     1      10.128  10.927  17.920  0.00  0.00    +0.000 A 
ENDBRANCH  13  16
ENDBRANCH   3  10
BRANCH   1  22
ATOM     22  C   UNL     1       3.296   3.386  17.183  0.00  0.00    +0.000 C 
ATOM     23  O   UNL     1       2.184   3.433  16.674  0.00  0.00    +0.000 OA
BRANCH  22  24
ATOM     24  O   UNL     1       3.624   2.576  18.229  0.00  0.00    +0.000 OA
BRANCH  24  26
ATOM     25  C   UNL     1       2.586   2.672  20.383  0.00  0.00    +0.000 C 
ATOM     26  C   UNL     1       2.522   2.070  18.990  0.00  0.00    +0.000 C 
ENDBRANCH  24  26
ENDBRANCH  22  24
ENDBRANCH   1  22
BRANCH   7  27
ATOM     27  O   UNL     1       6.209   2.924  12.438  0.00  0.00    +0.000 OA
ATOM     28  H   UNL     1       7.110   2.602  12.280  0.00  0.00    +0.000 HD
ENDBRANCH   7  27
BRANCH   2  29
ATOM     29  C   UNL     1       4.222   5.806  18.992  0.00  0.00    +0.000 C 
BRANCH  29  30
ATOM     30  C   UNL     1       3.176   6.908  18.895  0.00  0.00    +0.000 A 
ATOM     31  C   UNL     1       3.030   7.742  17.778  0.00  0.00    +0.000 A 
ATOM     32  C   UNL     1       2.133   8.816  17.787  0.00  0.00    +0.000 A 
ATOM     33  C   UNL     1       1.346   9.062  18.909  0.00  0.00    +0.000 A 
ATOM     34  C   UNL     1       1.453   8.223  20.014  0.00  0.00    +0.000 A 
ATOM     35 CL   UNL     1       0.468   8.509  21.397  0.00  0.00    +0.000 Cl
ATOM     36  C   UNL     1       2.359   7.159  20.014  0.00  0.00    +0.000 A 
ENDBRANCH  29  30
ENDBRANCH   2  29
TORSDOF 8
ENDMDL
MODEL 2
REMARK VINA RESULT:      -8.8      0.238      1.170
REMARK  Name = 
REMARK  9 active torsions:
REMARK  status: ('A' for Active; 'I' for Inactive)
REMARK    1  A    between atoms: C_1  and  C_2
REMARK    2  A    between atoms: C_2  and  O_3
REMARK    3  A    between atoms: O_3  and  C_4
REMARK    4  A    between atoms: C_4  and  C_6
REMARK    5  A    between atoms: C_7  and  C_8
REMARK    6  A    between atoms: C_8  and  C_9
REMARK    7  A    between atoms: N_16  and  C_17
REMARK    8  A    between atoms: C_20  and  C_21
REMARK    9  A    between atoms: C_32  and  O_33
REMARK                            x       y       z     vdW  Elec       q    Type
REMARK                         _______ _______ _______ _____ _____    ______ ____
ROOT
ATOM      1  C   UNL     1       4.463   4.309  16.874  0.00  0.00    +0.000 A 
ATOM      2  C   UNL     1       4.968   5.349  17.664  0.00  0.00    +0.000 A 
ATOM      3  N   UNL     1       6.049   5.916  16.986  0.00  0.00    +0.000 N 
ATOM      4  C   UNL     1       6.224   5.242  15.769  0.00  0.00    +0.000 A 
ATOM      5  C   UNL     1       7.209   5.367  14.761  0.00  0.00    +0.000 A 
ATOM      6  C   UNL     1       7.147   4.552  13.631  0.00  0.00    +0.000 A 
ATOM      7  C   UNL     1       6.155   3.600  13.515  0.00  0.00    +0.000 A 
ATOM      8  C   UNL     1       5.207   3.431  14.523  0.00  0.00    +0.000 A 
ATOM      9  C   UNL     1       5.240   4.254  15.677  0.00  0.00    +0.000 A 
ENDROOT
BRANCH   3  10
ATOM     10  C   UNL     1       6.892   6.981  17.435  0.00  0.00    +0.000 A 
ATOM     11  C   UNL     1       6.712   8.284  16.976  0.00  0.00    +0.000 A 
ATOM     12  C   UNL     1       7.495   9.328  17.487  0.00  0.00    +0.000 A 
ATOM     13  C   UNL     1       8.447   9.111  18.497  0.00  0.00    +0.000 A 
ATOM     14  C   UNL     1       8.612   7.791  18.946  0.00  0.00    +0.000 A 
ATOM     15  C   UNL     1       7.872   6.737  18.402  0.00  0.00    +0.000 A 
BRANCH  13  16
ATOM     16  C   UNL     1       9.249  10.226  19.055  0.00  0.00    +0.000 A 
ATOM     17  C   UNL     1      10.098  10.999  18.243  0.00  0.00    +0.000 A 
ATOM     18  C   UNL     1      10.885  12.025  18.778  0.00  0.00    +0.000 A 
ATOM     19  C   UNL     1      10.826  12.309  20.138  0.00  0.00    +0.000 A 
ATOM     20  C   UNL     1       9.977  11.575  20.962  0.00  0.00    +0.000 A 
ATOM     21  C   UNL     1       9.202  10.544  20.425  0.00  0.00    +0.000 A 
ENDBRANCH  13  16
ENDBRANCH   3  10
BRANCH   1  22
ATOM     22  C   UNL     1       3.372   3.417  17.265  0.00  0.00    +0.000 C 
ATOM     23  O   UNL     1       2.282   3.381  16.710  0.00  0.00    +0.000 OA
BRANCH  22  24
ATOM     24  O   UNL     1       3.666   2.747  18.416  0.00  0.00    +0.000 OA
BRANCH  24  26
ATOM     25  C   UNL     1       2.917   2.822  20.688  0.00  0.00    +0.000 C 
ATOM     26  C   UNL     1       2.549   2.449  19.262  0.00  0.00    +0.000 C 
ENDBRANCH  24  26
ENDBRANCH  22  24
ENDBRANCH   1  22
BRANCH   7  27
ATOM     27  O   UNL     1       6.086   2.783  12.424  0.00  0.00    +0.000 OA
ATOM     28  H   UNL     1       5.732   3.293  11.678  0.00  0.00    +0.000 HD
ENDBRANCH   7  27
BRANCH   2  29
ATOM     29  C   UNL     1       4.408   5.866  18.972  0.00  0.00    +0.000 C 
BRANCH  29  30
ATOM     30  C   UNL     1       3.319   6.926  18.884  0.00  0.00    +0.000 A 
ATOM     31  C   UNL     1       3.142   7.767  17.777  0.00  0.00    +0.000 A 
ATOM     32  C   UNL     1       2.203   8.804  17.796  0.00  0.00    +0.000 A 
ATOM     33  C   UNL     1       1.404   9.005  18.918  0.00  0.00    +0.000 A 
ATOM     34  C   UNL     1       1.541   8.157  20.013  0.00  0.00    +0.000 A 
ATOM     35 CL   UNL     1       0.541   8.387  21.396  0.00  0.00    +0.000 Cl
ATOM     36  C   UNL     1       2.488   7.131  20.003  0.00  0.00    +0.000 A 
ENDBRANCH  29  30
ENDBRANCH   2  29
TORSDOF 8
ENDMDL
MODEL 3
REMARK VINA RESULT:      -8.0      1.061      1.702
REMARK  Name = 
REMARK  9 active torsions:
REMARK  status: ('A' for Active; 'I' for Inactive)
REMARK    1  A    between atoms: C_1  and  C_2
REMARK    2  A    between atoms: C_2  and  O_3
REMARK    3  A    between atoms: O_3  and  C_4
REMARK    4  A    between atoms: C_4  and  C_6
REMARK    5  A    between atoms: C_7  and  C_8
REMARK    6  A    between atoms: C_8  and  C_9
REMARK    7  A    between atoms: N_16  and  C_17
REMARK    8  A    between atoms: C_20  and  C_21
REMARK    9  A    between atoms: C_32  and  O_33
REMARK                            x       y       z     vdW  Elec       q    Type
REMARK                         _______ _______ _______ _____ _____    ______ ____
ROOT
ATOM      1  C   UNL     1       4.789   3.920  17.124  0.00  0.00    +0.000 A 
ATOM      2  C   UNL     1       5.323   4.931  17.931  0.00  0.00    +0.000 A 
ATOM      3  N   UNL     1       6.238   5.655  17.164  0.00  0.00    +0.000 N 
ATOM      4  C   UNL     1       6.280   5.107  15.875  0.00  0.00    +0.000 A 
ATOM      5  C   UNL     1       7.086   5.412  14.752  0.00  0.00    +0.000 A 
ATOM      6  C   UNL     1       6.919   4.694  13.567  0.00  0.00    +0.000 A 
ATOM      7  C   UNL     1       6.001   3.666  13.502  0.00  0.00    +0.000 A 
ATOM      8  C   UNL     1       5.235   3.321  14.615  0.00  0.00    +0.000 A 
ATOM      9  C   UNL     1       5.377   4.042  15.828  0.00  0.00    +0.000 A 
ENDROOT
BRANCH   3  10
ATOM     10  C   UNL     1       7.050   6.753  17.590  0.00  0.00    +0.000 A 
ATOM     11  C   UNL     1       6.900   8.019  17.029  0.00  0.00    +0.000 A 
ATOM     12  C   UNL     1       7.648   9.100  17.514  0.00  0.00    +0.000 A 
ATOM     13  C   UNL     1       8.533   8.960  18.597  0.00  0.00    +0.000 A 
ATOM     14  C   UNL     1       8.668   7.676  19.148  0.00  0.00    +0.000 A 
ATOM     15  C   UNL     1       7.965   6.582  18.634  0.00  0.00    +0.000 A 
BRANCH  13  16
ATOM     16  C   UNL     1       9.297  10.115  19.125  0.00  0.00    +0.000 A 
ATOM     17  C   UNL     1       9.218  10.494  20.477  0.00  0.00    +0.000 A 
ATOM     18  C   UNL     1       9.908  11.609  20.964  0.00  0.00    +0.000 A 
ATOM     19  C   UNL     1      10.709  12.360  20.110  0.00  0.00    +0.000 A 
ATOM     20  C   UNL     1      10.824  11.993  18.772  0.00  0.00    +0.000 A 
ATOM     21  C   UNL     1      10.124  10.886  18.287  0.00  0.00    +0.000 A 
ENDBRANCH  13  16
ENDBRANCH   3  10
BRANCH   1  22
ATOM     22  C   UNL     1       3.847   2.898  17.578  0.00  0.00    +0.000 C 
ATOM     23  O   UNL     1       4.152   1.953  18.294  0.00  0.00    +0.000 OA
BRANCH  22  24
ATOM     24  O   UNL     1       2.630   3.042  16.981  0.00  0.00    +0.000 OA
BRANCH  24  26
ATOM     25  C   UNL     1       0.976   3.013  18.711  0.00  0.00    +0.000 C 
ATOM     26  C   UNL     1       1.691   3.868  17.679  0.00  0.00    +0.000 C 
ENDBRANCH  24  26
ENDBRANCH  22  24
ENDBRANCH   1  22
BRANCH   7  27
ATOM     27  O   UNL     1       5.834   2.942  12.357  0.00  0.00    +0.000 OA
ATOM     28  H   UNL     1       6.246   3.426  11.624  0.00  0.00    +0.000 HD
ENDBRANCH   7  27
BRANCH   2  29
ATOM     29  C   UNL     1       4.928   5.279  19.352  0.00  0.00    +0.000 C 
BRANCH  29  30
ATOM     30  C   UNL     1       3.677   6.128  19.531  0.00  0.00    +0.000 A 
ATOM     31  C   UNL     1       2.700   5.873  20.504  0.00  0.00    +0.000 A 
ATOM     32  C   UNL     1       1.512   6.611  20.549  0.00  0.00    +0.000 A 
ATOM     33  C   UNL     1       1.290   7.637  19.634  0.00  0.00    +0.000 A 
ATOM     34  C   UNL     1       2.264   7.926  18.684  0.00  0.00    +0.000 A 
ATOM     35 CL   UNL     1       2.004   9.207  17.563  0.00  0.00    +0.000 Cl
ATOM     36  C   UNL     1       3.444   7.181  18.626  0.00  0.00    +0.000 A 
ENDBRANCH  29  30
ENDBRANCH   2  29
TORSDOF 8
ENDMDL
MODEL 4
REMARK VINA RESULT:      -8.0      5.714      9.462
REMARK  Name = 
REMARK  9 active torsions:
REMARK  status: ('A' for Active; 'I' for Inactive)
REMARK    1  A    between atoms: C_1  and  C_2
REMARK    2  A    between atoms: C_2  and  O_3
REMARK    3  A    between atoms: O_3  and  C_4
REMARK    4  A    between atoms: C_4  and  C_6
REMARK    5  A    between atoms: C_7  and  C_8
REMARK    6  A    between atoms: C_8  and  C_9
REMARK    7  A    between atoms: N_16  and  C_17
REMARK    8  A    between atoms: C_20  and  C_21
REMARK    9  A    between atoms: C_32  and  O_33
REMARK                            x       y       z     vdW  Elec       q    Type
REMARK                         _______ _______ _______ _____ _____    ______ ____
ROOT
ATOM      1  C   UNL     1      -1.509  12.458  20.037  0.00  0.00    +0.000 A 
ATOM      2  C   UNL     1      -0.285  11.789  20.150  0.00  0.00    +0.000 A 
ATOM      3  N   UNL     1      -0.323  10.677  19.307  0.00  0.00    +0.000 N 
ATOM      4  C   UNL     1      -1.565  10.645  18.658  0.00  0.00    +0.000 A 
ATOM      5  C   UNL     1      -2.137   9.699  17.774  0.00  0.00    +0.000 A 
ATOM      6  C   UNL     1      -3.419   9.916  17.266  0.00  0.00    +0.000 A 
ATOM      7  C   UNL     1      -4.141  11.025  17.656  0.00  0.00    +0.000 A 
ATOM      8  C   UNL     1      -3.610  11.940  18.564  0.00  0.00    +0.000 A 
ATOM      9  C   UNL     1      -2.306  11.750  19.087  0.00  0.00    +0.000 A 
ENDROOT
BRANCH   3  10
ATOM     10  C   UNL     1       0.693   9.686  19.131  0.00  0.00    +0.000 A 
ATOM     11  C   UNL     1       0.960   8.743  20.122  0.00  0.00    +0.000 A 
ATOM     12  C   UNL     1       1.904   7.732  19.899  0.00  0.00    +0.000 A 
ATOM     13  C   UNL     1       2.576   7.606  18.672  0.00  0.00    +0.000 A 
ATOM     14  C   UNL     1       2.293   8.565  17.687  0.00  0.00    +0.000 A 
ATOM     15  C   UNL     1       1.392   9.608  17.922  0.00  0.00    +0.000 A 
BRANCH  13  16
ATOM     16  C   UNL     1       3.551   6.514  18.433  0.00  0.00    +0.000 A 
ATOM     17  C   UNL     1       4.221   6.382  17.204  0.00  0.00    +0.000 A 
ATOM     18  C   UNL     1       5.110   5.328  16.967  0.00  0.00    +0.000 A 
ATOM     19  C   UNL     1       5.359   4.391  17.964  0.00  0.00    +0.000 A 
ATOM     20  C   UNL     1       4.727   4.510  19.198  0.00  0.00    +0.000 A 
ATOM     21  C   UNL     1       3.831   5.558  19.427  0.00  0.00    +0.000 A 
ENDBRANCH  13  16
ENDBRANCH   3  10
BRANCH   1  22
ATOM     22  C   UNL     1      -1.894  13.634  20.817  0.00  0.00    +0.000 C 
ATOM     23  O   UNL     1      -1.852  14.782  20.393  0.00  0.00    +0.000 OA
BRANCH  22  24
ATOM     24  O   UNL     1      -2.154  13.307  22.114  0.00  0.00    +0.000 OA
BRANCH  24  26
ATOM     25  C   UNL     1      -3.591  12.493  23.847  0.00  0.00    +0.000 C 
ATOM     26  C   UNL     1      -3.399  12.639  22.347  0.00  0.00    +0.000 C 
ENDBRANCH  24  26
ENDBRANCH  22  24
ENDBRANCH   1  22
BRANCH   7  27
ATOM     27  O   UNL     1      -5.402  11.247  17.183  0.00  0.00    +0.000 OA
ATOM     28  H   UNL     1      -5.361  11.310  16.215  0.00  0.00    +0.000 HD
ENDBRANCH   7  27
BRANCH   2  29
ATOM     29  C   UNL     1       0.928  12.219  20.950  0.00  0.00    +0.000 C 
BRANCH  29  30
ATOM     30  C   UNL     1       1.903  13.167  20.267  0.00  0.00    +0.000 A 
ATOM     31  C   UNL     1       2.246  13.083  18.910  0.00  0.00    +0.000 A 
ATOM     32  C   UNL     1       3.236  13.903  18.359  0.00  0.00    +0.000 A 
ATOM     33  C   UNL     1       3.890  14.842  19.154  0.00  0.00    +0.000 A 
ATOM     34  C   UNL     1       3.538  14.963  20.494  0.00  0.00    +0.000 A 
ATOM     35 CL   UNL     1       4.327  16.136  21.478  0.00  0.00    +0.000 Cl
ATOM     36  C   UNL     1       2.560  14.135  21.051  0.00  0.00    +0.000 A 
ENDBRANCH  29  30
ENDBRANCH   2  29
TORSDOF 8
ENDMDL
MODEL 5
REMARK VINA RESULT:      -7.8      5.731      9.658
REMARK  Name = 
REMARK  9 active torsions:
REMARK  status: ('A' for Active; 'I' for Inactive)
REMARK    1  A    between atoms: C_1  and  C_2
REMARK    2  A    between atoms: C_2  and  O_3
REMARK    3  A    between atoms: O_3  and  C_4
REMARK    4  A    between atoms: C_4  and  C_6
REMARK    5  A    between atoms: C_7  and  C_8
REMARK    6  A    between atoms: C_8  and  C_9
REMARK    7  A    between atoms: N_16  and  C_17
REMARK    8  A    between atoms: C_20  and  C_21
REMARK    9  A    between atoms: C_32  and  O_33
REMARK                            x       y       z     vdW  Elec       q    Type
REMARK                         _______ _______ _______ _____ _____    ______ ____
ROOT
ATOM      1  C   UNL     1      -1.442  12.505  19.916  0.00  0.00    +0.000 A 
ATOM      2  C   UNL     1      -0.224  11.828  20.046  0.00  0.00    +0.000 A 
ATOM      3  N   UNL     1      -0.274  10.693  19.234  0.00  0.00    +0.000 N 
ATOM      4  C   UNL     1      -1.518  10.654  18.589  0.00  0.00    +0.000 A 
ATOM      5  C   UNL     1      -2.100   9.689  17.734  0.00  0.00    +0.000 A 
ATOM      6  C   UNL     1      -3.381   9.902  17.223  0.00  0.00    +0.000 A 
ATOM      7  C   UNL     1      -4.092  11.028  17.582  0.00  0.00    +0.000 A 
ATOM      8  C   UNL     1      -3.552  11.964  18.463  0.00  0.00    +0.000 A 
ATOM      9  C   UNL     1      -2.248  11.777  18.988  0.00  0.00    +0.000 A 
ENDROOT
BRANCH   3  10
ATOM     10  C   UNL     1       0.733   9.690  19.084  0.00  0.00    +0.000 A 
ATOM     11  C   UNL     1       0.984   8.764  20.095  0.00  0.00    +0.000 A 
ATOM     12  C   UNL     1       1.919   7.739  19.898  0.00  0.00    +0.000 A 
ATOM     13  C   UNL     1       2.598   7.582  18.678  0.00  0.00    +0.000 A 
ATOM     14  C   UNL     1       2.330   8.524  17.673  0.00  0.00    +0.000 A 
ATOM     15  C   UNL     1       1.439   9.581  17.882  0.00  0.00    +0.000 A 
BRANCH  13  16
ATOM     16  C   UNL     1       3.563   6.476  18.467  0.00  0.00    +0.000 A 
ATOM     17  C   UNL     1       4.278   6.343  17.264  0.00  0.00    +0.000 A 
ATOM     18  C   UNL     1       5.158   5.276  17.051  0.00  0.00    +0.000 A 
ATOM     19  C   UNL     1       5.353   4.326  18.049  0.00  0.00    +0.000 A 
ATOM     20  C   UNL     1       4.675   4.446  19.258  0.00  0.00    +0.000 A 
ATOM     21  C   UNL     1       3.789   5.507  19.462  0.00  0.00    +0.000 A 
ENDBRANCH  13  16
ENDBRANCH   3  10
BRANCH   1  22
ATOM     22  C   UNL     1      -1.815  13.706  20.663  0.00  0.00    +0.000 C 
ATOM     23  O   UNL     1      -2.580  13.710  21.619  0.00  0.00    +0.000 OA
BRANCH  22  24
ATOM     24  O   UNL     1      -1.330  14.832  20.067  0.00  0.00    +0.000 OA
BRANCH  24  26
ATOM     25  C   UNL     1      -0.238  16.927  20.453  0.00  0.00    +0.000 C 
ATOM     26  C   UNL     1      -1.393  16.026  20.855  0.00  0.00    +0.000 C 
ENDBRANCH  24  26
ENDBRANCH  22  24
ENDBRANCH   1  22
BRANCH   7  27
ATOM     27  O   UNL     1      -5.353  11.248  17.106  0.00  0.00    +0.000 OA
ATOM     28  H   UNL     1      -5.304  11.350  16.142  0.00  0.00    +0.000 HD
ENDBRANCH   7  27
BRANCH   2  29
ATOM     29  C   UNL     1       0.994  12.270  20.830  0.00  0.00    +0.000 C 
BRANCH  29  30
ATOM     30  C   UNL     1       1.926  13.267  20.154  0.00  0.00    +0.000 A 
ATOM     31  C   UNL     1       2.414  13.111  18.850  0.00  0.00    +0.000 A 
ATOM     32  C   UNL     1       3.361  13.994  18.319  0.00  0.00    +0.000 A 
ATOM     33  C   UNL     1       3.821  15.067  19.078  0.00  0.00    +0.000 A 
ATOM     34  C   UNL     1       3.320  15.258  20.362  0.00  0.00    +0.000 A 
ATOM     35 CL   UNL     1       3.869  16.595  21.298  0.00  0.00    +0.000 Cl
ATOM     36  C   UNL     1       2.386  14.369  20.900  0.00  0.00    +0.000 A 
ENDBRANCH  29  30
ENDBRANCH   2  29
TORSDOF 8
ENDMDL
MODEL 6
REMARK VINA RESULT:      -7.8      5.697      9.575
REMARK  Name = 
REMARK  9 active torsions:
REMARK  status: ('A' for Active; 'I' for Inactive)
REMARK    1  A    between atoms: C_1  and  C_2
REMARK    2  A    between atoms: C_2  and  O_3
REMARK    3  A    between atoms: O_3  and  C_4
REMARK    4  A    between atoms: C_4  and  C_6
REMARK    5  A    between atoms: C_7  and  C_8
REMARK    6  A    between atoms: C_8  and  C_9
REMARK    7  A    between atoms: N_16  and  C_17
REMARK    8  A    between atoms: C_20  and  C_21
REMARK    9  A    between atoms: C_32  and  O_33
REMARK                            x       y       z     vdW  Elec       q    Type
REMARK                         _______ _______ _______ _____ _____    ______ ____
ROOT
ATOM      1  C   UNL     1      -1.216  12.503  20.177  0.00  0.00    +0.000 A 
ATOM      2  C   UNL     1      -0.034  11.752  20.173  0.00  0.00    +0.000 A 
ATOM      3  N   UNL     1      -0.232  10.644  19.346  0.00  0.00    +0.000 N 
ATOM      4  C   UNL     1      -1.532  10.696  18.824  0.00  0.00    +0.000 A 
ATOM      5  C   UNL     1      -2.252   9.790  18.009  0.00  0.00    +0.000 A 
ATOM      6  C   UNL     1      -3.560  10.093  17.630  0.00  0.00    +0.000 A 
ATOM      7  C   UNL     1      -4.163  11.249  18.081  0.00  0.00    +0.000 A 
ATOM      8  C   UNL     1      -3.484  12.126  18.925  0.00  0.00    +0.000 A 
ATOM      9  C   UNL     1      -2.150  11.849  19.316  0.00  0.00    +0.000 A 
ENDROOT
BRANCH   3  10
ATOM     10  C   UNL     1       0.693   9.587  19.077  0.00  0.00    +0.000 A 
ATOM     11  C   UNL     1       1.393   9.530  17.874  0.00  0.00    +0.000 A 
ATOM     12  C   UNL     1       2.352   8.533  17.661  0.00  0.00    +0.000 A 
ATOM     13  C   UNL     1       2.673   7.591  18.654  0.00  0.00    +0.000 A 
ATOM     14  C   UNL     1       1.957   7.667  19.859  0.00  0.00    +0.000 A 
ATOM     15  C   UNL     1       0.960   8.626  20.057  0.00  0.00    +0.000 A 
BRANCH  13  16
ATOM     16  C   UNL     1       3.713   6.558  18.432  0.00  0.00    +0.000 A 
ATOM     17  C   UNL     1       3.929   5.522  19.358  0.00  0.00    +0.000 A 
ATOM     18  C   UNL     1       4.938   4.571  19.167  0.00  0.00    +0.000 A 
ATOM     19  C   UNL     1       5.742   4.628  18.033  0.00  0.00    +0.000 A 
ATOM     20  C   UNL     1       5.534   5.629  17.089  0.00  0.00    +0.000 A 
ATOM     21  C   UNL     1       4.534   6.583  17.290  0.00  0.00    +0.000 A 
ENDBRANCH  13  16
ENDBRANCH   3  10
BRANCH   1  22
ATOM     22  C   UNL     1      -1.441  13.703  20.981  0.00  0.00    +0.000 C 
ATOM     23  O   UNL     1      -1.627  13.694  22.191  0.00  0.00    +0.000 OA
BRANCH  22  24
ATOM     24  O   UNL     1      -1.572  14.810  20.197  0.00  0.00    +0.000 OA
BRANCH  24  26
ATOM     25  C   UNL     1      -0.291  16.126  18.662  0.00  0.00    +0.000 C 
ATOM     26  C   UNL     1      -0.409  15.639  20.096  0.00  0.00    +0.000 C 
ENDBRANCH  24  26
ENDBRANCH  22  24
ENDBRANCH   1  22
BRANCH   7  27
ATOM     27  O   UNL     1      -5.447  11.555  17.734  0.00  0.00    +0.000 OA
ATOM     28  H   UNL     1      -5.598  11.263  16.821  0.00  0.00    +0.000 HD
ENDBRANCH   7  27
BRANCH   2  29
ATOM     29  C   UNL     1       1.278  12.100  20.844  0.00  0.00    +0.000 C 
BRANCH  29  30
ATOM     30  C   UNL     1       2.157  13.129  20.148  0.00  0.00    +0.000 A 
ATOM     31  C   UNL     1       2.201  13.298  18.757  0.00  0.00    +0.000 A 
ATOM     32  C   UNL     1       3.113  14.176  18.161  0.00  0.00    +0.000 A 
ATOM     33  C   UNL     1       3.986  14.920  18.950  0.00  0.00    +0.000 A 
ATOM     34  C   UNL     1       3.933  14.792  20.334  0.00  0.00    +0.000 A 
ATOM     35 CL   UNL     1       4.995  15.726  21.316  0.00  0.00    +0.000 Cl
ATOM     36  C   UNL     1       3.033  13.905  20.931  0.00  0.00    +0.000 A 
ENDBRANCH  29  30
ENDBRANCH   2  29
TORSDOF 8
ENDMDL
MODEL 7
REMARK VINA RESULT:      -7.8      5.713      9.485
REMARK  Name = 
REMARK  9 active torsions:
REMARK  status: ('A' for Active; 'I' for Inactive)
REMARK    1  A    between atoms: C_1  and  C_2
REMARK    2  A    between atoms: C_2  and  O_3
REMARK    3  A    between atoms: O_3  and  C_4
REMARK    4  A    between atoms: C_4  and  C_6
REMARK    5  A    between atoms: C_7  and  C_8
REMARK    6  A    between atoms: C_8  and  C_9
REMARK    7  A    between atoms: N_16  and  C_17
REMARK    8  A    between atoms: C_20  and  C_21
REMARK    9  A    between atoms: C_32  and  O_33
REMARK                            x       y       z     vdW  Elec       q    Type
REMARK                         _______ _______ _______ _____ _____    ______ ____
ROOT
ATOM      1  C   UNL     1      -1.722  12.300  20.047  0.00  0.00    +0.000 A 
ATOM      2  C   UNL     1      -0.500  11.641  20.222  0.00  0.00    +0.000 A 
ATOM      3  N   UNL     1      -0.424  10.618  19.275  0.00  0.00    +0.000 N 
ATOM      4  C   UNL     1      -1.592  10.633  18.499  0.00  0.00    +0.000 A 
ATOM      5  C   UNL     1      -2.046   9.772  17.472  0.00  0.00    +0.000 A 
ATOM      6  C   UNL     1      -3.273  10.020  16.857  0.00  0.00    +0.000 A 
ATOM      7  C   UNL     1      -4.059  11.074  17.275  0.00  0.00    +0.000 A 
ATOM      8  C   UNL     1      -3.647  11.901  18.318  0.00  0.00    +0.000 A 
ATOM      9  C   UNL     1      -2.400  11.679  18.954  0.00  0.00    +0.000 A 
ENDROOT
BRANCH   3  10
ATOM     10  C   UNL     1       0.629   9.664  19.111  0.00  0.00    +0.000 A 
ATOM     11  C   UNL     1       0.929   8.742  20.111  0.00  0.00    +0.000 A 
ATOM     12  C   UNL     1       1.910   7.765  19.901  0.00  0.00    +0.000 A 
ATOM     13  C   UNL     1       2.590   7.652  18.676  0.00  0.00    +0.000 A 
ATOM     14  C   UNL     1       2.273   8.590  17.682  0.00  0.00    +0.000 A 
ATOM     15  C   UNL     1       1.333   9.601  17.904  0.00  0.00    +0.000 A 
BRANCH  13  16
ATOM     16  C   UNL     1       3.605   6.595  18.450  0.00  0.00    +0.000 A 
ATOM     17  C   UNL     1       3.846   5.591  19.405  0.00  0.00    +0.000 A 
ATOM     18  C   UNL     1       4.833   4.618  19.208  0.00  0.00    +0.000 A 
ATOM     19  C   UNL     1       5.589   4.621  18.041  0.00  0.00    +0.000 A 
ATOM     20  C   UNL     1       5.356   5.590  17.069  0.00  0.00    +0.000 A 
ATOM     21  C   UNL     1       4.378   6.566  17.275  0.00  0.00    +0.000 A 
ENDBRANCH  13  16
ENDBRANCH   3  10
BRANCH   1  22
ATOM     22  C   UNL     1      -2.214  13.387  20.893  0.00  0.00    +0.000 C 
ATOM     23  O   UNL     1      -2.096  14.575  20.621  0.00  0.00    +0.000 OA
BRANCH  22  24
ATOM     24  O   UNL     1      -2.677  12.918  22.086  0.00  0.00    +0.000 OA
BRANCH  24  26
ATOM     25  C   UNL     1      -4.681  13.719  23.123  0.00  0.00    +0.000 C 
ATOM     26  C   UNL     1      -4.091  12.702  22.161  0.00  0.00    +0.000 C 
ENDBRANCH  24  26
ENDBRANCH  22  24
ENDBRANCH   1  22
BRANCH   7  27
ATOM     27  O   UNL     1      -5.269  11.324  16.696  0.00  0.00    +0.000 OA
ATOM     28  H   UNL     1      -5.763  11.934  17.266  0.00  0.00    +0.000 HD
ENDBRANCH   7  27
BRANCH   2  29
ATOM     29  C   UNL     1       0.613  12.006  21.183  0.00  0.00    +0.000 C 
BRANCH  29  30
ATOM     30  C   UNL     1       1.420  13.256  20.859  0.00  0.00    +0.000 A 
ATOM     31  C   UNL     1       1.310  14.457  21.574  0.00  0.00    +0.000 A 
ATOM     32  C   UNL     1       1.986  15.611  21.163  0.00  0.00    +0.000 A 
ATOM     33  C   UNL     1       2.805  15.579  20.037  0.00  0.00    +0.000 A 
ATOM     34  C   UNL     1       2.953  14.387  19.336  0.00  0.00    +0.000 A 
ATOM     35 CL   UNL     1       3.980  14.334  17.955  0.00  0.00    +0.000 Cl
ATOM     36  C   UNL     1       2.267  13.236  19.735  0.00  0.00    +0.000 A 
ENDBRANCH  29  30
ENDBRANCH   2  29
TORSDOF 8
ENDMDL
MODEL 8
REMARK VINA RESULT:      -7.8      2.628      6.880
REMARK  Name = 
REMARK  9 active torsions:
REMARK  status: ('A' for Active; 'I' for Inactive)
REMARK    1  A    between atoms: C_1  and  C_2
REMARK    2  A    between atoms: C_2  and  O_3
REMARK    3  A    between atoms: O_3  and  C_4
REMARK    4  A    between atoms: C_4  and  C_6
REMARK    5  A    between atoms: C_7  and  C_8
REMARK    6  A    between atoms: C_8  and  C_9
REMARK    7  A    between atoms: N_16  and  C_17
REMARK    8  A    between atoms: C_20  and  C_21
REMARK    9  A    between atoms: C_32  and  O_33
REMARK                            x       y       z     vdW  Elec       q    Type
REMARK                         _______ _______ _______ _____ _____    ______ ____
ROOT
ATOM      1  C   UNL     1       4.380   4.596  16.975  0.00  0.00    +0.000 A 
ATOM      2  C   UNL     1       4.194   5.971  17.157  0.00  0.00    +0.000 A 
ATOM      3  N   UNL     1       3.090   6.148  17.994  0.00  0.00    +0.000 N 
ATOM      4  C   UNL     1       2.582   4.890  18.344  0.00  0.00    +0.000 A 
ATOM      5  C   UNL     1       1.443   4.515  19.095  0.00  0.00    +0.000 A 
ATOM      6  C   UNL     1       1.162   3.163  19.294  0.00  0.00    +0.000 A 
ATOM      7  C   UNL     1       1.966   2.196  18.727  0.00  0.00    +0.000 A 
ATOM      8  C   UNL     1       3.063   2.550  17.943  0.00  0.00    +0.000 A 
ATOM      9  C   UNL     1       3.379   3.916  17.735  0.00  0.00    +0.000 A 
ENDROOT
BRANCH   3  10
ATOM     10  C   UNL     1       2.514   7.387  18.417  0.00  0.00    +0.000 A 
ATOM     11  C   UNL     1       2.254   8.409  17.507  0.00  0.00    +0.000 A 
ATOM     12  C   UNL     1       1.616   9.584  17.926  0.00  0.00    +0.000 A 
ATOM     13  C   UNL     1       1.181   9.756  19.252  0.00  0.00    +0.000 A 
ATOM     14  C   UNL     1       1.452   8.714  20.152  0.00  0.00    +0.000 A 
ATOM     15  C   UNL     1       2.136   7.562  19.752  0.00  0.00    +0.000 A 
BRANCH  13  16
ATOM     16  C   UNL     1       0.478  10.989  19.680  0.00  0.00    +0.000 A 
ATOM     17  C   UNL     1      -0.526  11.575  18.891  0.00  0.00    +0.000 A 
ATOM     18  C   UNL     1      -1.160  12.761  19.277  0.00  0.00    +0.000 A 
ATOM     19  C   UNL     1      -0.811  13.377  20.475  0.00  0.00    +0.000 A 
ATOM     20  C   UNL     1       0.163  12.806  21.288  0.00  0.00    +0.000 A 
ATOM     21  C   UNL     1       0.801  11.628  20.891  0.00  0.00    +0.000 A 
ENDBRANCH  13  16
ENDBRANCH   3  10
BRANCH   1  22
ATOM     22  C   UNL     1       5.390   3.997  16.104  0.00  0.00    +0.000 C 
ATOM     23  O   UNL     1       6.483   3.603  16.490  0.00  0.00    +0.000 OA
BRANCH  22  24
ATOM     24  O   UNL     1       5.025   4.074  14.792  0.00  0.00    +0.000 OA
BRANCH  24  26
ATOM     25  C   UNL     1       5.977   3.454  12.686  0.00  0.00    +0.000 C 
ATOM     26  C   UNL     1       6.077   4.394  13.874  0.00  0.00    +0.000 C 
ENDBRANCH  24  26
ENDBRANCH  22  24
ENDBRANCH   1  22
BRANCH   7  27
ATOM     27  O   UNL     1       1.699   0.868  18.897  0.00  0.00    +0.000 OA
ATOM     28  H   UNL     1       1.961   0.396  18.090  0.00  0.00    +0.000 HD
ENDBRANCH   7  27
BRANCH   2  29
ATOM     29  C   UNL     1       5.073   7.093  16.645  0.00  0.00    +0.000 C 
BRANCH  29  30
ATOM     30  C   UNL     1       6.387   7.328  17.376  0.00  0.00    +0.000 A 
ATOM     31  C   UNL     1       7.021   6.358  18.164  0.00  0.00    +0.000 A 
ATOM     32  C   UNL     1       8.165   6.663  18.910  0.00  0.00    +0.000 A 
ATOM     33  C   UNL     1       8.711   7.943  18.864  0.00  0.00    +0.000 A 
ATOM     34  C   UNL     1       8.115   8.909  18.060  0.00  0.00    +0.000 A 
ATOM     35 CL   UNL     1       8.797  10.488  17.981  0.00  0.00    +0.000 Cl
ATOM     36  C   UNL     1       6.964   8.612  17.325  0.00  0.00    +0.000 A 
ENDBRANCH  29  30
ENDBRANCH   2  29
TORSDOF 8
ENDMDL
MODEL 9
REMARK VINA RESULT:      -7.6      5.788      9.515
REMARK  Name = 
REMARK  9 active torsions:
REMARK  status: ('A' for Active; 'I' for Inactive)
REMARK    1  A    between atoms: C_1  and  C_2
REMARK    2  A    between atoms: C_2  and  O_3
REMARK    3  A    between atoms: O_3  and  C_4
REMARK    4  A    between atoms: C_4  and  C_6
REMARK    5  A    between atoms: C_7  and  C_8
REMARK    6  A    between atoms: C_8  and  C_9
REMARK    7  A    between atoms: N_16  and  C_17
REMARK    8  A    between atoms: C_20  and  C_21
REMARK    9  A    between atoms: C_32  and  O_33
REMARK                            x       y       z     vdW  Elec       q    Type
REMARK                         _______ _______ _______ _____ _____    ______ ____
ROOT
ATOM      1  C   UNL     1      -1.178  12.605  20.121  0.00  0.00    +0.000 A 
ATOM      2  C   UNL     1      -0.006  11.839  20.112  0.00  0.00    +0.000 A 
ATOM      3  N   UNL     1      -0.239  10.706  19.330  0.00  0.00    +0.000 N 
ATOM      4  C   UNL     1      -1.553  10.756  18.842  0.00  0.00    +0.000 A 
ATOM      5  C   UNL     1      -2.305   9.832  18.079  0.00  0.00    +0.000 A 
ATOM      6  C   UNL     1      -3.619  10.138  17.725  0.00  0.00    +0.000 A 
ATOM      7  C   UNL     1      -4.196  11.317  18.150  0.00  0.00    +0.000 A 
ATOM      8  C   UNL     1      -3.484  12.215  18.944  0.00  0.00    +0.000 A 
ATOM      9  C   UNL     1      -2.143  11.934  19.309  0.00  0.00    +0.000 A 
ENDROOT
BRANCH   3  10
ATOM     10  C   UNL     1       0.665   9.628  19.075  0.00  0.00    +0.000 A 
ATOM     11  C   UNL     1       1.326   9.516  17.853  0.00  0.00    +0.000 A 
ATOM     12  C   UNL     1       2.267   8.499  17.650  0.00  0.00    +0.000 A 
ATOM     13  C   UNL     1       2.608   7.592  18.668  0.00  0.00    +0.000 A 
ATOM     14  C   UNL     1       1.931   7.723  19.891  0.00  0.00    +0.000 A 
ATOM     15  C   UNL     1       0.952   8.702  20.083  0.00  0.00    +0.000 A 
BRANCH  13  16
ATOM     16  C   UNL     1       3.629   6.539  18.455  0.00  0.00    +0.000 A 
ATOM     17  C   UNL     1       3.854   5.529  19.408  0.00  0.00    +0.000 A 
ATOM     18  C   UNL     1       4.845   4.559  19.224  0.00  0.00    +0.000 A 
ATOM     19  C   UNL     1       5.623   4.570  18.070  0.00  0.00    +0.000 A 
ATOM     20  C   UNL     1       5.406   5.543  17.100  0.00  0.00    +0.000 A 
ATOM     21  C   UNL     1       4.423   6.517  17.294  0.00  0.00    +0.000 A 
ENDBRANCH  13  16
ENDBRANCH   3  10
BRANCH   1  22
ATOM     22  C   UNL     1      -1.366  13.835  20.888  0.00  0.00    +0.000 C 
ATOM     23  O   UNL     1      -1.294  14.960  20.410  0.00  0.00    +0.000 OA
BRANCH  22  24
ATOM     24  O   UNL     1      -1.478  13.578  22.222  0.00  0.00    +0.000 OA
BRANCH  24  26
ATOM     25  C   UNL     1      -2.983  12.126  23.385  0.00  0.00    +0.000 C 
ATOM     26  C   UNL     1      -2.815  13.483  22.726  0.00  0.00    +0.000 C 
ENDBRANCH  24  26
ENDBRANCH  22  24
ENDBRANCH   1  22
BRANCH   7  27
ATOM     27  O   UNL     1      -5.485  11.628  17.827  0.00  0.00    +0.000 OA
ATOM     28  H   UNL     1      -5.904  12.045  18.597  0.00  0.00    +0.000 HD
ENDBRANCH   7  27
BRANCH   2  29
ATOM     29  C   UNL     1       1.328  12.193  20.735  0.00  0.00    +0.000 C 
BRANCH  29  30
ATOM     30  C   UNL     1       2.144  13.279  20.047  0.00  0.00    +0.000 A 
ATOM     31  C   UNL     1       2.587  13.193  18.720  0.00  0.00    +0.000 A 
ATOM     32  C   UNL     1       3.434  14.163  18.174  0.00  0.00    +0.000 A 
ATOM     33  C   UNL     1       3.837  15.253  18.941  0.00  0.00    +0.000 A 
ATOM     34  C   UNL     1       3.379  15.373  20.249  0.00  0.00    +0.000 A 
ATOM     35 CL   UNL     1       3.856  16.729  21.196  0.00  0.00    +0.000 Cl
ATOM     36  C   UNL     1       2.545  14.398  20.802  0.00  0.00    +0.000 A 
ENDBRANCH  29  30
ENDBRANCH   2  29
TORSDOF 8
ENDMDL
