MODEL 1
REMARK VINA RESULT:      -7.6      0.000      0.000
REMARK  Name = 
REMARK  4 active torsions:
REMARK  status: ('A' for Active; 'I' for Inactive)
REMARK    1  A    between atoms: C_1  and  O_2
REMARK    2  A    between atoms: O_2  and  C_3
REMARK    3  A    between atoms: C_6  and  C_7
REMARK    4  A    between atoms: C_7  and  N_8
REMARK                            x       y       z     vdW  Elec       q    Type
REMARK                         _______ _______ _______ _____ _____    ______ ____
ROOT
ATOM      1  N   UNL     1       3.889   4.679  18.779  0.00  0.00    +0.000 N 
ATOM      2  C   UNL     1       3.560   4.126  17.564  0.00  0.00    +0.000 C 
ATOM      3  O   UNL     1       2.493   3.627  17.232  0.00  0.00    +0.000 OA
ATOM      4  C   UNL     1       4.708   4.449  16.627  0.00  0.00    +0.000 C 
ATOM      5  C   UNL     1       5.167   3.458  15.584  0.00  0.00    +0.000 C 
ATOM      6  N   UNL     1       6.324   4.056  14.874  0.00  0.00    +0.000 N 
ATOM      7  C   UNL     1       6.453   4.170  13.513  0.00  0.00    +0.000 C 
ATOM      8  N   UNL     1       5.447   3.651  12.769  0.00  0.00    +0.000 N 
ATOM      9  O   UNL     1       7.389   4.723  12.946  0.00  0.00    +0.000 OA
ATOM     10  C   UNL     1       7.441   4.527  15.725  0.00  0.00    +0.000 C 
ATOM     11  C   UNL     1       7.030   5.194  17.063  0.00  0.00    +0.000 C 
ATOM     12  N   UNL     1       5.758   4.723  17.574  0.00  0.00    +0.000 N 
ATOM     13  C   UNL     1       5.206   5.068  18.797  0.00  0.00    +0.000 C 
ATOM     14  O   UNL     1       5.783   5.651  19.700  0.00  0.00    +0.000 OA
ATOM     15  H   UNL     1       5.101   2.743  13.040  0.00  0.00    +0.000 HD
ATOM     16  H   UNL     1       5.641   3.717  11.776  0.00  0.00    +0.000 HD
ENDROOT
BRANCH   1  17
ATOM     17  C   UNL     1       2.932   5.033  19.798  0.00  0.00    +0.000 C 
BRANCH  17  21
ATOM     18  C   UNL     1       1.392   9.049  19.366  0.00  0.00    +0.000 A 
ATOM     19  C   UNL     1       2.046   8.418  18.304  0.00  0.00    +0.000 A 
ATOM     20  C   UNL     1       2.536   7.119  18.445  0.00  0.00    +0.000 A 
ATOM     21  C   UNL     1       2.405   6.438  19.660  0.00  0.00    +0.000 A 
ATOM     22  C   UNL     1       1.785   7.081  20.740  0.00  0.00    +0.000 A 
ATOM     23  C   UNL     1       1.288   8.380  20.594  0.00  0.00    +0.000 A 
ATOM     24 BR   UNL     1       0.445   9.184  22.095  0.00  0.00    +0.000 Br
BRANCH  18  26
ATOM     25  C   UNL     1      -0.334  10.411  18.514  0.00  0.00    +0.000 C 
ATOM     26  O   UNL     1       0.870  10.313  19.270  0.00  0.00    +0.000 OA
ENDBRANCH  18  26
ENDBRANCH  17  21
ENDBRANCH   1  17
TORSDOF 3
ENDMDL
MODEL 2
REMARK VINA RESULT:      -7.5      3.298      5.347
REMARK  Name = 
REMARK  4 active torsions:
REMARK  status: ('A' for Active; 'I' for Inactive)
REMARK    1  A    between atoms: C_1  and  O_2
REMARK    2  A    between atoms: O_2  and  C_3
REMARK    3  A    between atoms: C_6  and  C_7
REMARK    4  A    between atoms: C_7  and  N_8
REMARK                            x       y       z     vdW  Elec       q    Type
REMARK                         _______ _______ _______ _____ _____    ______ ____
ROOT
ATOM      1  N   UNL     1       1.617   8.780  19.246  0.00  0.00    +0.000 N 
ATOM      2  C   UNL     1       2.326   8.109  18.278  0.00  0.00    +0.000 C 
ATOM      3  O   UNL     1       2.652   8.515  17.170  0.00  0.00    +0.000 OA
ATOM      4  C   UNL     1       2.826   6.833  18.927  0.00  0.00    +0.000 C 
ATOM      5  C   UNL     1       2.891   5.537  18.154  0.00  0.00    +0.000 C 
ATOM      6  N   UNL     1       3.373   4.484  19.080  0.00  0.00    +0.000 N 
ATOM      7  C   UNL     1       4.416   3.626  18.840  0.00  0.00    +0.000 C 
ATOM      8  N   UNL     1       5.020   3.737  17.633  0.00  0.00    +0.000 N 
ATOM      9  O   UNL     1       4.840   2.803  19.644  0.00  0.00    +0.000 OA
ATOM     10  C   UNL     1       2.625   4.338  20.350  0.00  0.00    +0.000 C 
ATOM     11  C   UNL     1       2.138   5.660  20.998  0.00  0.00    +0.000 C 
ATOM     12  N   UNL     1       1.917   6.723  20.038  0.00  0.00    +0.000 N 
ATOM     13  C   UNL     1       1.380   7.968  20.328  0.00  0.00    +0.000 C 
ATOM     14  O   UNL     1       0.838   8.284  21.374  0.00  0.00    +0.000 OA
ATOM     15  H   UNL     1       4.417   3.833  16.829  0.00  0.00    +0.000 HD
ATOM     16  H   UNL     1       5.737   3.033  17.504  0.00  0.00    +0.000 HD
ENDROOT
BRANCH   1  17
ATOM     17  C   UNL     1       1.376  10.201  19.239  0.00  0.00    +0.000 C 
BRANCH  17  21
ATOM     18  C   UNL     1      -2.723  11.287  18.403  0.00  0.00    +0.000 A 
ATOM     19  C   UNL     1      -2.100  11.708  19.581  0.00  0.00    +0.000 A 
ATOM     20  C   UNL     1      -0.775  11.361  19.844  0.00  0.00    +0.000 A 
ATOM     21  C   UNL     1      -0.057  10.563  18.947  0.00  0.00    +0.000 A 
ATOM     22  C   UNL     1      -0.690  10.106  17.784  0.00  0.00    +0.000 A 
ATOM     23  C   UNL     1      -2.017  10.461  17.518  0.00  0.00    +0.000 A 
ATOM     24 BR   UNL     1      -2.806   9.818  15.914  0.00  0.00    +0.000 Br
BRANCH  18  26
ATOM     25  C   UNL     1      -4.776  12.165  19.161  0.00  0.00    +0.000 C 
ATOM     26  O   UNL     1      -4.014  11.623  18.086  0.00  0.00    +0.000 OA
ENDBRANCH  18  26
ENDBRANCH  17  21
ENDBRANCH   1  17
TORSDOF 3
ENDMDL
MODEL 3
REMARK VINA RESULT:      -7.5      3.168      5.164
REMARK  Name = 
REMARK  4 active torsions:
REMARK  status: ('A' for Active; 'I' for Inactive)
REMARK    1  A    between atoms: C_1  and  O_2
REMARK    2  A    between atoms: O_2  and  C_3
REMARK    3  A    between atoms: C_6  and  C_7
REMARK    4  A    between atoms: C_7  and  N_8
REMARK                            x       y       z     vdW  Elec       q    Type
REMARK                         _______ _______ _______ _____ _____    ______ ____
ROOT
ATOM      1  N   UNL     1       1.611   8.730  19.259  0.00  0.00    +0.000 N 
ATOM      2  C   UNL     1       2.320   8.064  18.288  0.00  0.00    +0.000 C 
ATOM      3  O   UNL     1       2.637   8.471  17.178  0.00  0.00    +0.000 OA
ATOM      4  C   UNL     1       2.834   6.792  18.936  0.00  0.00    +0.000 C 
ATOM      5  C   UNL     1       2.905   5.496  18.164  0.00  0.00    +0.000 C 
ATOM      6  N   UNL     1       3.401   4.448  19.088  0.00  0.00    +0.000 N 
ATOM      7  C   UNL     1       4.450   3.598  18.843  0.00  0.00    +0.000 C 
ATOM      8  N   UNL     1       5.046   3.713  17.633  0.00  0.00    +0.000 N 
ATOM      9  O   UNL     1       4.885   2.779  19.646  0.00  0.00    +0.000 OA
ATOM     10  C   UNL     1       2.661   4.297  20.362  0.00  0.00    +0.000 C 
ATOM     11  C   UNL     1       2.166   5.615  21.011  0.00  0.00    +0.000 C 
ATOM     12  N   UNL     1       1.931   6.676  20.052  0.00  0.00    +0.000 N 
ATOM     13  C   UNL     1       1.386   7.917  20.343  0.00  0.00    +0.000 C 
ATOM     14  O   UNL     1       0.847   8.230  21.391  0.00  0.00    +0.000 OA
ATOM     15  H   UNL     1       4.439   3.803  16.832  0.00  0.00    +0.000 HD
ATOM     16  H   UNL     1       5.769   3.015  17.501  0.00  0.00    +0.000 HD
ENDROOT
BRANCH   1  17
ATOM     17  C   UNL     1       1.358  10.149  19.252  0.00  0.00    +0.000 C 
BRANCH  17  21
ATOM     18  C   UNL     1      -2.732  11.111  18.240  0.00  0.00    +0.000 A 
ATOM     19  C   UNL     1      -1.986  10.242  17.440  0.00  0.00    +0.000 A 
ATOM     20  C   UNL     1      -0.667   9.928  17.774  0.00  0.00    +0.000 A 
ATOM     21  C   UNL     1      -0.063  10.501  18.898  0.00  0.00    +0.000 A 
ATOM     22  C   UNL     1      -0.795  11.404  19.680  0.00  0.00    +0.000 A 
ATOM     23  C   UNL     1      -2.119  11.711  19.348  0.00  0.00    +0.000 A 
ATOM     24 BR   UNL     1      -3.056  12.931  20.463  0.00  0.00    +0.000 Br
BRANCH  18  26
ATOM     25  C   UNL     1      -4.432  11.251  16.612  0.00  0.00    +0.000 C 
ATOM     26  O   UNL     1      -4.038  11.431  17.970  0.00  0.00    +0.000 OA
ENDBRANCH  18  26
ENDBRANCH  17  21
ENDBRANCH   1  17
TORSDOF 3
ENDMDL
MODEL 4
REMARK VINA RESULT:      -7.1      1.271      1.618
REMARK  Name = 
REMARK  4 active torsions:
REMARK  status: ('A' for Active; 'I' for Inactive)
REMARK    1  A    between atoms: C_1  and  O_2
REMARK    2  A    between atoms: O_2  and  C_3
REMARK    3  A    between atoms: C_6  and  C_7
REMARK    4  A    between atoms: C_7  and  N_8
REMARK                            x       y       z     vdW  Elec       q    Type
REMARK                         _______ _______ _______ _____ _____    ______ ____
ROOT
ATOM      1  N   UNL     1       3.568   4.226  18.638  0.00  0.00    +0.000 N 
ATOM      2  C   UNL     1       3.506   3.812  17.328  0.00  0.00    +0.000 C 
ATOM      3  O   UNL     1       2.568   3.271  16.757  0.00  0.00    +0.000 OA
ATOM      4  C   UNL     1       4.752   4.352  16.654  0.00  0.00    +0.000 C 
ATOM      5  C   UNL     1       5.481   3.549  15.602  0.00  0.00    +0.000 C 
ATOM      6  N   UNL     1       6.669   4.331  15.182  0.00  0.00    +0.000 N 
ATOM      7  C   UNL     1       7.009   4.634  13.887  0.00  0.00    +0.000 C 
ATOM      8  N   UNL     1       6.201   4.134  12.922  0.00  0.00    +0.000 N 
ATOM      9  O   UNL     1       7.961   5.334  13.563  0.00  0.00    +0.000 OA
ATOM     10  C   UNL     1       7.573   4.779  16.266  0.00  0.00    +0.000 C 
ATOM     11  C   UNL     1       6.878   5.228  17.577  0.00  0.00    +0.000 C 
ATOM     12  N   UNL     1       5.595   4.587  17.796  0.00  0.00    +0.000 N 
ATOM     13  C   UNL     1       4.815   4.720  18.934  0.00  0.00    +0.000 C 
ATOM     14  O   UNL     1       5.169   5.226  19.986  0.00  0.00    +0.000 OA
ATOM     15  H   UNL     1       5.913   3.172  13.022  0.00  0.00    +0.000 HD
ATOM     16  H   UNL     1       6.548   4.346  11.994  0.00  0.00    +0.000 HD
ENDROOT
BRANCH   1  17
ATOM     17  C   UNL     1       2.423   4.360  19.504  0.00  0.00    +0.000 C 
BRANCH  17  21
ATOM     18  C   UNL     1       1.371   8.470  20.327  0.00  0.00    +0.000 A 
ATOM     19  C   UNL     1       1.162   7.475  21.286  0.00  0.00    +0.000 A 
ATOM     20  C   UNL     1       1.509   6.150  21.019  0.00  0.00    +0.000 A 
ATOM     21  C   UNL     1       2.046   5.792  19.777  0.00  0.00    +0.000 A 
ATOM     22  C   UNL     1       2.219   6.780  18.799  0.00  0.00    +0.000 A 
ATOM     23  C   UNL     1       1.878   8.109  19.072  0.00  0.00    +0.000 A 
ATOM     24 BR   UNL     1       2.155   9.398  17.704  0.00  0.00    +0.000 Br
BRANCH  18  26
ATOM     25  C   UNL     1      -0.321  10.087  20.611  0.00  0.00    +0.000 C 
ATOM     26  O   UNL     1       1.071   9.789  20.550  0.00  0.00    +0.000 OA
ENDBRANCH  18  26
ENDBRANCH  17  21
ENDBRANCH   1  17
TORSDOF 3
ENDMDL
MODEL 5
REMARK VINA RESULT:      -6.9      3.855      5.722
REMARK  Name = 
REMARK  4 active torsions:
REMARK  status: ('A' for Active; 'I' for Inactive)
REMARK    1  A    between atoms: C_1  and  O_2
REMARK    2  A    between atoms: O_2  and  C_3
REMARK    3  A    between atoms: C_6  and  C_7
REMARK    4  A    between atoms: C_7  and  N_8
REMARK                            x       y       z     vdW  Elec       q    Type
REMARK                         _______ _______ _______ _____ _____    ______ ____
ROOT
ATOM      1  N   UNL     1       1.837   8.852  19.347  0.00  0.00    +0.000 N 
ATOM      2  C   UNL     1       1.516   8.014  20.388  0.00  0.00    +0.000 C 
ATOM      3  O   UNL     1       1.070   8.319  21.486  0.00  0.00    +0.000 OA
ATOM      4  C   UNL     1       1.614   6.603  19.841  0.00  0.00    +0.000 C 
ATOM      5  C   UNL     1       2.142   5.471  20.690  0.00  0.00    +0.000 C 
ATOM      6  N   UNL     1       2.151   4.247  19.852  0.00  0.00    +0.000 N 
ATOM      7  C   UNL     1       1.596   3.040  20.197  0.00  0.00    +0.000 C 
ATOM      8  N   UNL     1       1.031   2.967  21.426  0.00  0.00    +0.000 N 
ATOM      9  O   UNL     1       1.559   2.057  19.465  0.00  0.00    +0.000 OA
ATOM     10  C   UNL     1       2.858   4.347  18.556  0.00  0.00    +0.000 C 
ATOM     11  C   UNL     1       2.701   5.696  17.808  0.00  0.00    +0.000 C 
ATOM     12  N   UNL     1       2.454   6.818  18.691  0.00  0.00    +0.000 N 
ATOM     13  C   UNL     1       2.383   8.147  18.303  0.00  0.00    +0.000 C 
ATOM     14  O   UNL     1       2.708   8.588  17.213  0.00  0.00    +0.000 OA
ATOM     15  H   UNL     1       1.548   3.377  22.189  0.00  0.00    +0.000 HD
ATOM     16  H   UNL     1       0.699   2.032  21.633  0.00  0.00    +0.000 HD
ENDROOT
BRANCH   1  17
ATOM     17  C   UNL     1       1.430  10.233  19.259  0.00  0.00    +0.000 C 
BRANCH  17  21
ATOM     18  C   UNL     1      -2.721  10.678  18.136  0.00  0.00    +0.000 A 
ATOM     19  C   UNL     1      -1.875   9.828  17.417  0.00  0.00    +0.000 A 
ATOM     20  C   UNL     1      -0.537   9.682  17.787  0.00  0.00    +0.000 A 
ATOM     21  C   UNL     1      -0.015  10.405  18.865  0.00  0.00    +0.000 A 
ATOM     22  C   UNL     1      -0.848  11.288  19.563  0.00  0.00    +0.000 A 
ATOM     23  C   UNL     1      -2.191  11.427  19.195  0.00  0.00    +0.000 A 
ATOM     24 BR   UNL     1      -3.268  12.631  20.196  0.00  0.00    +0.000 Br
BRANCH  18  26
ATOM     25  C   UNL     1      -4.304  11.530  16.611  0.00  0.00    +0.000 C 
ATOM     26  O   UNL     1      -4.047  10.836  17.829  0.00  0.00    +0.000 OA
ENDBRANCH  18  26
ENDBRANCH  17  21
ENDBRANCH   1  17
TORSDOF 3
ENDMDL
MODEL 6
REMARK VINA RESULT:      -6.7      3.674      7.705
REMARK  Name = 
REMARK  4 active torsions:
REMARK  status: ('A' for Active; 'I' for Inactive)
REMARK    1  A    between atoms: C_1  and  O_2
REMARK    2  A    between atoms: O_2  and  C_3
REMARK    3  A    between atoms: C_6  and  C_7
REMARK    4  A    between atoms: C_7  and  N_8
REMARK                            x       y       z     vdW  Elec       q    Type
REMARK                         _______ _______ _______ _____ _____    ______ ____
ROOT
ATOM      1  N   UNL     1       2.347   7.105  18.966  0.00  0.00    +0.000 N 
ATOM      2  C   UNL     1       2.204   8.168  18.106  0.00  0.00    +0.000 C 
ATOM      3  O   UNL     1       2.554   8.238  16.936  0.00  0.00    +0.000 OA
ATOM      4  C   UNL     1       1.322   9.174  18.821  0.00  0.00    +0.000 C 
ATOM      5  C   UNL     1       1.561  10.659  18.681  0.00  0.00    +0.000 C 
ATOM      6  N   UNL     1       0.568  11.357  19.533  0.00  0.00    +0.000 N 
ATOM      7  C   UNL     1      -0.261  12.372  19.125  0.00  0.00    +0.000 C 
ATOM      8  N   UNL     1      -0.118  12.786  17.844  0.00  0.00    +0.000 N 
ATOM      9  O   UNL     1      -1.120  12.894  19.827  0.00  0.00    +0.000 OA
ATOM     10  C   UNL     1       0.510  10.933  20.950  0.00  0.00    +0.000 C 
ATOM     11  C   UNL     1       0.695   9.415  21.205  0.00  0.00    +0.000 C 
ATOM     12  N   UNL     1       1.488   8.754  20.188  0.00  0.00    +0.000 N 
ATOM     13  C   UNL     1       1.899   7.430  20.223  0.00  0.00    +0.000 C 
ATOM     14  O   UNL     1       1.828   6.688  21.188  0.00  0.00    +0.000 OA
ATOM     15  H   UNL     1       0.825  12.911  17.508  0.00  0.00    +0.000 HD
ATOM     16  H   UNL     1      -0.717  13.576  17.634  0.00  0.00    +0.000 HD
ENDROOT
BRANCH   1  17
ATOM     17  C   UNL     1       2.682   5.765  18.554  0.00  0.00    +0.000 C 
BRANCH  17  21
ATOM     18  C   UNL     1       6.280   5.559  16.167  0.00  0.00    +0.000 A 
ATOM     19  C   UNL     1       5.210   4.695  15.919  0.00  0.00    +0.000 A 
ATOM     20  C   UNL     1       4.047   4.769  16.687  0.00  0.00    +0.000 A 
ATOM     21  C   UNL     1       3.946   5.690  17.736  0.00  0.00    +0.000 A 
ATOM     22  C   UNL     1       5.031   6.530  18.014  0.00  0.00    +0.000 A 
ATOM     23  C   UNL     1       6.193   6.460  17.237  0.00  0.00    +0.000 A 
ATOM     24 BR   UNL     1       7.620   7.641  17.660  0.00  0.00    +0.000 Br
BRANCH  18  26
ATOM     25  C   UNL     1       7.321   4.908  14.154  0.00  0.00    +0.000 C 
ATOM     26  O   UNL     1       7.433   5.544  15.425  0.00  0.00    +0.000 OA
ENDBRANCH  18  26
ENDBRANCH  17  21
ENDBRANCH   1  17
TORSDOF 3
ENDMDL
MODEL 7
REMARK VINA RESULT:      -6.6      5.178      9.925
REMARK  Name = 
REMARK  4 active torsions:
REMARK  status: ('A' for Active; 'I' for Inactive)
REMARK    1  A    between atoms: C_1  and  O_2
REMARK    2  A    between atoms: O_2  and  C_3
REMARK    3  A    between atoms: C_6  and  C_7
REMARK    4  A    between atoms: C_7  and  N_8
REMARK                            x       y       z     vdW  Elec       q    Type
REMARK                         _______ _______ _______ _____ _____    ______ ____
ROOT
ATOM      1  N   UNL     1       0.142  10.673  18.799  0.00  0.00    +0.000 N 
ATOM      2  C   UNL     1       0.053  11.573  19.834  0.00  0.00    +0.000 C 
ATOM      3  O   UNL     1       0.941  11.928  20.597  0.00  0.00    +0.000 OA
ATOM      4  C   UNL     1      -1.314  12.219  19.717  0.00  0.00    +0.000 C 
ATOM      5  C   UNL     1      -2.117  12.575  20.945  0.00  0.00    +0.000 C 
ATOM      6  N   UNL     1      -3.410  13.140  20.489  0.00  0.00    +0.000 N 
ATOM      7  C   UNL     1      -3.951  14.332  20.902  0.00  0.00    +0.000 C 
ATOM      8  N   UNL     1      -3.250  15.018  21.836  0.00  0.00    +0.000 N 
ATOM      9  O   UNL     1      -4.992  14.812  20.467  0.00  0.00    +0.000 OA
ATOM     10  C   UNL     1      -4.186  12.312  19.538  0.00  0.00    +0.000 C 
ATOM     11  C   UNL     1      -3.352  11.549  18.477  0.00  0.00    +0.000 C 
ATOM     12  N   UNL     1      -2.005  11.241  18.917  0.00  0.00    +0.000 N 
ATOM     13  C   UNL     1      -1.085  10.477  18.216  0.00  0.00    +0.000 C 
ATOM     14  O   UNL     1      -1.328   9.794  17.235  0.00  0.00    +0.000 OA
ATOM     15  H   UNL     1      -2.876  14.486  22.607  0.00  0.00    +0.000 HD
ATOM     16  H   UNL     1      -3.739  15.853  22.136  0.00  0.00    +0.000 HD
ENDROOT
BRANCH   1  17
ATOM     17  C   UNL     1       1.383  10.196  18.240  0.00  0.00    +0.000 C 
BRANCH  17  21
ATOM     18  C   UNL     1       2.530   6.321  19.773  0.00  0.00    +0.000 A 
ATOM     19  C   UNL     1       1.765   7.197  20.549  0.00  0.00    +0.000 A 
ATOM     20  C   UNL     1       1.391   8.444  20.048  0.00  0.00    +0.000 A 
ATOM     21  C   UNL     1       1.799   8.850  18.772  0.00  0.00    +0.000 A 
ATOM     22  C   UNL     1       2.599   7.991  18.007  0.00  0.00    +0.000 A 
ATOM     23  C   UNL     1       2.966   6.738  18.508  0.00  0.00    +0.000 A 
ATOM     24 BR   UNL     1       4.039   5.619  17.409  0.00  0.00    +0.000 Br
BRANCH  18  26
ATOM     25  C   UNL     1       1.892   4.361  20.918  0.00  0.00    +0.000 C 
ATOM     26  O   UNL     1       2.901   5.075  20.209  0.00  0.00    +0.000 OA
ENDBRANCH  18  26
ENDBRANCH  17  21
ENDBRANCH   1  17
TORSDOF 3
ENDMDL
MODEL 8
REMARK VINA RESULT:      -6.6      4.107      6.624
REMARK  Name = 
REMARK  4 active torsions:
REMARK  status: ('A' for Active; 'I' for Inactive)
REMARK    1  A    between atoms: C_1  and  O_2
REMARK    2  A    between atoms: O_2  and  C_3
REMARK    3  A    between atoms: C_6  and  C_7
REMARK    4  A    between atoms: C_7  and  N_8
REMARK                            x       y       z     vdW  Elec       q    Type
REMARK                         _______ _______ _______ _____ _____    ______ ____
ROOT
ATOM      1  N   UNL     1       1.016  10.535  19.489  0.00  0.00    +0.000 N 
ATOM      2  C   UNL     1       0.757   9.506  20.363  0.00  0.00    +0.000 C 
ATOM      3  O   UNL     1       0.099   9.545  21.394  0.00  0.00    +0.000 OA
ATOM      4  C   UNL     1       1.263   8.243  19.692  0.00  0.00    +0.000 C 
ATOM      5  C   UNL     1       1.917   7.142  20.492  0.00  0.00    +0.000 C 
ATOM      6  N   UNL     1       2.335   6.083  19.542  0.00  0.00    +0.000 N 
ATOM      7  C   UNL     1       2.038   4.747  19.654  0.00  0.00    +0.000 C 
ATOM      8  N   UNL     1       1.337   4.378  20.752  0.00  0.00    +0.000 N 
ATOM      9  O   UNL     1       2.340   3.895  18.825  0.00  0.00    +0.000 OA
ATOM     10  C   UNL     1       3.177   6.519  18.405  0.00  0.00    +0.000 C 
ATOM     11  C   UNL     1       2.813   7.896  17.791  0.00  0.00    +0.000 C 
ATOM     12  N   UNL     1       2.184   8.799  18.735  0.00  0.00    +0.000 N 
ATOM     13  C   UNL     1       1.857  10.122  18.485  0.00  0.00    +0.000 C 
ATOM     14  O   UNL     1       2.220  10.776  17.521  0.00  0.00    +0.000 OA
ATOM     15  H   UNL     1       1.628   4.775  21.633  0.00  0.00    +0.000 HD
ATOM     16  H   UNL     1       1.209   3.373  20.797  0.00  0.00    +0.000 HD
ENDROOT
BRANCH   1  17
ATOM     17  C   UNL     1       0.310  11.792  19.482  0.00  0.00    +0.000 C 
BRANCH  17  21
ATOM     18  C   UNL     1      -3.754  11.518  18.037  0.00  0.00    +0.000 A 
ATOM     19  C   UNL     1      -3.477  12.095  19.279  0.00  0.00    +0.000 A 
ATOM     20  C   UNL     1      -2.163  12.187  19.739  0.00  0.00    +0.000 A 
ATOM     21  C   UNL     1      -1.105  11.679  18.977  0.00  0.00    +0.000 A 
ATOM     22  C   UNL     1      -1.383  11.064  17.749  0.00  0.00    +0.000 A 
ATOM     23  C   UNL     1      -2.700  10.979  17.287  0.00  0.00    +0.000 A 
ATOM     24 BR   UNL     1      -3.001  10.147  15.605  0.00  0.00    +0.000 Br
BRANCH  18  26
ATOM     25  C   UNL     1      -5.966  10.777  18.378  0.00  0.00    +0.000 C 
ATOM     26  O   UNL     1      -5.024  11.426  17.529  0.00  0.00    +0.000 OA
ENDBRANCH  18  26
ENDBRANCH  17  21
ENDBRANCH   1  17
TORSDOF 3
ENDMDL
MODEL 9
REMARK VINA RESULT:      -6.6      3.970      8.244
REMARK  Name = 
REMARK  4 active torsions:
REMARK  status: ('A' for Active; 'I' for Inactive)
REMARK    1  A    between atoms: C_1  and  O_2
REMARK    2  A    between atoms: O_2  and  C_3
REMARK    3  A    between atoms: C_6  and  C_7
REMARK    4  A    between atoms: C_7  and  N_8
REMARK                            x       y       z     vdW  Elec       q    Type
REMARK                         _______ _______ _______ _____ _____    ______ ____
ROOT
ATOM      1  N   UNL     1       1.985   7.720  18.903  0.00  0.00    +0.000 N 
ATOM      2  C   UNL     1       1.736   9.000  18.471  0.00  0.00    +0.000 C 
ATOM      3  O   UNL     1       2.023   9.496  17.390  0.00  0.00    +0.000 OA
ATOM      4  C   UNL     1       0.833   9.631  19.513  0.00  0.00    +0.000 C 
ATOM      5  C   UNL     1       0.975  11.086  19.893  0.00  0.00    +0.000 C 
ATOM      6  N   UNL     1      -0.014  11.371  20.960  0.00  0.00    +0.000 N 
ATOM      7  C   UNL     1      -0.922  12.401  20.953  0.00  0.00    +0.000 C 
ATOM      8  N   UNL     1      -0.867  13.242  19.892  0.00  0.00    +0.000 N 
ATOM      9  O   UNL     1      -1.774  12.584  21.815  0.00  0.00    +0.000 OA
ATOM     10  C   UNL     1       0.023  10.481  22.142  0.00  0.00    +0.000 C 
ATOM     11  C   UNL     1       0.311   8.986  21.848  0.00  0.00    +0.000 C 
ATOM     12  N   UNL     1       1.090   8.777  20.643  0.00  0.00    +0.000 N 
ATOM     13  C   UNL     1       1.581   7.556  20.205  0.00  0.00    +0.000 C 
ATOM     14  O   UNL     1       1.602   6.524  20.853  0.00  0.00    +0.000 OA
ATOM     15  H   UNL     1       0.049  13.544  19.597  0.00  0.00    +0.000 HD
ATOM     16  H   UNL     1      -1.522  14.010  19.986  0.00  0.00    +0.000 HD
ENDROOT
BRANCH   1  17
ATOM     17  C   UNL     1       2.378   6.633  18.041  0.00  0.00    +0.000 C 
BRANCH  17  21
ATOM     18  C   UNL     1       6.459   5.325  18.612  0.00  0.00    +0.000 A 
ATOM     19  C   UNL     1       5.392   4.569  19.106  0.00  0.00    +0.000 A 
ATOM     20  C   UNL     1       4.076   4.991  18.914  0.00  0.00    +0.000 A 
ATOM     21  C   UNL     1       3.804   6.192  18.249  0.00  0.00    +0.000 A 
ATOM     22  C   UNL     1       4.871   6.973  17.787  0.00  0.00    +0.000 A 
ATOM     23  C   UNL     1       6.190   6.544  17.974  0.00  0.00    +0.000 A 
ATOM     24 BR   UNL     1       7.587   7.645  17.307  0.00  0.00    +0.000 Br
BRANCH  18  26
ATOM     25  C   UNL     1       8.381   5.333  19.977  0.00  0.00    +0.000 C 
ATOM     26  O   UNL     1       7.767   4.942  18.752  0.00  0.00    +0.000 OA
ENDBRANCH  18  26
ENDBRANCH  17  21
ENDBRANCH   1  17
TORSDOF 3
ENDMDL
