MODEL 1
REMARK VINA RESULT:      -8.7      0.000      0.000
REMARK  Name = 
REMARK  6 active torsions:
REMARK  status: ('A' for Active; 'I' for Inactive)
REMARK    1  A    between atoms: N_2  and  C_4
REMARK    2  A    between atoms: C_7  and  O_8
REMARK    3  A    between atoms: C_9  and  C_10
REMARK    4  A    between atoms: N_11  and  C_12
REMARK    5  A    between atoms: C_17  and  C_18
REMARK    6  A    between atoms: C_18  and  C_19
REMARK                            x       y       z     vdW  Elec       q    Type
REMARK                         _______ _______ _______ _____ _____    ______ ____
ROOT
ATOM      1  C   UNL     1       8.225   8.394  18.253  0.00  0.00    +0.000 A 
ATOM      2  C   UNL     1       8.529   7.370  19.167  0.00  0.00    +0.000 A 
ATOM      3  C   UNL     1       7.957   6.090  19.082  0.00  0.00    +0.000 A 
ATOM      4  C   UNL     1       7.044   5.905  18.053  0.00  0.00    +0.000 A 
ATOM      5  O   UNL     1       6.332   4.777  17.767  0.00  0.00    +0.000 OA
ATOM      6  C   UNL     1       5.571   5.134  16.681  0.00  0.00    +0.000 A 
ATOM      7  N   UNL     1       5.748   6.378  16.269  0.00  0.00    +0.000 NA
ATOM      8  C   UNL     1       6.688   6.880  17.138  0.00  0.00    +0.000 A 
ATOM      9  C   UNL     1       7.284   8.148  17.234  0.00  0.00    +0.000 A 
ENDROOT
BRANCH   1  11
ATOM     10  C   UNL     1       9.437  10.072  19.376  0.00  0.00    +0.000 C 
ATOM     11  N   UNL     1       8.752   9.699  18.341  0.00  0.00    +0.000 NA
BRANCH  10  16
ATOM     12  C   UNL     1      11.010  13.373  18.433  0.00  0.00    +0.000 A 
ATOM     13  C   UNL     1      11.033  14.042  19.667  0.00  0.00    +0.000 A 
ATOM     14  C   UNL     1      10.529  13.410  20.806  0.00  0.00    +0.000 A 
ATOM     15  C   UNL     1      10.005  12.118  20.711  0.00  0.00    +0.000 A 
ATOM     16  C   UNL     1       9.986  11.447  19.479  0.00  0.00    +0.000 A 
ATOM     17  C   UNL     1      10.489  12.077  18.334  0.00  0.00    +0.000 A 
BRANCH  12  19
ATOM     18  O   UNL     1      11.216  15.223  17.051  0.00  0.00    +0.000 OA
ATOM     19  N   UNL     1      11.538  14.041  17.236  0.00  0.00    +0.000 N 
ATOM     20  O   UNL     1      12.272  13.386  16.484  0.00  0.00    +0.000 OA
ENDBRANCH  12  19
BRANCH  15  21
ATOM     21  O   UNL     1       9.507  11.510  21.830  0.00  0.00    +0.000 OA
ATOM     22  H   UNL     1      10.238  11.302  22.440  0.00  0.00    +0.000 HD
ENDBRANCH  15  21
ENDBRANCH  10  16
ENDBRANCH   1  11
BRANCH   6  23
ATOM     23  C   UNL     1       4.607   4.114  16.174  0.00  0.00    +0.000 C 
BRANCH  23  24
ATOM     24  C   UNL     1       3.509   3.743  17.149  0.00  0.00    +0.000 A 
ATOM     25  C   UNL     1       3.299   2.403  17.515  0.00  0.00    +0.000 A 
ATOM     26  C   UNL     1       2.321   2.066  18.455  0.00  0.00    +0.000 A 
ATOM     27  C   UNL     1       1.546   3.066  19.038  0.00  0.00    +0.000 A 
ATOM     28 CL   UNL     1       0.348   2.651  20.202  0.00  0.00    +0.000 Cl
ATOM     29  C   UNL     1       1.741   4.400  18.689  0.00  0.00    +0.000 A 
ATOM     30  C   UNL     1       2.720   4.738  17.749  0.00  0.00    +0.000 A 
ENDBRANCH  23  24
ENDBRANCH   6  23
TORSDOF 6
ENDMDL
MODEL 2
REMARK VINA RESULT:      -8.4      6.417      9.099
REMARK  Name = 
REMARK  6 active torsions:
REMARK  status: ('A' for Active; 'I' for Inactive)
REMARK    1  A    between atoms: N_2  and  C_4
REMARK    2  A    between atoms: C_7  and  O_8
REMARK    3  A    between atoms: C_9  and  C_10
REMARK    4  A    between atoms: N_11  and  C_12
REMARK    5  A    between atoms: C_17  and  C_18
REMARK    6  A    between atoms: C_18  and  C_19
REMARK                            x       y       z     vdW  Elec       q    Type
REMARK                         _______ _______ _______ _____ _____    ______ ____
ROOT
ATOM      1  C   UNL     1       2.467   7.429  19.257  0.00  0.00    +0.000 A 
ATOM      2  C   UNL     1       1.856   7.302  20.518  0.00  0.00    +0.000 A 
ATOM      3  C   UNL     1       0.865   8.191  20.967  0.00  0.00    +0.000 A 
ATOM      4  C   UNL     1       0.545   9.225  20.097  0.00  0.00    +0.000 A 
ATOM      5  O   UNL     1      -0.356  10.231  20.299  0.00  0.00    +0.000 OA
ATOM      6  C   UNL     1      -0.269  10.985  19.154  0.00  0.00    +0.000 A 
ATOM      7  N   UNL     1       0.601  10.538  18.265  0.00  0.00    +0.000 NA
ATOM      8  C   UNL     1       1.127   9.413  18.856  0.00  0.00    +0.000 A 
ATOM      9  C   UNL     1       2.105   8.503  18.423  0.00  0.00    +0.000 A 
ENDROOT
BRANCH   1  11
ATOM     10  C   UNL     1       4.261   6.926  17.817  0.00  0.00    +0.000 C 
ATOM     11  N   UNL     1       3.493   6.577  18.801  0.00  0.00    +0.000 NA
BRANCH  10  16
ATOM     12  C   UNL     1       6.506   4.981  15.485  0.00  0.00    +0.000 A 
ATOM     13  C   UNL     1       7.364   4.333  16.387  0.00  0.00    +0.000 A 
ATOM     14  C   UNL     1       7.206   4.537  17.761  0.00  0.00    +0.000 A 
ATOM     15  C   UNL     1       6.197   5.385  18.226  0.00  0.00    +0.000 A 
ATOM     16  C   UNL     1       5.337   6.030  17.325  0.00  0.00    +0.000 A 
ATOM     17  C   UNL     1       5.493   5.829  15.948  0.00  0.00    +0.000 A 
BRANCH  12  19
ATOM     18  O   UNL     1       7.527   5.454  13.458  0.00  0.00    +0.000 OA
ATOM     19  N   UNL     1       6.677   4.767  14.042  0.00  0.00    +0.000 N 
ATOM     20  O   UNL     1       5.963   3.916  13.495  0.00  0.00    +0.000 OA
ENDBRANCH  12  19
BRANCH  15  21
ATOM     21  O   UNL     1       6.055   5.585  19.572  0.00  0.00    +0.000 OA
ATOM     22  H   UNL     1       5.674   4.787  19.981  0.00  0.00    +0.000 HD
ENDBRANCH  15  21
ENDBRANCH  10  16
ENDBRANCH   1  11
BRANCH   6  23
ATOM     23  C   UNL     1      -1.094  12.227  19.106  0.00  0.00    +0.000 C 
BRANCH  23  24
ATOM     24  C   UNL     1      -2.573  11.995  18.871  0.00  0.00    +0.000 A 
ATOM     25  C   UNL     1      -3.011  11.218  17.786  0.00  0.00    +0.000 A 
ATOM     26  C   UNL     1      -4.372  10.961  17.599  0.00  0.00    +0.000 A 
ATOM     27  C   UNL     1      -5.306  11.476  18.496  0.00  0.00    +0.000 A 
ATOM     28 CL   UNL     1      -6.980  11.150  18.270  0.00  0.00    +0.000 Cl
ATOM     29  C   UNL     1      -4.889  12.247  19.578  0.00  0.00    +0.000 A 
ATOM     30  C   UNL     1      -3.528  12.505  19.766  0.00  0.00    +0.000 A 
ENDBRANCH  23  24
ENDBRANCH   6  23
TORSDOF 6
ENDMDL
MODEL 3
REMARK VINA RESULT:      -8.4      6.955      9.992
REMARK  Name = 
REMARK  6 active torsions:
REMARK  status: ('A' for Active; 'I' for Inactive)
REMARK    1  A    between atoms: N_2  and  C_4
REMARK    2  A    between atoms: C_7  and  O_8
REMARK    3  A    between atoms: C_9  and  C_10
REMARK    4  A    between atoms: N_11  and  C_12
REMARK    5  A    between atoms: C_17  and  C_18
REMARK    6  A    between atoms: C_18  and  C_19
REMARK                            x       y       z     vdW  Elec       q    Type
REMARK                         _______ _______ _______ _____ _____    ______ ____
ROOT
ATOM      1  C   UNL     1       1.580   8.067  20.043  0.00  0.00    +0.000 A 
ATOM      2  C   UNL     1       1.193   8.096  21.395  0.00  0.00    +0.000 A 
ATOM      3  C   UNL     1       0.314   9.065  21.906  0.00  0.00    +0.000 A 
ATOM      4  C   UNL     1      -0.130  10.015  20.997  0.00  0.00    +0.000 A 
ATOM      5  O   UNL     1      -0.961  11.071  21.237  0.00  0.00    +0.000 OA
ATOM      6  C   UNL     1      -1.057  11.698  20.019  0.00  0.00    +0.000 A 
ATOM      7  N   UNL     1      -0.363  11.128  19.049  0.00  0.00    +0.000 NA
ATOM      8  C   UNL     1       0.233  10.050  19.662  0.00  0.00    +0.000 A 
ATOM      9  C   UNL     1       1.102   9.063  19.171  0.00  0.00    +0.000 A 
ENDROOT
BRANCH   1  11
ATOM     10  C   UNL     1       2.664   7.017  18.235  0.00  0.00    +0.000 C 
ATOM     11  N   UNL     1       2.494   7.132  19.515  0.00  0.00    +0.000 NA
BRANCH  10  16
ATOM     12  C   UNL     1       5.755   5.531  16.655  0.00  0.00    +0.000 A 
ATOM     13  C   UNL     1       5.423   4.169  16.600  0.00  0.00    +0.000 A 
ATOM     14  C   UNL     1       4.185   3.739  17.085  0.00  0.00    +0.000 A 
ATOM     15  C   UNL     1       3.288   4.666  17.621  0.00  0.00    +0.000 A 
ATOM     16  C   UNL     1       3.618   6.029  17.672  0.00  0.00    +0.000 A 
ATOM     17  C   UNL     1       4.858   6.464  17.189  0.00  0.00    +0.000 A 
BRANCH  12  19
ATOM     18  O   UNL     1       7.633   6.887  16.767  0.00  0.00    +0.000 OA
ATOM     19  N   UNL     1       7.059   5.980  16.148  0.00  0.00    +0.000 N 
ATOM     20  O   UNL     1       7.507   5.428  15.134  0.00  0.00    +0.000 OA
ENDBRANCH  12  19
BRANCH  15  21
ATOM     21  O   UNL     1       2.081   4.235  18.100  0.00  0.00    +0.000 OA
ATOM     22  H   UNL     1       1.406   4.921  17.946  0.00  0.00    +0.000 HD
ENDBRANCH  15  21
ENDBRANCH  10  16
ENDBRANCH   1  11
BRANCH   6  23
ATOM     23  C   UNL     1      -1.851  12.961  19.977  0.00  0.00    +0.000 C 
BRANCH  23  24
ATOM     24  C   UNL     1      -3.315  12.799  20.334  0.00  0.00    +0.000 A 
ATOM     25  C   UNL     1      -4.227  12.285  19.398  0.00  0.00    +0.000 A 
ATOM     26  C   UNL     1      -5.567  12.086  19.744  0.00  0.00    +0.000 A 
ATOM     27  C   UNL     1      -6.005  12.397  21.030  0.00  0.00    +0.000 A 
ATOM     28 CL   UNL     1      -7.652  12.142  21.457  0.00  0.00    +0.000 Cl
ATOM     29  C   UNL     1      -5.114  12.905  21.971  0.00  0.00    +0.000 A 
ATOM     30  C   UNL     1      -3.773  13.104  21.626  0.00  0.00    +0.000 A 
ENDBRANCH  23  24
ENDBRANCH   6  23
TORSDOF 6
ENDMDL
MODEL 4
REMARK VINA RESULT:      -8.3      7.238     10.382
REMARK  Name = 
REMARK  6 active torsions:
REMARK  status: ('A' for Active; 'I' for Inactive)
REMARK    1  A    between atoms: N_2  and  C_4
REMARK    2  A    between atoms: C_7  and  O_8
REMARK    3  A    between atoms: C_9  and  C_10
REMARK    4  A    between atoms: N_11  and  C_12
REMARK    5  A    between atoms: C_17  and  C_18
REMARK    6  A    between atoms: C_18  and  C_19
REMARK                            x       y       z     vdW  Elec       q    Type
REMARK                         _______ _______ _______ _____ _____    ______ ____
ROOT
ATOM      1  C   UNL     1       1.566   8.322  19.885  0.00  0.00    +0.000 A 
ATOM      2  C   UNL     1       1.385   8.081  21.259  0.00  0.00    +0.000 A 
ATOM      3  C   UNL     1       0.676   8.963  22.091  0.00  0.00    +0.000 A 
ATOM      4  C   UNL     1       0.187  10.108  21.477  0.00  0.00    +0.000 A 
ATOM      5  O   UNL     1      -0.507  11.130  22.057  0.00  0.00    +0.000 OA
ATOM      6  C   UNL     1      -0.726  12.008  21.024  0.00  0.00    +0.000 A 
ATOM      7  N   UNL     1      -0.232  11.623  19.859  0.00  0.00    +0.000 NA
ATOM      8  C   UNL     1       0.352  10.409  20.136  0.00  0.00    +0.000 A 
ATOM      9  C   UNL     1       1.053   9.505  19.321  0.00  0.00    +0.000 A 
ENDROOT
BRANCH   1  11
ATOM     10  C   UNL     1       2.901   6.420  19.502  0.00  0.00    +0.000 C 
ATOM     11  N   UNL     1       2.310   7.476  19.038  0.00  0.00    +0.000 NA
BRANCH  10  16
ATOM     12  C   UNL     1       5.839   4.706  17.862  0.00  0.00    +0.000 A 
ATOM     13  C   UNL     1       5.200   3.857  16.945  0.00  0.00    +0.000 A 
ATOM     14  C   UNL     1       3.805   3.845  16.869  0.00  0.00    +0.000 A 
ATOM     15  C   UNL     1       3.056   4.678  17.705  0.00  0.00    +0.000 A 
ATOM     16  C   UNL     1       3.694   5.530  18.618  0.00  0.00    +0.000 A 
ATOM     17  C   UNL     1       5.092   5.543  18.699  0.00  0.00    +0.000 A 
BRANCH  12  19
ATOM     18  O   UNL     1       7.818   5.036  19.023  0.00  0.00    +0.000 OA
ATOM     19  N   UNL     1       7.306   4.713  17.943  0.00  0.00    +0.000 N 
ATOM     20  O   UNL     1       7.943   4.397  16.929  0.00  0.00    +0.000 OA
ENDBRANCH  12  19
BRANCH  15  21
ATOM     21  O   UNL     1       1.690   4.654  17.628  0.00  0.00    +0.000 OA
ATOM     22  H   UNL     1       1.332   4.122  18.360  0.00  0.00    +0.000 HD
ENDBRANCH  15  21
ENDBRANCH  10  16
ENDBRANCH   1  11
BRANCH   6  23
ATOM     23  C   UNL     1      -1.408  13.290  21.368  0.00  0.00    +0.000 C 
BRANCH  23  24
ATOM     24  C   UNL     1      -2.734  13.129  22.082  0.00  0.00    +0.000 A 
ATOM     25  C   UNL     1      -2.804  13.190  23.483  0.00  0.00    +0.000 A 
ATOM     26  C   UNL     1      -4.035  13.094  24.140  0.00  0.00    +0.000 A 
ATOM     27  C   UNL     1      -5.205  12.938  23.400  0.00  0.00    +0.000 A 
ATOM     28 CL   UNL     1      -6.721  12.829  24.208  0.00  0.00    +0.000 Cl
ATOM     29  C   UNL     1      -5.155  12.877  22.009  0.00  0.00    +0.000 A 
ATOM     30  C   UNL     1      -3.924  12.974  21.352  0.00  0.00    +0.000 A 
ENDBRANCH  23  24
ENDBRANCH   6  23
TORSDOF 6
ENDMDL
MODEL 5
REMARK VINA RESULT:      -8.3      7.857     11.030
REMARK  Name = 
REMARK  6 active torsions:
REMARK  status: ('A' for Active; 'I' for Inactive)
REMARK    1  A    between atoms: N_2  and  C_4
REMARK    2  A    between atoms: C_7  and  O_8
REMARK    3  A    between atoms: C_9  and  C_10
REMARK    4  A    between atoms: N_11  and  C_12
REMARK    5  A    between atoms: C_17  and  C_18
REMARK    6  A    between atoms: C_18  and  C_19
REMARK                            x       y       z     vdW  Elec       q    Type
REMARK                         _______ _______ _______ _____ _____    ______ ____
ROOT
ATOM      1  C   UNL     1       1.051   8.822  20.720  0.00  0.00    +0.000 A 
ATOM      2  C   UNL     1       0.706   9.569  19.580  0.00  0.00    +0.000 A 
ATOM      3  C   UNL     1       0.010  10.787  19.659  0.00  0.00    +0.000 A 
ATOM      4  C   UNL     1      -0.344  11.196  20.937  0.00  0.00    +0.000 A 
ATOM      5  O   UNL     1      -1.040  12.316  21.288  0.00  0.00    +0.000 OA
ATOM      6  C   UNL     1      -1.135  12.231  22.655  0.00  0.00    +0.000 A 
ATOM      7  N   UNL     1      -0.562  11.161  23.182  0.00  0.00    +0.000 NA
ATOM      8  C   UNL     1      -0.051  10.494  22.093  0.00  0.00    +0.000 A 
ATOM      9  C   UNL     1       0.657   9.286  21.990  0.00  0.00    +0.000 A 
ENDROOT
BRANCH   1  11
ATOM     10  C   UNL     1       2.293   7.179  19.578  0.00  0.00    +0.000 C 
ATOM     11  N   UNL     1       1.710   7.577  20.665  0.00  0.00    +0.000 NA
BRANCH  10  16
ATOM     12  C   UNL     1       4.872   4.529  18.814  0.00  0.00    +0.000 A 
ATOM     13  C   UNL     1       4.283   3.385  19.373  0.00  0.00    +0.000 A 
ATOM     14  C   UNL     1       3.040   3.485  20.004  0.00  0.00    +0.000 A 
ATOM     15  C   UNL     1       2.393   4.722  20.074  0.00  0.00    +0.000 A 
ATOM     16  C   UNL     1       2.980   5.865  19.511  0.00  0.00    +0.000 A 
ATOM     17  C   UNL     1       4.226   5.769  18.879  0.00  0.00    +0.000 A 
BRANCH  12  19
ATOM     18  O   UNL     1       6.192   4.255  16.927  0.00  0.00    +0.000 OA
ATOM     19  N   UNL     1       6.181   4.422  18.155  0.00  0.00    +0.000 N 
ATOM     20  O   UNL     1       7.194   4.504  18.862  0.00  0.00    +0.000 OA
ENDBRANCH  12  19
BRANCH  15  21
ATOM     21  O   UNL     1       1.180   4.812  20.699  0.00  0.00    +0.000 OA
ATOM     22  H   UNL     1       0.606   5.427  20.209  0.00  0.00    +0.000 HD
ENDBRANCH  15  21
ENDBRANCH  10  16
ENDBRANCH   1  11
BRANCH   6  23
ATOM     23  C   UNL     1      -1.928  13.294  23.340  0.00  0.00    +0.000 C 
BRANCH  23  24
ATOM     24  C   UNL     1      -3.423  13.045  23.370  0.00  0.00    +0.000 A 
ATOM     25  C   UNL     1      -4.038  12.526  24.521  0.00  0.00    +0.000 A 
ATOM     26  C   UNL     1      -5.424  12.347  24.567  0.00  0.00    +0.000 A 
ATOM     27  C   UNL     1      -6.205  12.686  23.464  0.00  0.00    +0.000 A 
ATOM     28 CL   UNL     1      -7.911  12.473  23.527  0.00  0.00    +0.000 Cl
ATOM     29  C   UNL     1      -5.611  13.204  22.316  0.00  0.00    +0.000 A 
ATOM     30  C   UNL     1      -4.226  13.384  22.269  0.00  0.00    +0.000 A 
ENDBRANCH  23  24
ENDBRANCH   6  23
TORSDOF 6
ENDMDL
MODEL 6
REMARK VINA RESULT:      -8.3      1.859      2.223
REMARK  Name = 
REMARK  6 active torsions:
REMARK  status: ('A' for Active; 'I' for Inactive)
REMARK    1  A    between atoms: N_2  and  C_4
REMARK    2  A    between atoms: C_7  and  O_8
REMARK    3  A    between atoms: C_9  and  C_10
REMARK    4  A    between atoms: N_11  and  C_12
REMARK    5  A    between atoms: C_17  and  C_18
REMARK    6  A    between atoms: C_18  and  C_19
REMARK                            x       y       z     vdW  Elec       q    Type
REMARK                         _______ _______ _______ _____ _____    ______ ____
ROOT
ATOM      1  C   UNL     1       7.869   8.543  17.801  0.00  0.00    +0.000 A 
ATOM      2  C   UNL     1       8.463   7.673  18.733  0.00  0.00    +0.000 A 
ATOM      3  C   UNL     1       8.036   6.346  18.903  0.00  0.00    +0.000 A 
ATOM      4  C   UNL     1       6.968   5.951  18.110  0.00  0.00    +0.000 A 
ATOM      5  O   UNL     1       6.348   4.735  18.097  0.00  0.00    +0.000 OA
ATOM      6  C   UNL     1       5.354   4.881  17.161  0.00  0.00    +0.000 A 
ATOM      7  N   UNL     1       5.303   6.075  16.594  0.00  0.00    +0.000 NA
ATOM      8  C   UNL     1       6.330   6.767  17.192  0.00  0.00    +0.000 A 
ATOM      9  C   UNL     1       6.783   8.086  17.030  0.00  0.00    +0.000 A 
ENDROOT
BRANCH   1  11
ATOM     10  C   UNL     1       9.273  10.374  18.274  0.00  0.00    +0.000 C 
ATOM     11  N   UNL     1       8.249   9.891  17.641  0.00  0.00    +0.000 NA
BRANCH  10  16
ATOM     12  C   UNL     1       9.110  14.146  18.202  0.00  0.00    +0.000 A 
ATOM     13  C   UNL     1      10.417  14.483  17.819  0.00  0.00    +0.000 A 
ATOM     14  C   UNL     1      11.352  13.470  17.587  0.00  0.00    +0.000 A 
ATOM     15  C   UNL     1      10.980  12.132  17.739  0.00  0.00    +0.000 A 
ATOM     16  C   UNL     1       9.672  11.795  18.118  0.00  0.00    +0.000 A 
ATOM     17  C   UNL     1       8.733  12.806  18.353  0.00  0.00    +0.000 A 
BRANCH  12  19
ATOM     18  O   UNL     1       8.260  15.882  19.483  0.00  0.00    +0.000 OA
ATOM     19  N   UNL     1       8.130  15.212  18.449  0.00  0.00    +0.000 N 
ATOM     20  O   UNL     1       7.233  15.379  17.612  0.00  0.00    +0.000 OA
ENDBRANCH  12  19
BRANCH  15  21
ATOM     21  O   UNL     1      11.904  11.148  17.517  0.00  0.00    +0.000 OA
ATOM     22  H   UNL     1      12.479  11.059  18.298  0.00  0.00    +0.000 HD
ENDBRANCH  15  21
ENDBRANCH  10  16
ENDBRANCH   1  11
BRANCH   6  23
ATOM     23  C   UNL     1       4.434   3.721  16.974  0.00  0.00    +0.000 C 
BRANCH  23  24
ATOM     24  C   UNL     1       3.587   3.385  18.184  0.00  0.00    +0.000 A 
ATOM     25  C   UNL     1       4.154   2.744  19.297  0.00  0.00    +0.000 A 
ATOM     26  C   UNL     1       3.385   2.481  20.435  0.00  0.00    +0.000 A 
ATOM     27  C   UNL     1       2.044   2.859  20.469  0.00  0.00    +0.000 A 
ATOM     28 CL   UNL     1       1.102   2.544  21.874  0.00  0.00    +0.000 Cl
ATOM     29  C   UNL     1       1.467   3.498  19.375  0.00  0.00    +0.000 A 
ATOM     30  C   UNL     1       2.235   3.762  18.237  0.00  0.00    +0.000 A 
ENDBRANCH  23  24
ENDBRANCH   6  23
TORSDOF 6
ENDMDL
MODEL 7
REMARK VINA RESULT:      -8.3      7.180     10.302
REMARK  Name = 
REMARK  6 active torsions:
REMARK  status: ('A' for Active; 'I' for Inactive)
REMARK    1  A    between atoms: N_2  and  C_4
REMARK    2  A    between atoms: C_7  and  O_8
REMARK    3  A    between atoms: C_9  and  C_10
REMARK    4  A    between atoms: N_11  and  C_12
REMARK    5  A    between atoms: C_17  and  C_18
REMARK    6  A    between atoms: C_18  and  C_19
REMARK                            x       y       z     vdW  Elec       q    Type
REMARK                         _______ _______ _______ _____ _____    ______ ____
ROOT
ATOM      1  C   UNL     1       1.620   8.307  19.854  0.00  0.00    +0.000 A 
ATOM      2  C   UNL     1       1.569   8.059  21.238  0.00  0.00    +0.000 A 
ATOM      3  C   UNL     1       0.989   8.962  22.144  0.00  0.00    +0.000 A 
ATOM      4  C   UNL     1       0.493  10.135  21.592  0.00  0.00    +0.000 A 
ATOM      5  O   UNL     1      -0.090  11.180  22.247  0.00  0.00    +0.000 OA
ATOM      6  C   UNL     1      -0.373  12.079  21.249  0.00  0.00    +0.000 A 
ATOM      7  N   UNL     1      -0.019  11.686  20.037  0.00  0.00    +0.000 NA
ATOM      8  C   UNL     1       0.535  10.444  20.243  0.00  0.00    +0.000 A 
ATOM      9  C   UNL     1       1.107   9.519  19.355  0.00  0.00    +0.000 A 
ENDROOT
BRANCH   1  11
ATOM     10  C   UNL     1       3.080   6.538  19.321  0.00  0.00    +0.000 C 
ATOM     11  N   UNL     1       2.234   7.439  18.929  0.00  0.00    +0.000 NA
BRANCH  10  16
ATOM     12  C   UNL     1       5.714   4.938  17.139  0.00  0.00    +0.000 A 
ATOM     13  C   UNL     1       4.986   3.913  16.515  0.00  0.00    +0.000 A 
ATOM     14  C   UNL     1       3.631   3.747  16.814  0.00  0.00    +0.000 A 
ATOM     15  C   UNL     1       3.011   4.600  17.731  0.00  0.00    +0.000 A 
ATOM     16  C   UNL     1       3.738   5.627  18.352  0.00  0.00    +0.000 A 
ATOM     17  C   UNL     1       5.096   5.796  18.056  0.00  0.00    +0.000 A 
BRANCH  12  19
ATOM     18  O   UNL     1       7.952   4.425  17.465  0.00  0.00    +0.000 OA
ATOM     19  N   UNL     1       7.139   5.108  16.827  0.00  0.00    +0.000 N 
ATOM     20  O   UNL     1       7.445   5.923  15.945  0.00  0.00    +0.000 OA
ENDBRANCH  12  19
BRANCH  15  21
ATOM     21  O   UNL     1       1.686   4.425  18.022  0.00  0.00    +0.000 OA
ATOM     22  H   UNL     1       1.588   3.705  18.671  0.00  0.00    +0.000 HD
ENDBRANCH  15  21
ENDBRANCH  10  16
ENDBRANCH   1  11
BRANCH   6  23
ATOM     23  C   UNL     1      -0.956  13.387  21.670  0.00  0.00    +0.000 C 
BRANCH  23  24
ATOM     24  C   UNL     1      -2.339  13.294  22.283  0.00  0.00    +0.000 A 
ATOM     25  C   UNL     1      -3.451  12.963  21.491  0.00  0.00    +0.000 A 
ATOM     26  C   UNL     1      -4.718  12.825  22.067  0.00  0.00    +0.000 A 
ATOM     27  C   UNL     1      -4.882  13.016  23.437  0.00  0.00    +0.000 A 
ATOM     28 CL   UNL     1      -6.440  12.837  24.145  0.00  0.00    +0.000 Cl
ATOM     29  C   UNL     1      -3.790  13.342  24.237  0.00  0.00    +0.000 A 
ATOM     30  C   UNL     1      -2.522  13.480  23.663  0.00  0.00    +0.000 A 
ENDBRANCH  23  24
ENDBRANCH   6  23
TORSDOF 6
ENDMDL
MODEL 8
REMARK VINA RESULT:      -8.2      7.202     10.261
REMARK  Name = 
REMARK  6 active torsions:
REMARK  status: ('A' for Active; 'I' for Inactive)
REMARK    1  A    between atoms: N_2  and  C_4
REMARK    2  A    between atoms: C_7  and  O_8
REMARK    3  A    between atoms: C_9  and  C_10
REMARK    4  A    between atoms: N_11  and  C_12
REMARK    5  A    between atoms: C_17  and  C_18
REMARK    6  A    between atoms: C_18  and  C_19
REMARK                            x       y       z     vdW  Elec       q    Type
REMARK                         _______ _______ _______ _____ _____    ______ ____
ROOT
ATOM      1  C   UNL     1       1.409   8.217  20.393  0.00  0.00    +0.000 A 
ATOM      2  C   UNL     1       1.277   8.458  21.772  0.00  0.00    +0.000 A 
ATOM      3  C   UNL     1       0.474   9.491  22.283  0.00  0.00    +0.000 A 
ATOM      4  C   UNL     1      -0.163  10.282  21.337  0.00  0.00    +0.000 A 
ATOM      5  O   UNL     1      -0.973  11.358  21.563  0.00  0.00    +0.000 OA
ATOM      6  C   UNL     1      -1.314  11.783  20.303  0.00  0.00    +0.000 A 
ATOM      7  N   UNL     1      -0.791  11.070  19.319  0.00  0.00    +0.000 NA
ATOM      8  C   UNL     1      -0.055  10.107  19.968  0.00  0.00    +0.000 A 
ATOM      9  C   UNL     1       0.744   9.059  19.482  0.00  0.00    +0.000 A 
ENDROOT
BRANCH   1  11
ATOM     10  C   UNL     1       2.526   7.195  18.589  0.00  0.00    +0.000 C 
ATOM     11  N   UNL     1       2.242   7.216  19.853  0.00  0.00    +0.000 NA
BRANCH  10  16
ATOM     12  C   UNL     1       5.512   5.464  17.056  0.00  0.00    +0.000 A 
ATOM     13  C   UNL     1       5.041   4.149  16.917  0.00  0.00    +0.000 A 
ATOM     14  C   UNL     1       3.744   3.832  17.330  0.00  0.00    +0.000 A 
ATOM     15  C   UNL     1       2.926   4.823  17.878  0.00  0.00    +0.000 A 
ATOM     16  C   UNL     1       3.395   6.138  18.013  0.00  0.00    +0.000 A 
ATOM     17  C   UNL     1       4.694   6.461  17.602  0.00  0.00    +0.000 A 
BRANCH  12  19
ATOM     18  O   UNL     1       7.596   4.864  16.238  0.00  0.00    +0.000 OA
ATOM     19  N   UNL     1       6.876   5.795  16.625  0.00  0.00    +0.000 N 
ATOM     20  O   UNL     1       7.227   6.981  16.674  0.00  0.00    +0.000 OA
ENDBRANCH  12  19
BRANCH  15  21
ATOM     21  O   UNL     1       1.661   4.501  18.285  0.00  0.00    +0.000 OA
ATOM     22  H   UNL     1       1.120   5.310  18.337  0.00  0.00    +0.000 HD
ENDBRANCH  15  21
ENDBRANCH  10  16
ENDBRANCH   1  11
BRANCH   6  23
ATOM     23  C   UNL     1      -2.147  13.019  20.215  0.00  0.00    +0.000 C 
BRANCH  23  24
ATOM     24  C   UNL     1      -3.586  12.843  20.656  0.00  0.00    +0.000 A 
ATOM     25  C   UNL     1      -3.968  13.123  21.979  0.00  0.00    +0.000 A 
ATOM     26  C   UNL     1      -5.305  13.012  22.372  0.00  0.00    +0.000 A 
ATOM     27  C   UNL     1      -6.270  12.621  21.446  0.00  0.00    +0.000 A 
ATOM     28 CL   UNL     1      -7.917  12.493  21.930  0.00  0.00    +0.000 Cl
ATOM     29  C   UNL     1      -5.909  12.341  20.131  0.00  0.00    +0.000 A 
ATOM     30  C   UNL     1      -4.573  12.453  19.736  0.00  0.00    +0.000 A 
ENDBRANCH  23  24
ENDBRANCH   6  23
TORSDOF 6
ENDMDL
MODEL 9
REMARK VINA RESULT:      -8.2      8.065      9.977
REMARK  Name = 
REMARK  6 active torsions:
REMARK  status: ('A' for Active; 'I' for Inactive)
REMARK    1  A    between atoms: N_2  and  C_4
REMARK    2  A    between atoms: C_7  and  O_8
REMARK    3  A    between atoms: C_9  and  C_10
REMARK    4  A    between atoms: N_11  and  C_12
REMARK    5  A    between atoms: C_17  and  C_18
REMARK    6  A    between atoms: C_18  and  C_19
REMARK                            x       y       z     vdW  Elec       q    Type
REMARK                         _______ _______ _______ _____ _____    ______ ____
ROOT
ATOM      1  C   UNL     1       0.480  10.243  20.049  0.00  0.00    +0.000 A 
ATOM      2  C   UNL     1       1.018  10.344  18.754  0.00  0.00    +0.000 A 
ATOM      3  C   UNL     1       1.758   9.307  18.162  0.00  0.00    +0.000 A 
ATOM      4  C   UNL     1       1.952   8.181  18.950  0.00  0.00    +0.000 A 
ATOM      5  O   UNL     1       2.651   7.053  18.629  0.00  0.00    +0.000 OA
ATOM      6  C   UNL     1       2.551   6.272  19.754  0.00  0.00    +0.000 A 
ATOM      7  N   UNL     1       1.856   6.813  20.741  0.00  0.00    +0.000 NA
ATOM      8  C   UNL     1       1.467   8.033  20.238  0.00  0.00    +0.000 A 
ATOM      9  C   UNL     1       0.718   9.078  20.803  0.00  0.00    +0.000 A 
ENDROOT
BRANCH   1  11
ATOM     10  C   UNL     1      -0.480  11.244  21.953  0.00  0.00    +0.000 C 
ATOM     11  N   UNL     1      -0.229  11.284  20.682  0.00  0.00    +0.000 NA
BRANCH  10  16
ATOM     12  C   UNL     1      -3.239  13.114  23.728  0.00  0.00    +0.000 A 
ATOM     13  C   UNL     1      -2.668  14.386  23.885  0.00  0.00    +0.000 A 
ATOM     14  C   UNL     1      -1.376  14.628  23.410  0.00  0.00    +0.000 A 
ATOM     15  C   UNL     1      -0.662  13.603  22.784  0.00  0.00    +0.000 A 
ATOM     16  C   UNL     1      -1.234  12.333  22.623  0.00  0.00    +0.000 A 
ATOM     17  C   UNL     1      -2.527  12.085  23.098  0.00  0.00    +0.000 A 
BRANCH  12  19
ATOM     18  O   UNL     1      -4.759  11.882  24.973  0.00  0.00    +0.000 OA
ATOM     19  N   UNL     1      -4.596  12.861  24.230  0.00  0.00    +0.000 N 
ATOM     20  O   UNL     1      -5.496  13.638  23.884  0.00  0.00    +0.000 OA
ENDBRANCH  12  19
BRANCH  15  21
ATOM     21  O   UNL     1       0.605  13.847  22.329  0.00  0.00    +0.000 OA
ATOM     22  H   UNL     1       1.249  13.616  23.021  0.00  0.00    +0.000 HD
ENDBRANCH  15  21
ENDBRANCH  10  16
ENDBRANCH   1  11
BRANCH   6  23
ATOM     23  C   UNL     1       3.296   4.979  19.741  0.00  0.00    +0.000 C 
BRANCH  23  24
ATOM     24  C   UNL     1       4.284   4.832  18.602  0.00  0.00    +0.000 A 
ATOM     25  C   UNL     1       3.893   4.246  17.387  0.00  0.00    +0.000 A 
ATOM     26  C   UNL     1       4.791   4.158  16.318  0.00  0.00    +0.000 A 
ATOM     27  C   UNL     1       6.085   4.656  16.456  0.00  0.00    +0.000 A 
ATOM     28 CL   UNL     1       7.185   4.555  15.136  0.00  0.00    +0.000 Cl
ATOM     29  C   UNL     1       6.489   5.241  17.653  0.00  0.00    +0.000 A 
ATOM     30  C   UNL     1       5.592   5.330  18.722  0.00  0.00    +0.000 A 
ENDBRANCH  23  24
ENDBRANCH   6  23
TORSDOF 6
ENDMDL
