MODEL 1
REMARK VINA RESULT:      -7.5      0.000      0.000
REMARK  Name = 
REMARK  4 active torsions:
REMARK  status: ('A' for Active; 'I' for Inactive)
REMARK    1  A    between atoms: C_2  and  C_5
REMARK    2  A    between atoms: C_8  and  S_9
REMARK    3  A    between atoms: S_9  and  C_10
REMARK    4  A    between atoms: C_10  and  C_11
REMARK                            x       y       z     vdW  Elec       q    Type
REMARK                         _______ _______ _______ _____ _____    ______ ____
ROOT
ATOM      1  C   UNL     1       6.691   4.269  13.747  0.00  0.00    +0.000 A 
ATOM      2  N   UNL     1       7.557   5.306  13.824  0.00  0.00    +0.000 NA
ATOM      3  N   UNL     1       7.636   5.505  15.150  0.00  0.00    +0.000 N 
ATOM      4  C   UNL     1       6.855   4.629  15.831  0.00  0.00    +0.000 A 
ATOM      5  N   UNL     1       6.242   3.829  14.995  0.00  0.00    +0.000 NA
ATOM      6  H   UNL     1       8.226   6.241  15.520  0.00  0.00    +0.000 HD
ENDROOT
BRANCH   1   8
ATOM      7  F   UNL     1       4.887   3.614  12.297  0.00  0.00    +0.000 F 
ATOM      8  C   UNL     1       6.242   3.645  12.439  0.00  0.00    +0.000 C 
ATOM      9  F   UNL     1       6.667   2.357  12.312  0.00  0.00    +0.000 F 
ATOM     10  F   UNL     1       6.722   4.321  11.357  0.00  0.00    +0.000 F 
ENDBRANCH   1   8
BRANCH   4  11
ATOM     11  S   UNL     1       6.784   4.693  17.547  0.00  0.00    +0.000 S 
BRANCH  11  12
ATOM     12  C   UNL     1       5.288   5.681  17.829  0.00  0.00    +0.000 C 
BRANCH  12  13
ATOM     13  C   UNL     1       4.086   4.790  18.069  0.00  0.00    +0.000 A 
ATOM     14  C   UNL     1       4.255   3.437  18.403  0.00  0.00    +0.000 A 
ATOM     15  C   UNL     1       3.143   2.612  18.609  0.00  0.00    +0.000 A 
ATOM     16  C   UNL     1       1.859   3.133  18.476  0.00  0.00    +0.000 A 
ATOM     17 CL   UNL     1       0.493   2.117  18.731  0.00  0.00    +0.000 Cl
ATOM     18  C   UNL     1       1.675   4.469  18.134  0.00  0.00    +0.000 A 
ATOM     19  C   UNL     1       2.784   5.296  17.930  0.00  0.00    +0.000 A 
ENDBRANCH  12  13
ENDBRANCH  11  12
ENDBRANCH   4  11
TORSDOF 4
ENDMDL
MODEL 2
REMARK VINA RESULT:      -7.4      1.229      1.890
REMARK  Name = 
REMARK  4 active torsions:
REMARK  status: ('A' for Active; 'I' for Inactive)
REMARK    1  A    between atoms: C_2  and  C_5
REMARK    2  A    between atoms: C_8  and  S_9
REMARK    3  A    between atoms: S_9  and  C_10
REMARK    4  A    between atoms: C_10  and  C_11
REMARK                            x       y       z     vdW  Elec       q    Type
REMARK                         _______ _______ _______ _____ _____    ______ ____
ROOT
ATOM      1  C   UNL     1       6.749   4.327  13.907  0.00  0.00    +0.000 A 
ATOM      2  N   UNL     1       7.564   5.401  14.020  0.00  0.00    +0.000 NA
ATOM      3  N   UNL     1       7.603   5.580  15.351  0.00  0.00    +0.000 N 
ATOM      4  C   UNL     1       6.849   4.657  15.999  0.00  0.00    +0.000 A 
ATOM      5  N   UNL     1       6.293   3.844  15.136  0.00  0.00    +0.000 NA
ATOM      6  H   UNL     1       8.150   6.336  15.747  0.00  0.00    +0.000 HD
ENDROOT
BRANCH   1   8
ATOM      7  F   UNL     1       6.924   4.333  11.507  0.00  0.00    +0.000 F 
ATOM      8  C   UNL     1       6.360   3.706  12.578  0.00  0.00    +0.000 C 
ATOM      9  F   UNL     1       5.014   3.738  12.371  0.00  0.00    +0.000 F 
ATOM     10  F   UNL     1       6.734   2.398  12.493  0.00  0.00    +0.000 F 
ENDBRANCH   1   8
BRANCH   4  11
ATOM     11  S   UNL     1       6.736   4.687  17.714  0.00  0.00    +0.000 S 
BRANCH  11  12
ATOM     12  C   UNL     1       5.210   5.635  17.978  0.00  0.00    +0.000 C 
BRANCH  12  13
ATOM     13  C   UNL     1       4.261   4.889  18.894  0.00  0.00    +0.000 A 
ATOM     14  C   UNL     1       3.144   5.536  19.446  0.00  0.00    +0.000 A 
ATOM     15  C   UNL     1       2.277   4.849  20.304  0.00  0.00    +0.000 A 
ATOM     16  C   UNL     1       2.527   3.517  20.620  0.00  0.00    +0.000 A 
ATOM     17 CL   UNL     1       1.458   2.674  21.674  0.00  0.00    +0.000 Cl
ATOM     18  C   UNL     1       3.636   2.865  20.091  0.00  0.00    +0.000 A 
ATOM     19  C   UNL     1       4.502   3.548  19.232  0.00  0.00    +0.000 A 
ENDBRANCH  12  13
ENDBRANCH  11  12
ENDBRANCH   4  11
TORSDOF 4
ENDMDL
MODEL 3
REMARK VINA RESULT:      -7.3      1.170      1.431
REMARK  Name = 
REMARK  4 active torsions:
REMARK  status: ('A' for Active; 'I' for Inactive)
REMARK    1  A    between atoms: C_2  and  C_5
REMARK    2  A    between atoms: C_8  and  S_9
REMARK    3  A    between atoms: S_9  and  C_10
REMARK    4  A    between atoms: C_10  and  C_11
REMARK                            x       y       z     vdW  Elec       q    Type
REMARK                         _______ _______ _______ _____ _____    ______ ____
ROOT
ATOM      1  C   UNL     1       6.486   4.212  13.815  0.00  0.00    +0.000 A 
ATOM      2  N   UNL     1       7.379   5.228  13.831  0.00  0.00    +0.000 NA
ATOM      3  N   UNL     1       7.531   5.444  15.148  0.00  0.00    +0.000 N 
ATOM      4  C   UNL     1       6.766   4.597  15.882  0.00  0.00    +0.000 A 
ATOM      5  N   UNL     1       6.091   3.801  15.092  0.00  0.00    +0.000 NA
ATOM      6  H   UNL     1       8.158   6.170  15.476  0.00  0.00    +0.000 HD
ENDROOT
BRANCH   1   8
ATOM      7  F   UNL     1       6.104   2.227  12.512  0.00  0.00    +0.000 F 
ATOM      8  C   UNL     1       5.954   3.581  12.542  0.00  0.00    +0.000 C 
ATOM      9  F   UNL     1       6.582   4.058  11.431  0.00  0.00    +0.000 F 
ATOM     10  F   UNL     1       4.623   3.820  12.368  0.00  0.00    +0.000 F 
ENDBRANCH   1   8
BRANCH   4  11
ATOM     11  S   UNL     1       6.787   4.687  17.598  0.00  0.00    +0.000 S 
BRANCH  11  12
ATOM     12  C   UNL     1       5.299   5.667  17.946  0.00  0.00    +0.000 C 
BRANCH  12  13
ATOM     13  C   UNL     1       4.343   4.904  18.840  0.00  0.00    +0.000 A 
ATOM     14  C   UNL     1       4.535   3.536  19.090  0.00  0.00    +0.000 A 
ATOM     15  C   UNL     1       3.642   2.830  19.904  0.00  0.00    +0.000 A 
ATOM     16  C   UNL     1       2.550   3.486  20.466  0.00  0.00    +0.000 A 
ATOM     17 CL   UNL     1       1.453   2.617  21.468  0.00  0.00    +0.000 Cl
ATOM     18  C   UNL     1       2.339   4.839  20.219  0.00  0.00    +0.000 A 
ATOM     19  C   UNL     1       3.231   5.547  19.407  0.00  0.00    +0.000 A 
ENDBRANCH  12  13
ENDBRANCH  11  12
ENDBRANCH   4  11
TORSDOF 4
ENDMDL
MODEL 4
REMARK VINA RESULT:      -7.3      0.836      1.421
REMARK  Name = 
REMARK  4 active torsions:
REMARK  status: ('A' for Active; 'I' for Inactive)
REMARK    1  A    between atoms: C_2  and  C_5
REMARK    2  A    between atoms: C_8  and  S_9
REMARK    3  A    between atoms: S_9  and  C_10
REMARK    4  A    between atoms: C_10  and  C_11
REMARK                            x       y       z     vdW  Elec       q    Type
REMARK                         _______ _______ _______ _____ _____    ______ ____
ROOT
ATOM      1  C   UNL     1       6.701   4.330  13.820  0.00  0.00    +0.000 A 
ATOM      2  N   UNL     1       7.537   5.390  13.897  0.00  0.00    +0.000 NA
ATOM      3  N   UNL     1       7.620   5.582  15.224  0.00  0.00    +0.000 N 
ATOM      4  C   UNL     1       6.869   4.679  15.905  0.00  0.00    +0.000 A 
ATOM      5  N   UNL     1       6.273   3.868  15.068  0.00  0.00    +0.000 NA
ATOM      6  H   UNL     1       8.192   6.332  15.596  0.00  0.00    +0.000 HD
ENDROOT
BRANCH   1   8
ATOM      7  F   UNL     1       6.636   2.399  12.387  0.00  0.00    +0.000 F 
ATOM      8  C   UNL     1       6.259   3.703  12.510  0.00  0.00    +0.000 C 
ATOM      9  F   UNL     1       6.777   4.351  11.430  0.00  0.00    +0.000 F 
ATOM     10  F   UNL     1       4.905   3.723  12.363  0.00  0.00    +0.000 F 
ENDBRANCH   1   8
BRANCH   4  11
ATOM     11  S   UNL     1       6.810   4.729  17.622  0.00  0.00    +0.000 S 
BRANCH  11  12
ATOM     12  C   UNL     1       5.462   5.908  17.921  0.00  0.00    +0.000 C 
BRANCH  12  13
ATOM     13  C   UNL     1       4.212   5.193  18.394  0.00  0.00    +0.000 A 
ATOM     14  C   UNL     1       3.550   5.606  19.561  0.00  0.00    +0.000 A 
ATOM     15  C   UNL     1       2.404   4.935  20.004  0.00  0.00    +0.000 A 
ATOM     16  C   UNL     1       1.920   3.845  19.286  0.00  0.00    +0.000 A 
ATOM     17 CL   UNL     1       0.510   3.021  19.832  0.00  0.00    +0.000 Cl
ATOM     18  C   UNL     1       2.571   3.415  18.134  0.00  0.00    +0.000 A 
ATOM     19  C   UNL     1       3.714   4.086  17.689  0.00  0.00    +0.000 A 
ENDBRANCH  12  13
ENDBRANCH  11  12
ENDBRANCH   4  11
TORSDOF 4
ENDMDL
MODEL 5
REMARK VINA RESULT:      -7.2      1.346      1.849
REMARK  Name = 
REMARK  4 active torsions:
REMARK  status: ('A' for Active; 'I' for Inactive)
REMARK    1  A    between atoms: C_2  and  C_5
REMARK    2  A    between atoms: C_8  and  S_9
REMARK    3  A    between atoms: S_9  and  C_10
REMARK    4  A    between atoms: C_10  and  C_11
REMARK                            x       y       z     vdW  Elec       q    Type
REMARK                         _______ _______ _______ _____ _____    ______ ____
ROOT
ATOM      1  C   UNL     1       6.744   4.428  13.536  0.00  0.00    +0.000 A 
ATOM      2  N   UNL     1       7.723   5.206  14.051  0.00  0.00    +0.000 NA
ATOM      3  N   UNL     1       7.306   5.377  15.316  0.00  0.00    +0.000 N 
ATOM      4  C   UNL     1       6.135   4.731  15.545  0.00  0.00    +0.000 A 
ATOM      5  N   UNL     1       5.740   4.116  14.458  0.00  0.00    +0.000 NA
ATOM      6  H   UNL     1       7.852   5.936  15.961  0.00  0.00    +0.000 HD
ENDROOT
BRANCH   1   8
ATOM      7  F   UNL     1       5.468   3.717  11.625  0.00  0.00    +0.000 F 
ATOM      8  C   UNL     1       6.725   3.942  12.099  0.00  0.00    +0.000 C 
ATOM      9  F   UNL     1       7.404   2.771  11.944  0.00  0.00    +0.000 F 
ATOM     10  F   UNL     1       7.298   4.839  11.247  0.00  0.00    +0.000 F 
ENDBRANCH   1   8
BRANCH   4  11
ATOM     11  S   UNL     1       5.398   4.809  17.096  0.00  0.00    +0.000 S 
BRANCH  11  12
ATOM     12  C   UNL     1       3.816   3.965  16.807  0.00  0.00    +0.000 C 
BRANCH  12  13
ATOM     13  C   UNL     1       3.163   3.575  18.117  0.00  0.00    +0.000 A 
ATOM     14  C   UNL     1       1.794   3.804  18.330  0.00  0.00    +0.000 A 
ATOM     15  C   UNL     1       1.196   3.456  19.547  0.00  0.00    +0.000 A 
ATOM     16  C   UNL     1       1.964   2.886  20.558  0.00  0.00    +0.000 A 
ATOM     17 CL   UNL     1       1.227   2.457  22.054  0.00  0.00    +0.000 Cl
ATOM     18  C   UNL     1       3.324   2.663  20.368  0.00  0.00    +0.000 A 
ATOM     19  C   UNL     1       3.923   3.007  19.152  0.00  0.00    +0.000 A 
ENDBRANCH  12  13
ENDBRANCH  11  12
ENDBRANCH   4  11
TORSDOF 4
ENDMDL
MODEL 6
REMARK VINA RESULT:      -7.1      2.061      2.602
REMARK  Name = 
REMARK  4 active torsions:
REMARK  status: ('A' for Active; 'I' for Inactive)
REMARK    1  A    between atoms: C_2  and  C_5
REMARK    2  A    between atoms: C_8  and  S_9
REMARK    3  A    between atoms: S_9  and  C_10
REMARK    4  A    between atoms: C_10  and  C_11
REMARK                            x       y       z     vdW  Elec       q    Type
REMARK                         _______ _______ _______ _____ _____    ______ ____
ROOT
ATOM      1  C   UNL     1       6.560   4.286  14.076  0.00  0.00    +0.000 A 
ATOM      2  N   UNL     1       7.468   5.287  14.139  0.00  0.00    +0.000 NA
ATOM      3  N   UNL     1       7.553   5.502  15.462  0.00  0.00    +0.000 N 
ATOM      4  C   UNL     1       6.736   4.668  16.154  0.00  0.00    +0.000 A 
ATOM      5  N   UNL     1       6.091   3.882  15.329  0.00  0.00    +0.000 NA
ATOM      6  H   UNL     1       8.173   6.218  15.823  0.00  0.00    +0.000 HD
ENDROOT
BRANCH   1   8
ATOM      7  F   UNL     1       4.755   3.838  12.550  0.00  0.00    +0.000 F 
ATOM      8  C   UNL     1       6.087   3.663  12.775  0.00  0.00    +0.000 C 
ATOM      9  F   UNL     1       6.304   2.318  12.741  0.00  0.00    +0.000 F 
ATOM     10  F   UNL     1       6.727   4.187  11.692  0.00  0.00    +0.000 F 
ENDBRANCH   1   8
BRANCH   4  11
ATOM     11  S   UNL     1       6.666   4.759  17.869  0.00  0.00    +0.000 S 
BRANCH  11  12
ATOM     12  C   UNL     1       4.957   4.248  18.208  0.00  0.00    +0.000 C 
BRANCH  12  13
ATOM     13  C   UNL     1       4.059   5.452  18.402  0.00  0.00    +0.000 A 
ATOM     14  C   UNL     1       4.083   6.517  17.487  0.00  0.00    +0.000 A 
ATOM     15  C   UNL     1       3.263   7.636  17.677  0.00  0.00    +0.000 A 
ATOM     16  C   UNL     1       2.422   7.698  18.785  0.00  0.00    +0.000 A 
ATOM     17 CL   UNL     1       1.413   9.074  19.016  0.00  0.00    +0.000 Cl
ATOM     18  C   UNL     1       2.395   6.656  19.707  0.00  0.00    +0.000 A 
ATOM     19  C   UNL     1       3.211   5.537  19.518  0.00  0.00    +0.000 A 
ENDBRANCH  12  13
ENDBRANCH  11  12
ENDBRANCH   4  11
TORSDOF 4
ENDMDL
MODEL 7
REMARK VINA RESULT:      -7.1      1.351      1.768
REMARK  Name = 
REMARK  4 active torsions:
REMARK  status: ('A' for Active; 'I' for Inactive)
REMARK    1  A    between atoms: C_2  and  C_5
REMARK    2  A    between atoms: C_8  and  S_9
REMARK    3  A    between atoms: S_9  and  C_10
REMARK    4  A    between atoms: C_10  and  C_11
REMARK                            x       y       z     vdW  Elec       q    Type
REMARK                         _______ _______ _______ _____ _____    ______ ____
ROOT
ATOM      1  C   UNL     1       6.866   4.399  13.525  0.00  0.00    +0.000 A 
ATOM      2  N   UNL     1       7.707   5.370  13.947  0.00  0.00    +0.000 NA
ATOM      3  N   UNL     1       7.382   5.475  15.246  0.00  0.00    +0.000 N 
ATOM      4  C   UNL     1       6.394   4.607  15.582  0.00  0.00    +0.000 A 
ATOM      5  N   UNL     1       6.037   3.905  14.536  0.00  0.00    +0.000 NA
ATOM      6  H   UNL     1       7.858   6.145  15.838  0.00  0.00    +0.000 HD
ENDROOT
BRANCH   1   8
ATOM      7  F   UNL     1       7.518   2.739  11.910  0.00  0.00    +0.000 F 
ATOM      8  C   UNL     1       6.817   3.893  12.095  0.00  0.00    +0.000 C 
ATOM      9  F   UNL     1       7.331   4.796  11.213  0.00  0.00    +0.000 F 
ATOM     10  F   UNL     1       5.543   3.634  11.686  0.00  0.00    +0.000 F 
ENDBRANCH   1   8
BRANCH   4  11
ATOM     11  S   UNL     1       5.801   4.560  17.195  0.00  0.00    +0.000 S 
BRANCH  11  12
ATOM     12  C   UNL     1       4.009   4.434  16.937  0.00  0.00    +0.000 C 
BRANCH  12  13
ATOM     13  C   UNL     1       3.314   3.944  18.190  0.00  0.00    +0.000 A 
ATOM     14  C   UNL     1       2.485   2.811  18.153  0.00  0.00    +0.000 A 
ATOM     15  C   UNL     1       1.832   2.369  19.309  0.00  0.00    +0.000 A 
ATOM     16  C   UNL     1       1.998   3.061  20.505  0.00  0.00    +0.000 A 
ATOM     17 CL   UNL     1       1.194   2.515  21.927  0.00  0.00    +0.000 Cl
ATOM     18  C   UNL     1       2.805   4.192  20.558  0.00  0.00    +0.000 A 
ATOM     19  C   UNL     1       3.461   4.634  19.404  0.00  0.00    +0.000 A 
ENDBRANCH  12  13
ENDBRANCH  11  12
ENDBRANCH   4  11
TORSDOF 4
ENDMDL
MODEL 8
REMARK VINA RESULT:      -7.1      1.949      2.429
REMARK  Name = 
REMARK  4 active torsions:
REMARK  status: ('A' for Active; 'I' for Inactive)
REMARK    1  A    between atoms: C_2  and  C_5
REMARK    2  A    between atoms: C_8  and  S_9
REMARK    3  A    between atoms: S_9  and  C_10
REMARK    4  A    between atoms: C_10  and  C_11
REMARK                            x       y       z     vdW  Elec       q    Type
REMARK                         _______ _______ _______ _____ _____    ______ ____
ROOT
ATOM      1  C   UNL     1       6.645   4.268  13.757  0.00  0.00    +0.000 A 
ATOM      2  N   UNL     1       7.480   5.285  14.070  0.00  0.00    +0.000 NA
ATOM      3  N   UNL     1       7.274   5.417  15.391  0.00  0.00    +0.000 N 
ATOM      4  C   UNL     1       6.362   4.520  15.843  0.00  0.00    +0.000 A 
ATOM      5  N   UNL     1       5.937   3.773  14.855  0.00  0.00    +0.000 NA
ATOM      6  H   UNL     1       7.776   6.123  15.916  0.00  0.00    +0.000 HD
ENDROOT
BRANCH   1   8
ATOM      7  F   UNL     1       6.839   2.407  12.245  0.00  0.00    +0.000 F 
ATOM      8  C   UNL     1       6.482   3.718  12.352  0.00  0.00    +0.000 C 
ATOM      9  F   UNL     1       7.241   4.393  11.444  0.00  0.00    +0.000 F 
ATOM     10  F   UNL     1       5.193   3.797  11.916  0.00  0.00    +0.000 F 
ENDBRANCH   1   8
BRANCH   4  11
ATOM     11  S   UNL     1       5.927   4.499  17.506  0.00  0.00    +0.000 S 
BRANCH  11  12
ATOM     12  C   UNL     1       4.134   4.227  17.426  0.00  0.00    +0.000 C 
BRANCH  12  13
ATOM     13  C   UNL     1       3.399   5.175  18.352  0.00  0.00    +0.000 A 
ATOM     14  C   UNL     1       2.851   4.715  19.560  0.00  0.00    +0.000 A 
ATOM     15  C   UNL     1       2.160   5.590  20.406  0.00  0.00    +0.000 A 
ATOM     16  C   UNL     1       2.007   6.926  20.045  0.00  0.00    +0.000 A 
ATOM     17 CL   UNL     1       1.158   8.001  21.088  0.00  0.00    +0.000 Cl
ATOM     18  C   UNL     1       2.534   7.395  18.847  0.00  0.00    +0.000 A 
ATOM     19  C   UNL     1       3.226   6.524  18.001  0.00  0.00    +0.000 A 
ENDBRANCH  12  13
ENDBRANCH  11  12
ENDBRANCH   4  11
TORSDOF 4
ENDMDL
MODEL 9
REMARK VINA RESULT:      -7.0      0.815      1.249
REMARK  Name = 
REMARK  4 active torsions:
REMARK  status: ('A' for Active; 'I' for Inactive)
REMARK    1  A    between atoms: C_2  and  C_5
REMARK    2  A    between atoms: C_8  and  S_9
REMARK    3  A    between atoms: S_9  and  C_10
REMARK    4  A    between atoms: C_10  and  C_11
REMARK                            x       y       z     vdW  Elec       q    Type
REMARK                         _______ _______ _______ _____ _____    ______ ____
ROOT
ATOM      1  C   UNL     1       6.657   4.611  13.836  0.00  0.00    +0.000 A 
ATOM      2  N   UNL     1       7.842   5.199  14.118  0.00  0.00    +0.000 NA
ATOM      3  N   UNL     1       7.602   5.744  15.322  0.00  0.00    +0.000 N 
ATOM      4  C   UNL     1       6.335   5.492  15.738  0.00  0.00    +0.000 A 
ATOM      5  N   UNL     1       5.700   4.781  14.840  0.00  0.00    +0.000 NA
ATOM      6  H   UNL     1       8.328   6.266  15.799  0.00  0.00    +0.000 HD
ENDROOT
BRANCH   1   8
ATOM      7  F   UNL     1       7.045   4.354  11.475  0.00  0.00    +0.000 F 
ATOM      8  C   UNL     1       6.384   3.846  12.554  0.00  0.00    +0.000 C 
ATOM      9  F   UNL     1       5.062   3.850  12.225  0.00  0.00    +0.000 F 
ATOM     10  F   UNL     1       6.757   2.539  12.647  0.00  0.00    +0.000 F 
ENDBRANCH   1   8
BRANCH   4  11
ATOM     11  S   UNL     1       5.790   6.095  17.252  0.00  0.00    +0.000 S 
BRANCH  11  12
ATOM     12  C   UNL     1       5.853   4.611  18.297  0.00  0.00    +0.000 C 
BRANCH  12  13
ATOM     13  C   UNL     1       4.476   4.000  18.453  0.00  0.00    +0.000 A 
ATOM     14  C   UNL     1       4.250   2.973  19.384  0.00  0.00    +0.000 A 
ATOM     15  C   UNL     1       2.980   2.399  19.516  0.00  0.00    +0.000 A 
ATOM     16  C   UNL     1       1.933   2.843  18.713  0.00  0.00    +0.000 A 
ATOM     17 CL   UNL     1       0.372   2.137  18.878  0.00  0.00    +0.000 Cl
ATOM     18  C   UNL     1       2.142   3.851  17.778  0.00  0.00    +0.000 A 
ATOM     19  C   UNL     1       3.409   4.427  17.646  0.00  0.00    +0.000 A 
ENDBRANCH  12  13
ENDBRANCH  11  12
ENDBRANCH   4  11
TORSDOF 4
ENDMDL
