MODEL 1
REMARK VINA RESULT:      -8.8      0.000      0.000
REMARK  Name = 
REMARK  3 active torsions:
REMARK  status: ('A' for Active; 'I' for Inactive)
REMARK    1  A    between atoms: C_4  and  N_5
REMARK    2  A    between atoms: N_5  and  C_6
REMARK    3  A    between atoms: C_11  and  C_12
REMARK                            x       y       z     vdW  Elec       q    Type
REMARK                         _______ _______ _______ _____ _____    ______ ____
ROOT
ATOM      1  N   UNL     1       1.872   7.918  21.090  0.00  0.00    +0.000 N 
ATOM      2  H   UNL     1       1.808   7.617  22.069  0.00  0.00    +0.000 HD
ENDROOT
BRANCH   1   6
ATOM      3  O   UNL     1      -0.544  10.950  18.314  0.00  0.00    +0.000 OA
ATOM      4  C   UNL     1      -0.275  10.562  19.443  0.00  0.00    +0.000 C 
ATOM      5  C   UNL     1       0.676   9.459  19.645  0.00  0.00    +0.000 C 
ATOM      6  C   UNL     1       1.019   8.991  20.852  0.00  0.00    +0.000 C 
ATOM      7  C   UNL     1       0.500   9.685  22.078  0.00  0.00    +0.000 C 
ATOM      8  O   UNL     1       0.913   9.364  23.188  0.00  0.00    +0.000 OA
ATOM      9  C   UNL     1      -0.532  10.725  21.908  0.00  0.00    +0.000 A 
ATOM     10  C   UNL     1      -1.147  11.286  23.038  0.00  0.00    +0.000 A 
ATOM     11  C   UNL     1      -2.139  12.257  22.881  0.00  0.00    +0.000 A 
ATOM     12  C   UNL     1      -2.521  12.670  21.605  0.00  0.00    +0.000 A 
ATOM     13  C   UNL     1      -1.905  12.117  20.480  0.00  0.00    +0.000 A 
ATOM     14  C   UNL     1      -0.911  11.144  20.635  0.00  0.00    +0.000 A 
ENDBRANCH   1   6
BRANCH   1  15
ATOM     15  C   UNL     1       2.056   6.811  20.228  0.00  0.00    +0.000 A 
ATOM     16  C   UNL     1       2.626   7.028  18.972  0.00  0.00    +0.000 A 
ATOM     17  C   UNL     1       2.766   5.977  18.059  0.00  0.00    +0.000 A 
ATOM     18  C   UNL     1       2.328   4.687  18.378  0.00  0.00    +0.000 A 
ATOM     19 CL   UNL     1       2.531   3.477  17.168  0.00  0.00    +0.000 Cl
ATOM     20  C   UNL     1       1.753   4.435  19.625  0.00  0.00    +0.000 A 
ATOM     21  C   UNL     1       1.630   5.512  20.533  0.00  0.00    +0.000 A 
BRANCH  20  22
ATOM     22  C   UNL     1       1.253   3.094  20.094  0.00  0.00    +0.000 C 
ATOM     23  F   UNL     1       0.202   2.563  19.421  0.00  0.00    +0.000 F 
ATOM     24  F   UNL     1       2.236   2.147  20.046  0.00  0.00    +0.000 F 
ATOM     25  F   UNL     1       0.862   3.136  21.402  0.00  0.00    +0.000 F 
ENDBRANCH  20  22
ENDBRANCH   1  15
TORSDOF 3
ENDMDL
MODEL 2
REMARK VINA RESULT:      -8.5      1.124      2.387
REMARK  Name = 
REMARK  3 active torsions:
REMARK  status: ('A' for Active; 'I' for Inactive)
REMARK    1  A    between atoms: C_4  and  N_5
REMARK    2  A    between atoms: N_5  and  C_6
REMARK    3  A    between atoms: C_11  and  C_12
REMARK                            x       y       z     vdW  Elec       q    Type
REMARK                         _______ _______ _______ _____ _____    ______ ____
ROOT
ATOM      1  N   UNL     1       2.355   7.881  19.570  0.00  0.00    +0.000 N 
ATOM      2  H   UNL     1       3.328   8.123  19.788  0.00  0.00    +0.000 HD
ENDROOT
BRANCH   1   6
ATOM      3  O   UNL     1       0.405   9.558  23.584  0.00  0.00    +0.000 OA
ATOM      4  C   UNL     1       0.465   9.595  22.363  0.00  0.00    +0.000 C 
ATOM      5  C   UNL     1       1.369   8.693  21.634  0.00  0.00    +0.000 C 
ATOM      6  C   UNL     1       1.478   8.678  20.299  0.00  0.00    +0.000 C 
ATOM      7  C   UNL     1       0.561   9.540  19.481  0.00  0.00    +0.000 C 
ATOM      8  O   UNL     1       0.545   9.436  18.260  0.00  0.00    +0.000 OA
ATOM      9  C   UNL     1      -0.282  10.525  20.185  0.00  0.00    +0.000 A 
ATOM     10  C   UNL     1      -1.036  11.449  19.444  0.00  0.00    +0.000 A 
ATOM     11  C   UNL     1      -1.820  12.397  20.107  0.00  0.00    +0.000 A 
ATOM     12  C   UNL     1      -1.855  12.429  21.500  0.00  0.00    +0.000 A 
ATOM     13  C   UNL     1      -1.109  11.507  22.238  0.00  0.00    +0.000 A 
ATOM     14  C   UNL     1      -0.323  10.556  21.576  0.00  0.00    +0.000 A 
ENDBRANCH   1   6
BRANCH   1  15
ATOM     15  C   UNL     1       2.213   6.490  19.355  0.00  0.00    +0.000 A 
ATOM     16  C   UNL     1       1.974   6.033  18.057  0.00  0.00    +0.000 A 
ATOM     17  C   UNL     1       1.758   4.674  17.805  0.00  0.00    +0.000 A 
ATOM     18  C   UNL     1       1.766   3.741  18.849  0.00  0.00    +0.000 A 
ATOM     19 CL   UNL     1       1.466   2.099  18.423  0.00  0.00    +0.000 Cl
ATOM     20  C   UNL     1       2.001   4.163  20.158  0.00  0.00    +0.000 A 
ATOM     21  C   UNL     1       2.224   5.541  20.386  0.00  0.00    +0.000 A 
BRANCH  20  22
ATOM     22  C   UNL     1       2.046   3.263  21.365  0.00  0.00    +0.000 C 
ATOM     23  F   UNL     1       0.920   2.562  21.647  0.00  0.00    +0.000 F 
ATOM     24  F   UNL     1       3.041   2.333  21.259  0.00  0.00    +0.000 F 
ATOM     25  F   UNL     1       2.332   3.964  22.501  0.00  0.00    +0.000 F 
ENDBRANCH  20  22
ENDBRANCH   1  15
TORSDOF 3
ENDMDL
MODEL 3
REMARK VINA RESULT:      -8.4      1.758      3.049
REMARK  Name = 
REMARK  3 active torsions:
REMARK  status: ('A' for Active; 'I' for Inactive)
REMARK    1  A    between atoms: C_4  and  N_5
REMARK    2  A    between atoms: N_5  and  C_6
REMARK    3  A    between atoms: C_11  and  C_12
REMARK                            x       y       z     vdW  Elec       q    Type
REMARK                         _______ _______ _______ _____ _____    ______ ____
ROOT
ATOM      1  N   UNL     1       2.340   7.850  20.064  0.00  0.00    +0.000 N 
ATOM      2  H   UNL     1       3.296   8.052  20.376  0.00  0.00    +0.000 HD
ENDROOT
BRANCH   1   6
ATOM      3  O   UNL     1       0.179   9.665  23.908  0.00  0.00    +0.000 OA
ATOM      4  C   UNL     1       0.307   9.662  22.691  0.00  0.00    +0.000 C 
ATOM      5  C   UNL     1       1.245   8.733  22.043  0.00  0.00    +0.000 C 
ATOM      6  C   UNL     1       1.428   8.674  20.717  0.00  0.00    +0.000 C 
ATOM      7  C   UNL     1       0.563   9.513  19.822  0.00  0.00    +0.000 C 
ATOM      8  O   UNL     1       0.614   9.369  18.606  0.00  0.00    +0.000 OA
ATOM      9  C   UNL     1      -0.312  10.524  20.445  0.00  0.00    +0.000 A 
ATOM     10  C   UNL     1      -1.019  11.426  19.635  0.00  0.00    +0.000 A 
ATOM     11  C   UNL     1      -1.832  12.399  20.222  0.00  0.00    +0.000 A 
ATOM     12  C   UNL     1      -1.944  12.476  21.609  0.00  0.00    +0.000 A 
ATOM     13  C   UNL     1      -1.246  11.575  22.416  0.00  0.00    +0.000 A 
ATOM     14  C   UNL     1      -0.430  10.600  21.831  0.00  0.00    +0.000 A 
ENDBRANCH   1   6
BRANCH   1  15
ATOM     15  C   UNL     1       2.166   6.467  19.820  0.00  0.00    +0.000 A 
ATOM     16  C   UNL     1       1.415   5.715  20.726  0.00  0.00    +0.000 A 
ATOM     17  C   UNL     1       1.273   4.334  20.564  0.00  0.00    +0.000 A 
ATOM     18  C   UNL     1       1.888   3.669  19.496  0.00  0.00    +0.000 A 
ATOM     19 CL   UNL     1       1.661   1.964  19.410  0.00  0.00    +0.000 Cl
ATOM     20  C   UNL     1       2.646   4.390  18.572  0.00  0.00    +0.000 A 
ATOM     21  C   UNL     1       2.769   5.787  18.754  0.00  0.00    +0.000 A 
BRANCH  20  22
ATOM     22  C   UNL     1       3.348   3.799  17.378  0.00  0.00    +0.000 C 
ATOM     23  F   UNL     1       4.268   2.833  17.624  0.00  0.00    +0.000 F 
ATOM     24  F   UNL     1       2.462   3.246  16.498  0.00  0.00    +0.000 F 
ATOM     25  F   UNL     1       4.011   4.756  16.664  0.00  0.00    +0.000 F 
ENDBRANCH  20  22
ENDBRANCH   1  15
TORSDOF 3
ENDMDL
MODEL 4
REMARK VINA RESULT:      -8.2      1.729      2.276
REMARK  Name = 
REMARK  3 active torsions:
REMARK  status: ('A' for Active; 'I' for Inactive)
REMARK    1  A    between atoms: C_4  and  N_5
REMARK    2  A    between atoms: N_5  and  C_6
REMARK    3  A    between atoms: C_11  and  C_12
REMARK                            x       y       z     vdW  Elec       q    Type
REMARK                         _______ _______ _______ _____ _____    ______ ____
ROOT
ATOM      1  N   UNL     1       2.258   7.669  20.588  0.00  0.00    +0.000 N 
ATOM      2  H   UNL     1       2.613   7.673  21.551  0.00  0.00    +0.000 HD
ENDROOT
BRANCH   1   6
ATOM      3  O   UNL     1      -0.490  10.532  17.946  0.00  0.00    +0.000 OA
ATOM      4  C   UNL     1      -0.102  10.199  19.057  0.00  0.00    +0.000 C 
ATOM      5  C   UNL     1       0.890   9.123  19.208  0.00  0.00    +0.000 C 
ATOM      6  C   UNL     1       1.361   8.714  20.393  0.00  0.00    +0.000 C 
ATOM      7  C   UNL     1       0.952   9.451  21.635  0.00  0.00    +0.000 C 
ATOM      8  O   UNL     1       1.480   9.187  22.710  0.00  0.00    +0.000 OA
ATOM      9  C   UNL     1      -0.115  10.464  21.527  0.00  0.00    +0.000 A 
ATOM     10  C   UNL     1      -0.628  11.062  22.689  0.00  0.00    +0.000 A 
ATOM     11  C   UNL     1      -1.653  12.006  22.591  0.00  0.00    +0.000 A 
ATOM     12  C   UNL     1      -2.168  12.357  21.344  0.00  0.00    +0.000 A 
ATOM     13  C   UNL     1      -1.655  11.767  20.187  0.00  0.00    +0.000 A 
ATOM     14  C   UNL     1      -0.629  10.820  20.282  0.00  0.00    +0.000 A 
ENDBRANCH   1   6
BRANCH   1  15
ATOM     15  C   UNL     1       2.091   6.347  20.113  0.00  0.00    +0.000 A 
ATOM     16  C   UNL     1       1.251   5.482  20.819  0.00  0.00    +0.000 A 
ATOM     17  C   UNL     1       1.108   4.147  20.427  0.00  0.00    +0.000 A 
ATOM     18  C   UNL     1       1.810   3.643  19.326  0.00  0.00    +0.000 A 
ATOM     19 CL   UNL     1       1.572   1.978  18.951  0.00  0.00    +0.000 Cl
ATOM     20  C   UNL     1       2.658   4.479  18.599  0.00  0.00    +0.000 A 
ATOM     21  C   UNL     1       2.780   5.827  19.010  0.00  0.00    +0.000 A 
BRANCH  20  22
ATOM     22  C   UNL     1       3.459   4.065  17.393  0.00  0.00    +0.000 C 
ATOM     23  F   UNL     1       4.484   3.202  17.605  0.00  0.00    +0.000 F 
ATOM     24  F   UNL     1       2.671   3.473  16.447  0.00  0.00    +0.000 F 
ATOM     25  F   UNL     1       4.017   5.144  16.768  0.00  0.00    +0.000 F 
ENDBRANCH  20  22
ENDBRANCH   1  15
TORSDOF 3
ENDMDL
MODEL 5
REMARK VINA RESULT:      -8.2      3.502      4.421
REMARK  Name = 
REMARK  3 active torsions:
REMARK  status: ('A' for Active; 'I' for Inactive)
REMARK    1  A    between atoms: C_4  and  N_5
REMARK    2  A    between atoms: N_5  and  C_6
REMARK    3  A    between atoms: C_11  and  C_12
REMARK                            x       y       z     vdW  Elec       q    Type
REMARK                         _______ _______ _______ _____ _____    ______ ____
ROOT
ATOM      1  N   UNL     1       2.415   6.055  18.372  0.00  0.00    +0.000 N 
ATOM      2  H   UNL     1       1.801   5.754  17.607  0.00  0.00    +0.000 HD
ENDROOT
BRANCH   1   6
ATOM      3  O   UNL     1       1.903  10.767  17.853  0.00  0.00    +0.000 OA
ATOM      4  C   UNL     1       1.760   9.777  18.558  0.00  0.00    +0.000 C 
ATOM      5  C   UNL     1       2.191   8.454  18.079  0.00  0.00    +0.000 C 
ATOM      6  C   UNL     1       2.071   7.333  18.801  0.00  0.00    +0.000 C 
ATOM      7  C   UNL     1       1.573   7.424  20.215  0.00  0.00    +0.000 C 
ATOM      8  O   UNL     1       1.589   6.434  20.938  0.00  0.00    +0.000 OA
ATOM      9  C   UNL     1       1.039   8.717  20.685  0.00  0.00    +0.000 A 
ATOM     10  C   UNL     1       0.428   8.799  21.945  0.00  0.00    +0.000 A 
ATOM     11  C   UNL     1      -0.097  10.017  22.386  0.00  0.00    +0.000 A 
ATOM     12  C   UNL     1      -0.016  11.149  21.577  0.00  0.00    +0.000 A 
ATOM     13  C   UNL     1       0.598  11.070  20.325  0.00  0.00    +0.000 A 
ATOM     14  C   UNL     1       1.124   9.851  19.882  0.00  0.00    +0.000 A 
ENDBRANCH   1   6
BRANCH   1  15
ATOM     15  C   UNL     1       3.735   5.584  18.179  0.00  0.00    +0.000 A 
ATOM     16  C   UNL     1       4.577   5.475  19.288  0.00  0.00    +0.000 A 
ATOM     17  C   UNL     1       5.910   5.079  19.139  0.00  0.00    +0.000 A 
ATOM     18  C   UNL     1       6.436   4.794  17.873  0.00  0.00    +0.000 A 
ATOM     19 CL   UNL     1       8.096   4.338  17.809  0.00  0.00    +0.000 Cl
ATOM     20  C   UNL     1       5.623   4.893  16.743  0.00  0.00    +0.000 A 
ATOM     21  C   UNL     1       4.277   5.288  16.921  0.00  0.00    +0.000 A 
BRANCH  20  22
ATOM     22  C   UNL     1       6.062   4.605  15.332  0.00  0.00    +0.000 C 
ATOM     23  F   UNL     1       6.354   3.314  15.032  0.00  0.00    +0.000 F 
ATOM     24  F   UNL     1       5.114   4.986  14.425  0.00  0.00    +0.000 F 
ATOM     25  F   UNL     1       7.179   5.315  15.000  0.00  0.00    +0.000 F 
ENDBRANCH  20  22
ENDBRANCH   1  15
TORSDOF 3
ENDMDL
MODEL 6
REMARK VINA RESULT:      -8.1      1.643      2.912
REMARK  Name = 
REMARK  3 active torsions:
REMARK  status: ('A' for Active; 'I' for Inactive)
REMARK    1  A    between atoms: C_4  and  N_5
REMARK    2  A    between atoms: N_5  and  C_6
REMARK    3  A    between atoms: C_11  and  C_12
REMARK                            x       y       z     vdW  Elec       q    Type
REMARK                         _______ _______ _______ _____ _____    ______ ____
ROOT
ATOM      1  N   UNL     1       2.980   7.327  18.166  0.00  0.00    +0.000 N 
ATOM      2  H   UNL     1       3.900   7.762  18.033  0.00  0.00    +0.000 HD
ENDROOT
BRANCH   1   6
ATOM      3  O   UNL     1       0.706   8.339  22.232  0.00  0.00    +0.000 OA
ATOM      4  C   UNL     1       1.016   8.686  21.100  0.00  0.00    +0.000 C 
ATOM      5  C   UNL     1       1.815   7.797  20.243  0.00  0.00    +0.000 C 
ATOM      6  C   UNL     1       2.183   8.111  18.994  0.00  0.00    +0.000 C 
ATOM      7  C   UNL     1       1.674   9.383  18.381  0.00  0.00    +0.000 C 
ATOM      8  O   UNL     1       1.880   9.620  17.195  0.00  0.00    +0.000 OA
ATOM      9  C   UNL     1       0.958  10.338  19.247  0.00  0.00    +0.000 A 
ATOM     10  C   UNL     1       0.603  11.600  18.746  0.00  0.00    +0.000 A 
ATOM     11  C   UNL     1      -0.057  12.515  19.570  0.00  0.00    +0.000 A 
ATOM     12  C   UNL     1      -0.363  12.180  20.888  0.00  0.00    +0.000 A 
ATOM     13  C   UNL     1      -0.015  10.922  21.386  0.00  0.00    +0.000 A 
ATOM     14  C   UNL     1       0.647  10.004  20.562  0.00  0.00    +0.000 A 
ENDBRANCH   1   6
BRANCH   1  15
ATOM     15  C   UNL     1       3.090   5.918  18.229  0.00  0.00    +0.000 A 
ATOM     16  C   UNL     1       4.177   5.301  17.606  0.00  0.00    +0.000 A 
ATOM     17  C   UNL     1       4.291   3.907  17.582  0.00  0.00    +0.000 A 
ATOM     18  C   UNL     1       3.314   3.097  18.172  0.00  0.00    +0.000 A 
ATOM     19 CL   UNL     1       3.549   1.393  18.062  0.00  0.00    +0.000 Cl
ATOM     20  C   UNL     1       2.214   3.680  18.803  0.00  0.00    +0.000 A 
ATOM     21  C   UNL     1       2.125   5.091  18.820  0.00  0.00    +0.000 A 
BRANCH  20  22
ATOM     22  C   UNL     1       1.103   2.924  19.483  0.00  0.00    +0.000 C 
ATOM     23  F   UNL     1       0.278   2.201  18.685  0.00  0.00    +0.000 F 
ATOM     24  F   UNL     1       1.588   2.041  20.405  0.00  0.00    +0.000 F 
ATOM     25  F   UNL     1       0.285   3.762  20.185  0.00  0.00    +0.000 F 
ENDBRANCH  20  22
ENDBRANCH   1  15
TORSDOF 3
ENDMDL
MODEL 7
REMARK VINA RESULT:      -8.0      1.835      3.091
REMARK  Name = 
REMARK  3 active torsions:
REMARK  status: ('A' for Active; 'I' for Inactive)
REMARK    1  A    between atoms: C_4  and  N_5
REMARK    2  A    between atoms: N_5  and  C_6
REMARK    3  A    between atoms: C_11  and  C_12
REMARK                            x       y       z     vdW  Elec       q    Type
REMARK                         _______ _______ _______ _____ _____    ______ ____
ROOT
ATOM      1  N   UNL     1       1.907   8.385  19.533  0.00  0.00    +0.000 N 
ATOM      2  H   UNL     1       2.784   8.895  19.377  0.00  0.00    +0.000 HD
ENDROOT
BRANCH   1   6
ATOM      3  O   UNL     1       0.393   9.558  23.899  0.00  0.00    +0.000 OA
ATOM      4  C   UNL     1       0.308   9.724  22.690  0.00  0.00    +0.000 C 
ATOM      5  C   UNL     1       1.147   8.939  21.770  0.00  0.00    +0.000 C 
ATOM      6  C   UNL     1       1.099   9.065  20.438  0.00  0.00    +0.000 C 
ATOM      7  C   UNL     1       0.068   9.969  19.826  0.00  0.00    +0.000 C 
ATOM      8  O   UNL     1      -0.087   9.991  18.610  0.00  0.00    +0.000 OA
ATOM      9  C   UNL     1      -0.714  10.842  20.722  0.00  0.00    +0.000 A 
ATOM     10  C   UNL     1      -1.576  11.805  20.175  0.00  0.00    +0.000 A 
ATOM     11  C   UNL     1      -2.303  12.648  21.020  0.00  0.00    +0.000 A 
ATOM     12  C   UNL     1      -2.176  12.535  22.403  0.00  0.00    +0.000 A 
ATOM     13  C   UNL     1      -1.323  11.573  22.948  0.00  0.00    +0.000 A 
ATOM     14  C   UNL     1      -0.593  10.728  22.104  0.00  0.00    +0.000 A 
ENDBRANCH   1   6
BRANCH   1  15
ATOM     15  C   UNL     1       2.124   6.986  19.519  0.00  0.00    +0.000 A 
ATOM     16  C   UNL     1       1.652   6.224  20.590  0.00  0.00    +0.000 A 
ATOM     17  C   UNL     1       1.902   4.849  20.654  0.00  0.00    +0.000 A 
ATOM     18  C   UNL     1       2.639   4.206  19.652  0.00  0.00    +0.000 A 
ATOM     19 CL   UNL     1       2.902   2.515  19.848  0.00  0.00    +0.000 Cl
ATOM     20  C   UNL     1       3.125   4.938  18.568  0.00  0.00    +0.000 A 
ATOM     21  C   UNL     1       2.854   6.325  18.522  0.00  0.00    +0.000 A 
BRANCH  20  22
ATOM     22  C   UNL     1       3.919   4.367  17.423  0.00  0.00    +0.000 C 
ATOM     23  F   UNL     1       4.359   5.243  16.485  0.00  0.00    +0.000 F 
ATOM     24  F   UNL     1       5.035   3.713  17.863  0.00  0.00    +0.000 F 
ATOM     25  F   UNL     1       3.204   3.429  16.735  0.00  0.00    +0.000 F 
ENDBRANCH  20  22
ENDBRANCH   1  15
TORSDOF 3
ENDMDL
MODEL 8
REMARK VINA RESULT:      -8.0      1.329      2.764
REMARK  Name = 
REMARK  3 active torsions:
REMARK  status: ('A' for Active; 'I' for Inactive)
REMARK    1  A    between atoms: C_4  and  N_5
REMARK    2  A    between atoms: N_5  and  C_6
REMARK    3  A    between atoms: C_11  and  C_12
REMARK                            x       y       z     vdW  Elec       q    Type
REMARK                         _______ _______ _______ _____ _____    ______ ____
ROOT
ATOM      1  N   UNL     1       2.726   7.649  18.390  0.00  0.00    +0.000 N 
ATOM      2  H   UNL     1       3.638   8.114  18.327  0.00  0.00    +0.000 HD
ENDROOT
BRANCH   1   6
ATOM      3  O   UNL     1       0.933   8.865  22.637  0.00  0.00    +0.000 OA
ATOM      4  C   UNL     1       0.942   9.033  21.425  0.00  0.00    +0.000 C 
ATOM      5  C   UNL     1       1.821   8.224  20.567  0.00  0.00    +0.000 C 
ATOM      6  C   UNL     1       1.875   8.353  19.235  0.00  0.00    +0.000 C 
ATOM      7  C   UNL     1       0.919   9.288  18.553  0.00  0.00    +0.000 C 
ATOM      8  O   UNL     1       0.853   9.315  17.329  0.00  0.00    +0.000 OA
ATOM      9  C   UNL     1       0.099  10.183  19.392  0.00  0.00    +0.000 A 
ATOM     10  C   UNL     1      -0.691  11.172  18.786  0.00  0.00    +0.000 A 
ATOM     11  C   UNL     1      -1.453  12.036  19.578  0.00  0.00    +0.000 A 
ATOM     12  C   UNL     1      -1.430  11.918  20.967  0.00  0.00    +0.000 A 
ATOM     13  C   UNL     1      -0.648  10.930  21.570  0.00  0.00    +0.000 A 
ATOM     14  C   UNL     1       0.116  10.065  20.779  0.00  0.00    +0.000 A 
ENDBRANCH   1   6
BRANCH   1  15
ATOM     15  C   UNL     1       2.870   6.241  18.359  0.00  0.00    +0.000 A 
ATOM     16  C   UNL     1       3.879   5.688  17.569  0.00  0.00    +0.000 A 
ATOM     17  C   UNL     1       4.017   4.301  17.452  0.00  0.00    +0.000 A 
ATOM     18  C   UNL     1       3.140   3.435  18.116  0.00  0.00    +0.000 A 
ATOM     19 CL   UNL     1       3.392   1.747  17.881  0.00  0.00    +0.000 Cl
ATOM     20  C   UNL     1       2.120   3.954  18.914  0.00  0.00    +0.000 A 
ATOM     21  C   UNL     1       2.006   5.359  19.021  0.00  0.00    +0.000 A 
BRANCH  20  22
ATOM     22  C   UNL     1       1.121   3.134  19.686  0.00  0.00    +0.000 C 
ATOM     23  F   UNL     1       1.620   2.224  20.560  0.00  0.00    +0.000 F 
ATOM     24  F   UNL     1       0.283   3.925  20.420  0.00  0.00    +0.000 F 
ATOM     25  F   UNL     1       0.304   2.426  18.853  0.00  0.00    +0.000 F 
ENDBRANCH  20  22
ENDBRANCH   1  15
TORSDOF 3
ENDMDL
MODEL 9
REMARK VINA RESULT:      -7.9      1.667      2.789
REMARK  Name = 
REMARK  3 active torsions:
REMARK  status: ('A' for Active; 'I' for Inactive)
REMARK    1  A    between atoms: C_4  and  N_5
REMARK    2  A    between atoms: N_5  and  C_6
REMARK    3  A    between atoms: C_11  and  C_12
REMARK                            x       y       z     vdW  Elec       q    Type
REMARK                         _______ _______ _______ _____ _____    ______ ____
ROOT
ATOM      1  N   UNL     1       2.764   7.412  18.696  0.00  0.00    +0.000 N 
ATOM      2  H   UNL     1       3.578   7.941  18.365  0.00  0.00    +0.000 HD
ENDROOT
BRANCH   1   6
ATOM      3  O   UNL     1       0.375   8.825  22.572  0.00  0.00    +0.000 OA
ATOM      4  C   UNL     1       0.665   9.023  21.400  0.00  0.00    +0.000 C 
ATOM      5  C   UNL     1       1.544   8.087  20.683  0.00  0.00    +0.000 C 
ATOM      6  C   UNL     1       1.895   8.240  19.399  0.00  0.00    +0.000 C 
ATOM      7  C   UNL     1       1.284   9.357  18.604  0.00  0.00    +0.000 C 
ATOM      8  O   UNL     1       1.480   9.430  17.396  0.00  0.00    +0.000 OA
ATOM      9  C   UNL     1       0.482  10.367  19.320  0.00  0.00    +0.000 A 
ATOM     10  C   UNL     1       0.025  11.504  18.636  0.00  0.00    +0.000 A 
ATOM     11  C   UNL     1      -0.718  12.473  19.316  0.00  0.00    +0.000 A 
ATOM     12  C   UNL     1      -1.005  12.314  20.670  0.00  0.00    +0.000 A 
ATOM     13  C   UNL     1      -0.556  11.180  21.351  0.00  0.00    +0.000 A 
ATOM     14  C   UNL     1       0.189  10.209  20.672  0.00  0.00    +0.000 A 
ENDBRANCH   1   6
BRANCH   1  15
ATOM     15  C   UNL     1       3.130   6.099  19.074  0.00  0.00    +0.000 A 
ATOM     16  C   UNL     1       4.470   5.721  18.972  0.00  0.00    +0.000 A 
ATOM     17  C   UNL     1       4.870   4.414  19.268  0.00  0.00    +0.000 A 
ATOM     18  C   UNL     1       3.934   3.450  19.664  0.00  0.00    +0.000 A 
ATOM     19 CL   UNL     1       4.538   1.868  19.982  0.00  0.00    +0.000 Cl
ATOM     20  C   UNL     1       2.586   3.793  19.776  0.00  0.00    +0.000 A 
ATOM     21  C   UNL     1       2.209   5.123  19.478  0.00  0.00    +0.000 A 
BRANCH  20  22
ATOM     22  C   UNL     1       1.485   2.857  20.200  0.00  0.00    +0.000 C 
ATOM     23  F   UNL     1       0.223   3.354  20.193  0.00  0.00    +0.000 F 
ATOM     24  F   UNL     1       1.445   1.742  19.413  0.00  0.00    +0.000 F 
ATOM     25  F   UNL     1       1.684   2.393  21.468  0.00  0.00    +0.000 F 
ENDBRANCH  20  22
ENDBRANCH   1  15
TORSDOF 3
ENDMDL
