MODEL 1
REMARK VINA RESULT:      -7.2      0.000      0.000
REMARK  Name = 
REMARK  3 active torsions:
REMARK  status: ('A' for Active; 'I' for Inactive)
REMARK    1  A    between atoms: C_4  and  C_5
REMARK    2  A    between atoms: N_8  and  C_9
REMARK    3  A    between atoms: C_9  and  C_10
REMARK                            x       y       z     vdW  Elec       q    Type
REMARK                         _______ _______ _______ _____ _____    ______ ____
ROOT
ATOM      1  C   UNL     1       6.891   4.909  16.250  0.00  0.00    +0.000 A 
ATOM      2  N   UNL     1       7.842   4.426  17.115  0.00  0.00    +0.000 NA
ATOM      3  N   UNL     1       7.354   4.579  18.341  0.00  0.00    +0.000 NA
ATOM      4  N   UNL     1       6.145   5.136  18.160  0.00  0.00    +0.000 N 
ATOM      5  N   UNL     1       5.822   5.420  16.885  0.00  0.00    +0.000 NA
ENDROOT
BRANCH   1   9
ATOM      6  C   UNL     1       6.687   4.049  12.665  0.00  0.00    +0.000 A 
ATOM      7  C   UNL     1       7.649   5.031  12.697  0.00  0.00    +0.000 A 
ATOM      8  O   UNL     1       7.813   5.499  13.963  0.00  0.00    +0.000 OA
ATOM      9  C   UNL     1       6.966   4.791  14.771  0.00  0.00    +0.000 A 
ATOM     10  C   UNL     1       6.236   3.901  13.999  0.00  0.00    +0.000 A 
ENDBRANCH   1   9
BRANCH   4  11
ATOM     11  C   UNL     1       5.124   5.087  19.181  0.00  0.00    +0.000 C 
BRANCH  11  12
ATOM     12  C   UNL     1       3.790   4.458  18.754  0.00  0.00    +0.000 C 
ATOM     13  C   UNL     1       2.765   4.678  19.881  0.00  0.00    +0.000 C 
ATOM     14  C   UNL     1       1.494   3.871  19.671  0.00  0.00    +0.000 C 
ATOM     15  O   UNL     1       1.808   2.493  19.502  0.00  0.00    +0.000 OA
ATOM     16  C   UNL     1       2.577   2.269  18.323  0.00  0.00    +0.000 C 
ATOM     17  C   UNL     1       3.929   2.963  18.424  0.00  0.00    +0.000 C 
ENDBRANCH  11  12
ENDBRANCH   4  11
TORSDOF 3
ENDMDL
MODEL 2
REMARK VINA RESULT:      -7.0      0.937      1.417
REMARK  Name = 
REMARK  3 active torsions:
REMARK  status: ('A' for Active; 'I' for Inactive)
REMARK    1  A    between atoms: C_4  and  C_5
REMARK    2  A    between atoms: N_8  and  C_9
REMARK    3  A    between atoms: C_9  and  C_10
REMARK                            x       y       z     vdW  Elec       q    Type
REMARK                         _______ _______ _______ _____ _____    ______ ____
ROOT
ATOM      1  C   UNL     1       6.768   4.959  16.483  0.00  0.00    +0.000 A 
ATOM      2  N   UNL     1       7.668   4.433  17.377  0.00  0.00    +0.000 NA
ATOM      3  N   UNL     1       7.173   4.651  18.590  0.00  0.00    +0.000 NA
ATOM      4  N   UNL     1       6.009   5.286  18.374  0.00  0.00    +0.000 N 
ATOM      5  N   UNL     1       5.727   5.560  17.087  0.00  0.00    +0.000 NA
ENDROOT
BRANCH   1   9
ATOM      6  C   UNL     1       6.589   4.004  12.922  0.00  0.00    +0.000 A 
ATOM      7  C   UNL     1       7.572   4.965  12.939  0.00  0.00    +0.000 A 
ATOM      8  O   UNL     1       7.731   5.465  14.194  0.00  0.00    +0.000 OA
ATOM      9  C   UNL     1       6.858   4.798  15.009  0.00  0.00    +0.000 A 
ATOM     10  C   UNL     1       6.118   3.903  14.253  0.00  0.00    +0.000 A 
ENDBRANCH   1   9
BRANCH   4  11
ATOM     11  C   UNL     1       4.971   5.335  19.377  0.00  0.00    +0.000 C 
BRANCH  11  12
ATOM     12  C   UNL     1       3.729   4.480  19.088  0.00  0.00    +0.000 C 
ATOM     13  C   UNL     1       4.186   3.158  18.446  0.00  0.00    +0.000 C 
ATOM     14  C   UNL     1       3.024   2.356  17.884  0.00  0.00    +0.000 C 
ATOM     15  O   UNL     1       2.269   3.152  16.977  0.00  0.00    +0.000 OA
ATOM     16  C   UNL     1       1.660   4.262  17.631  0.00  0.00    +0.000 C 
ATOM     17  C   UNL     1       2.719   5.207  18.184  0.00  0.00    +0.000 C 
ENDBRANCH  11  12
ENDBRANCH   4  11
TORSDOF 3
ENDMDL
MODEL 3
REMARK VINA RESULT:      -7.0      0.897      1.099
REMARK  Name = 
REMARK  3 active torsions:
REMARK  status: ('A' for Active; 'I' for Inactive)
REMARK    1  A    between atoms: C_4  and  C_5
REMARK    2  A    between atoms: N_8  and  C_9
REMARK    3  A    between atoms: C_9  and  C_10
REMARK                            x       y       z     vdW  Elec       q    Type
REMARK                         _______ _______ _______ _____ _____    ______ ____
ROOT
ATOM      1  C   UNL     1       6.610   4.615  16.198  0.00  0.00    +0.000 A 
ATOM      2  N   UNL     1       7.627   4.710  17.117  0.00  0.00    +0.000 NA
ATOM      3  N   UNL     1       7.081   4.512  18.311  0.00  0.00    +0.000 NA
ATOM      4  N   UNL     1       5.778   4.304  18.060  0.00  0.00    +0.000 N 
ATOM      5  N   UNL     1       5.410   4.413  16.770  0.00  0.00    +0.000 NA
ENDROOT
BRANCH   1   9
ATOM      6  C   UNL     1       6.697   4.067  12.549  0.00  0.00    +0.000 A 
ATOM      7  C   UNL     1       7.663   5.026  12.744  0.00  0.00    +0.000 A 
ATOM      8  O   UNL     1       7.725   5.382  14.055  0.00  0.00    +0.000 OA
ATOM      9  C   UNL     1       6.807   4.622  14.726  0.00  0.00    +0.000 A 
ATOM     10  C   UNL     1       6.136   3.813  13.823  0.00  0.00    +0.000 A 
ENDBRANCH   1   9
BRANCH   4  11
ATOM     11  C   UNL     1       4.914   3.649  19.015  0.00  0.00    +0.000 C 
BRANCH  11  12
ATOM     12  C   UNL     1       3.438   4.070  18.970  0.00  0.00    +0.000 C 
ATOM     13  C   UNL     1       3.207   5.153  20.040  0.00  0.00    +0.000 C 
ATOM     14  C   UNL     1       1.732   5.447  20.253  0.00  0.00    +0.000 C 
ATOM     15  O   UNL     1       1.028   4.247  20.553  0.00  0.00    +0.000 OA
ATOM     16  C   UNL     1       1.059   3.331  19.462  0.00  0.00    +0.000 C 
ATOM     17  C   UNL     1       2.486   2.881  19.179  0.00  0.00    +0.000 C 
ENDBRANCH  11  12
ENDBRANCH   4  11
TORSDOF 3
ENDMDL
MODEL 4
REMARK VINA RESULT:      -6.8      1.225      1.640
REMARK  Name = 
REMARK  3 active torsions:
REMARK  status: ('A' for Active; 'I' for Inactive)
REMARK    1  A    between atoms: C_4  and  C_5
REMARK    2  A    between atoms: N_8  and  C_9
REMARK    3  A    between atoms: C_9  and  C_10
REMARK                            x       y       z     vdW  Elec       q    Type
REMARK                         _______ _______ _______ _____ _____    ______ ____
ROOT
ATOM      1  C   UNL     1       6.481   4.584  16.040  0.00  0.00    +0.000 A 
ATOM      2  N   UNL     1       7.377   4.769  17.064  0.00  0.00    +0.000 NA
ATOM      3  N   UNL     1       6.739   4.463  18.188  0.00  0.00    +0.000 NA
ATOM      4  N   UNL     1       5.506   4.105  17.794  0.00  0.00    +0.000 N 
ATOM      5  N   UNL     1       5.263   4.215  16.476  0.00  0.00    +0.000 NA
ENDROOT
BRANCH   1   9
ATOM      6  C   UNL     1       6.952   4.220  12.397  0.00  0.00    +0.000 A 
ATOM      7  C   UNL     1       7.872   5.184  12.737  0.00  0.00    +0.000 A 
ATOM      8  O   UNL     1       7.793   5.474  14.063  0.00  0.00    +0.000 OA
ATOM      9  C   UNL     1       6.827   4.668  14.598  0.00  0.00    +0.000 A 
ATOM     10  C   UNL     1       6.268   3.894  13.593  0.00  0.00    +0.000 A 
ENDBRANCH   1   9
BRANCH   4  11
ATOM     11  C   UNL     1       4.638   3.316  18.636  0.00  0.00    +0.000 C 
BRANCH  11  12
ATOM     12  C   UNL     1       3.884   4.094  19.725  0.00  0.00    +0.000 C 
ATOM     13  C   UNL     1       2.967   3.114  20.478  0.00  0.00    +0.000 C 
ATOM     14  C   UNL     1       1.989   3.829  21.396  0.00  0.00    +0.000 C 
ATOM     15  O   UNL     1       1.244   4.797  20.665  0.00  0.00    +0.000 OA
ATOM     16  C   UNL     1       2.081   5.831  20.155  0.00  0.00    +0.000 C 
ATOM     17  C   UNL     1       3.075   5.268  19.147  0.00  0.00    +0.000 C 
ENDBRANCH  11  12
ENDBRANCH   4  11
TORSDOF 3
ENDMDL
MODEL 5
REMARK VINA RESULT:      -6.7      0.681      1.255
REMARK  Name = 
REMARK  3 active torsions:
REMARK  status: ('A' for Active; 'I' for Inactive)
REMARK    1  A    between atoms: C_4  and  C_5
REMARK    2  A    between atoms: N_8  and  C_9
REMARK    3  A    between atoms: C_9  and  C_10
REMARK                            x       y       z     vdW  Elec       q    Type
REMARK                         _______ _______ _______ _____ _____    ______ ____
ROOT
ATOM      1  C   UNL     1       6.496   4.955  16.338  0.00  0.00    +0.000 A 
ATOM      2  N   UNL     1       7.211   4.328  17.328  0.00  0.00    +0.000 NA
ATOM      3  N   UNL     1       6.569   4.558  18.467  0.00  0.00    +0.000 NA
ATOM      4  N   UNL     1       5.505   5.299  18.115  0.00  0.00    +0.000 N 
ATOM      5  N   UNL     1       5.434   5.630  16.813  0.00  0.00    +0.000 NA
ENDROOT
BRANCH   1   9
ATOM      6  C   UNL     1       6.801   4.069  12.767  0.00  0.00    +0.000 A 
ATOM      7  C   UNL     1       7.756   5.045  12.930  0.00  0.00    +0.000 A 
ATOM      8  O   UNL     1       7.740   5.522  14.203  0.00  0.00    +0.000 OA
ATOM      9  C   UNL     1       6.781   4.826  14.885  0.00  0.00    +0.000 A 
ATOM     10  C   UNL     1       6.162   3.934  14.023  0.00  0.00    +0.000 A 
ENDBRANCH   1   9
BRANCH   4  11
ATOM     11  C   UNL     1       4.343   5.414  18.965  0.00  0.00    +0.000 C 
BRANCH  11  12
ATOM     12  C   UNL     1       3.634   4.094  19.300  0.00  0.00    +0.000 C 
ATOM     13  C   UNL     1       2.944   3.575  18.026  0.00  0.00    +0.000 C 
ATOM     14  C   UNL     1       2.002   2.417  18.310  0.00  0.00    +0.000 C 
ATOM     15  O   UNL     1       1.060   2.783  19.312  0.00  0.00    +0.000 OA
ATOM     16  C   UNL     1       1.694   3.048  20.561  0.00  0.00    +0.000 C 
ATOM     17  C   UNL     1       2.622   4.250  20.447  0.00  0.00    +0.000 C 
ENDBRANCH  11  12
ENDBRANCH   4  11
TORSDOF 3
ENDMDL
MODEL 6
REMARK VINA RESULT:      -6.7      2.475      3.533
REMARK  Name = 
REMARK  3 active torsions:
REMARK  status: ('A' for Active; 'I' for Inactive)
REMARK    1  A    between atoms: C_4  and  C_5
REMARK    2  A    between atoms: N_8  and  C_9
REMARK    3  A    between atoms: C_9  and  C_10
REMARK                            x       y       z     vdW  Elec       q    Type
REMARK                         _______ _______ _______ _____ _____    ______ ____
ROOT
ATOM      1  C   UNL     1       6.038   5.303  17.138  0.00  0.00    +0.000 A 
ATOM      2  N   UNL     1       5.406   5.191  15.924  0.00  0.00    +0.000 NA
ATOM      3  N   UNL     1       4.583   4.153  16.017  0.00  0.00    +0.000 NA
ATOM      4  N   UNL     1       4.750   3.696  17.269  0.00  0.00    +0.000 N 
ATOM      5  N   UNL     1       5.684   4.332  17.999  0.00  0.00    +0.000 NA
ENDROOT
BRANCH   1   9
ATOM      6  C   UNL     1       8.374   7.725  18.656  0.00  0.00    +0.000 A 
ATOM      7  C   UNL     1       7.844   8.423  17.597  0.00  0.00    +0.000 A 
ATOM      8  O   UNL     1       6.984   7.641  16.891  0.00  0.00    +0.000 OA
ATOM      9  C   UNL     1       6.932   6.427  17.517  0.00  0.00    +0.000 A 
ATOM     10  C   UNL     1       7.797   6.433  18.600  0.00  0.00    +0.000 A 
ENDBRANCH   1   9
BRANCH   4  11
ATOM     11  C   UNL     1       3.765   2.857  17.911  0.00  0.00    +0.000 C 
BRANCH  11  12
ATOM     12  C   UNL     1       3.091   3.458  19.153  0.00  0.00    +0.000 C 
ATOM     13  C   UNL     1       3.321   2.506  20.341  0.00  0.00    +0.000 C 
ATOM     14  C   UNL     1       2.477   2.877  21.549  0.00  0.00    +0.000 C 
ATOM     15  O   UNL     1       1.102   2.950  21.186  0.00  0.00    +0.000 OA
ATOM     16  C   UNL     1       0.860   3.991  20.243  0.00  0.00    +0.000 C 
ATOM     17  C   UNL     1       1.590   3.711  18.936  0.00  0.00    +0.000 C 
ENDBRANCH  11  12
ENDBRANCH   4  11
TORSDOF 3
ENDMDL
MODEL 7
REMARK VINA RESULT:      -6.6      1.473      1.840
REMARK  Name = 
REMARK  3 active torsions:
REMARK  status: ('A' for Active; 'I' for Inactive)
REMARK    1  A    between atoms: C_4  and  C_5
REMARK    2  A    between atoms: N_8  and  C_9
REMARK    3  A    between atoms: C_9  and  C_10
REMARK                            x       y       z     vdW  Elec       q    Type
REMARK                         _______ _______ _______ _____ _____    ______ ____
ROOT
ATOM      1  C   UNL     1       5.471   5.125  17.419  0.00  0.00    +0.000 A 
ATOM      2  N   UNL     1       5.839   4.371  18.507  0.00  0.00    +0.000 NA
ATOM      3  N   UNL     1       5.059   4.747  19.513  0.00  0.00    +0.000 NA
ATOM      4  N   UNL     1       4.262   5.694  18.991  0.00  0.00    +0.000 N 
ATOM      5  N   UNL     1       4.507   6.017  17.709  0.00  0.00    +0.000 NA
ENDROOT
BRANCH   1   9
ATOM      6  C   UNL     1       6.285   4.106  13.966  0.00  0.00    +0.000 A 
ATOM      7  C   UNL     1       7.311   4.962  14.290  0.00  0.00    +0.000 A 
ATOM      8  O   UNL     1       7.132   5.474  15.537  0.00  0.00    +0.000 OA
ATOM      9  C   UNL     1       5.988   4.920  16.042  0.00  0.00    +0.000 A 
ATOM     10  C   UNL     1       5.424   4.086  15.089  0.00  0.00    +0.000 A 
ENDBRANCH   1   9
BRANCH   4  11
ATOM     11  C   UNL     1       3.013   6.065  19.615  0.00  0.00    +0.000 C 
BRANCH  11  12
ATOM     12  C   UNL     1       1.957   4.953  19.694  0.00  0.00    +0.000 C 
ATOM     13  C   UNL     1       2.175   4.166  20.999  0.00  0.00    +0.000 C 
ATOM     14  C   UNL     1       1.353   2.889  21.047  0.00  0.00    +0.000 C 
ATOM     15  O   UNL     1       1.614   2.092  19.897  0.00  0.00    +0.000 OA
ATOM     16  C   UNL     1       1.200   2.743  18.699  0.00  0.00    +0.000 C 
ATOM     17  C   UNL     1       2.003   4.017  18.476  0.00  0.00    +0.000 C 
ENDBRANCH  11  12
ENDBRANCH   4  11
TORSDOF 3
ENDMDL
MODEL 8
REMARK VINA RESULT:      -6.6      0.866      1.039
REMARK  Name = 
REMARK  3 active torsions:
REMARK  status: ('A' for Active; 'I' for Inactive)
REMARK    1  A    between atoms: C_4  and  C_5
REMARK    2  A    between atoms: N_8  and  C_9
REMARK    3  A    between atoms: C_9  and  C_10
REMARK                            x       y       z     vdW  Elec       q    Type
REMARK                         _______ _______ _______ _____ _____    ______ ____
ROOT
ATOM      1  C   UNL     1       6.815   4.709  16.228  0.00  0.00    +0.000 A 
ATOM      2  N   UNL     1       7.870   4.402  17.051  0.00  0.00    +0.000 NA
ATOM      3  N   UNL     1       7.478   4.671  18.291  0.00  0.00    +0.000 NA
ATOM      4  N   UNL     1       6.218   5.118  18.160  0.00  0.00    +0.000 N 
ATOM      5  N   UNL     1       5.766   5.221  16.897  0.00  0.00    +0.000 NA
ENDROOT
BRANCH   1   9
ATOM      6  C   UNL     1       7.073   4.567  12.548  0.00  0.00    +0.000 A 
ATOM      7  C   UNL     1       6.156   3.583  12.836  0.00  0.00    +0.000 A 
ATOM      8  O   UNL     1       5.981   3.471  14.180  0.00  0.00    +0.000 OA
ATOM      9  C   UNL     1       6.774   4.415  14.772  0.00  0.00    +0.000 A 
ATOM     10  C   UNL     1       7.482   5.096  13.795  0.00  0.00    +0.000 A 
ENDBRANCH   1   9
BRANCH   4  11
ATOM     11  C   UNL     1       5.294   5.127  19.271  0.00  0.00    +0.000 C 
BRANCH  11  12
ATOM     12  C   UNL     1       3.952   4.422  19.022  0.00  0.00    +0.000 C 
ATOM     13  C   UNL     1       2.910   5.001  19.995  0.00  0.00    +0.000 C 
ATOM     14  C   UNL     1       1.623   4.194  20.009  0.00  0.00    +0.000 C 
ATOM     15  O   UNL     1       1.903   2.826  20.285  0.00  0.00    +0.000 OA
ATOM     16  C   UNL     1       2.690   2.231  19.257  0.00  0.00    +0.000 C 
ATOM     17  C   UNL     1       4.058   2.896  19.177  0.00  0.00    +0.000 C 
ENDBRANCH  11  12
ENDBRANCH   4  11
TORSDOF 3
ENDMDL
MODEL 9
REMARK VINA RESULT:      -6.5      1.298      1.383
REMARK  Name = 
REMARK  3 active torsions:
REMARK  status: ('A' for Active; 'I' for Inactive)
REMARK    1  A    between atoms: C_4  and  C_5
REMARK    2  A    between atoms: N_8  and  C_9
REMARK    3  A    between atoms: C_9  and  C_10
REMARK                            x       y       z     vdW  Elec       q    Type
REMARK                         _______ _______ _______ _____ _____    ______ ____
ROOT
ATOM      1  C   UNL     1       6.183   5.074  15.728  0.00  0.00    +0.000 A 
ATOM      2  N   UNL     1       6.685   6.145  16.425  0.00  0.00    +0.000 NA
ATOM      3  N   UNL     1       6.281   6.005  17.682  0.00  0.00    +0.000 NA
ATOM      4  N   UNL     1       5.567   4.867  17.686  0.00  0.00    +0.000 N 
ATOM      5  N   UNL     1       5.419   4.270  16.489  0.00  0.00    +0.000 NA
ENDROOT
BRANCH   1   9
ATOM      6  C   UNL     1       6.625   3.733  12.317  0.00  0.00    +0.000 A 
ATOM      7  C   UNL     1       7.567   4.732  12.385  0.00  0.00    +0.000 A 
ATOM      8  O   UNL     1       7.502   5.371  13.583  0.00  0.00    +0.000 OA
ATOM      9  C   UNL     1       6.522   4.759  14.316  0.00  0.00    +0.000 A 
ATOM     10  C   UNL     1       5.941   3.756  13.556  0.00  0.00    +0.000 A 
ENDBRANCH   1   9
BRANCH   4  11
ATOM     11  C   UNL     1       5.302   4.138  18.905  0.00  0.00    +0.000 C 
BRANCH  11  12
ATOM     12  C   UNL     1       3.819   3.937  19.247  0.00  0.00    +0.000 C 
ATOM     13  C   UNL     1       3.291   5.227  19.903  0.00  0.00    +0.000 C 
ATOM     14  C   UNL     1       1.912   5.041  20.513  0.00  0.00    +0.000 C 
ATOM     15  O   UNL     1       1.920   3.948  21.424  0.00  0.00    +0.000 OA
ATOM     16  C   UNL     1       2.192   2.714  20.766  0.00  0.00    +0.000 C 
ATOM     17  C   UNL     1       3.591   2.724  20.164  0.00  0.00    +0.000 C 
ENDBRANCH  11  12
ENDBRANCH   4  11
TORSDOF 3
ENDMDL
