MODEL 1
REMARK VINA RESULT:      -8.5      0.000      0.000
REMARK  Name = 
REMARK  8 active torsions:
REMARK  status: ('A' for Active; 'I' for Inactive)
REMARK    1  A    between atoms: C_1  and  C_2
REMARK    2  A    between atoms: C_2  and  C_3
REMARK    3  A    between atoms: C_3  and  C_4
REMARK    4  A    between atoms: N_6  and  C_7
REMARK    5  A    between atoms: C_11  and  N_12
REMARK    6  A    between atoms: C_13  and  C_15
REMARK    7  A    between atoms: C_18  and  C_19
REMARK    8  A    between atoms: C_20  and  N_21
REMARK                            x       y       z     vdW  Elec       q    Type
REMARK                         _______ _______ _______ _____ _____    ______ ____
ROOT
ATOM      1  N   UNL     1       4.296   6.979  17.863  0.00  0.00    +0.000 N 
ATOM      2  C   UNL     1       3.310   6.655  18.786  0.00  0.00    +0.000 C 
ATOM      3  O   UNL     1       3.247   5.620  19.443  0.00  0.00    +0.000 OA
ATOM      4  H   UNL     1       4.347   7.932  17.531  0.00  0.00    +0.000 HD
ENDROOT
BRANCH   2   5
ATOM      5  C   UNL     1       2.254   7.662  19.066  0.00  0.00    +0.000 A 
ATOM      6  C   UNL     1       1.937   8.546  18.027  0.00  0.00    +0.000 A 
ATOM      7  C   UNL     1       1.044   9.595  18.227  0.00  0.00    +0.000 A 
ATOM      8  C   UNL     1       0.441   9.806  19.478  0.00  0.00    +0.000 A 
ATOM      9  C   UNL     1      -0.490  10.983  19.594  0.00  0.00    +0.000 C 
ATOM     10  C   UNL     1       0.767   8.916  20.531  0.00  0.00    +0.000 A 
ATOM     11  C   UNL     1       1.670   7.842  20.322  0.00  0.00    +0.000 A 
BRANCH  10  12
ATOM     12  N   UNL     1       0.208   9.068  21.893  0.00  0.00    +0.000 N 
ATOM     13  O   UNL     1      -0.783   8.403  22.217  0.00  0.00    +0.000 OA
ATOM     14  O   UNL     1       0.782   9.863  22.657  0.00  0.00    +0.000 OA
ENDBRANCH  10  12
ENDBRANCH   2   5
BRANCH   1  19
ATOM     15  C   UNL     1       6.401   4.716  15.755  0.00  0.00    +0.000 A 
ATOM     16  C   UNL     1       7.414   4.387  16.657  0.00  0.00    +0.000 A 
ATOM     17  C   UNL     1       7.393   4.880  17.955  0.00  0.00    +0.000 A 
ATOM     18  C   UNL     1       6.362   5.720  18.362  0.00  0.00    +0.000 A 
ATOM     19  C   UNL     1       5.350   6.105  17.476  0.00  0.00    +0.000 A 
ATOM     20  C   UNL     1       5.376   5.592  16.166  0.00  0.00    +0.000 A 
BRANCH  15  23
ATOM     21  C   UNL     1       7.142   4.704  13.376  0.00  0.00    +0.000 C 
ATOM     22  O   UNL     1       8.018   5.562  13.442  0.00  0.00    +0.000 OA
ATOM     23  N   UNL     1       6.388   4.213  14.432  0.00  0.00    +0.000 N 
ATOM     24  H   UNL     1       5.861   3.365  14.270  0.00  0.00    +0.000 HD
BRANCH  21  25
ATOM     25  C   UNL     1       6.827   4.057  12.040  0.00  0.00    +0.000 C 
BRANCH  25  27
ATOM     26  C   UNL     1       4.452   3.339  11.493  0.00  0.00    +0.000 C 
ATOM     27  C   UNL     1       5.779   2.953  12.134  0.00  0.00    +0.000 C 
ENDBRANCH  25  27
ENDBRANCH  21  25
ENDBRANCH  15  23
ENDBRANCH   1  19
TORSDOF 6
ENDMDL
MODEL 2
REMARK VINA RESULT:      -7.7      2.806      4.295
REMARK  Name = 
REMARK  8 active torsions:
REMARK  status: ('A' for Active; 'I' for Inactive)
REMARK    1  A    between atoms: C_1  and  C_2
REMARK    2  A    between atoms: C_2  and  C_3
REMARK    3  A    between atoms: C_3  and  C_4
REMARK    4  A    between atoms: N_6  and  C_7
REMARK    5  A    between atoms: C_11  and  N_12
REMARK    6  A    between atoms: C_13  and  C_15
REMARK    7  A    between atoms: C_18  and  C_19
REMARK    8  A    between atoms: C_20  and  N_21
REMARK                            x       y       z     vdW  Elec       q    Type
REMARK                         _______ _______ _______ _____ _____    ______ ____
ROOT
ATOM      1  N   UNL     1       1.834   6.340  20.972  0.00  0.00    +0.000 N 
ATOM      2  C   UNL     1       1.760   7.474  20.173  0.00  0.00    +0.000 C 
ATOM      3  O   UNL     1       2.148   7.567  19.012  0.00  0.00    +0.000 OA
ATOM      4  H   UNL     1       1.311   6.327  21.836  0.00  0.00    +0.000 HD
ENDROOT
BRANCH   2   5
ATOM      5  C   UNL     1       1.101   8.682  20.731  0.00  0.00    +0.000 A 
ATOM      6  C   UNL     1       0.956   8.733  22.123  0.00  0.00    +0.000 A 
ATOM      7  C   UNL     1       0.253   9.768  22.733  0.00  0.00    +0.000 A 
ATOM      8  C   UNL     1      -0.341  10.788  21.971  0.00  0.00    +0.000 A 
ATOM      9  C   UNL     1      -1.099  11.846  22.727  0.00  0.00    +0.000 C 
ATOM     10  C   UNL     1      -0.201  10.733  20.563  0.00  0.00    +0.000 A 
ATOM     11  C   UNL     1       0.524   9.683  19.945  0.00  0.00    +0.000 A 
BRANCH  10  12
ATOM     12  N   UNL     1      -0.812  11.744  19.670  0.00  0.00    +0.000 N 
ATOM     13  O   UNL     1      -1.971  11.575  19.271  0.00  0.00    +0.000 OA
ATOM     14  O   UNL     1      -0.120  12.732  19.373  0.00  0.00    +0.000 OA
ENDBRANCH  10  12
ENDBRANCH   2   5
BRANCH   1  19
ATOM     15  C   UNL     1       4.217   3.977  19.318  0.00  0.00    +0.000 A 
ATOM     16  C   UNL     1       3.740   2.753  19.790  0.00  0.00    +0.000 A 
ATOM     17  C   UNL     1       2.628   2.700  20.620  0.00  0.00    +0.000 A 
ATOM     18  C   UNL     1       1.988   3.875  20.999  0.00  0.00    +0.000 A 
ATOM     19  C   UNL     1       2.460   5.123  20.580  0.00  0.00    +0.000 A 
ATOM     20  C   UNL     1       3.580   5.165  19.731  0.00  0.00    +0.000 A 
BRANCH  15  23
ATOM     21  C   UNL     1       6.515   4.736  18.728  0.00  0.00    +0.000 C 
ATOM     22  O   UNL     1       6.823   5.265  19.793  0.00  0.00    +0.000 OA
ATOM     23  N   UNL     1       5.336   4.059  18.455  0.00  0.00    +0.000 N 
ATOM     24  H   UNL     1       5.310   3.495  17.616  0.00  0.00    +0.000 HD
BRANCH  21  25
ATOM     25  C   UNL     1       7.492   4.767  17.568  0.00  0.00    +0.000 C 
BRANCH  25  27
ATOM     26  C   UNL     1       6.776   4.761  15.129  0.00  0.00    +0.000 C 
ATOM     27  C   UNL     1       7.001   5.595  16.384  0.00  0.00    +0.000 C 
ENDBRANCH  25  27
ENDBRANCH  21  25
ENDBRANCH  15  23
ENDBRANCH   1  19
TORSDOF 6
ENDMDL
MODEL 3
REMARK VINA RESULT:      -7.6      0.961      1.137
REMARK  Name = 
REMARK  8 active torsions:
REMARK  status: ('A' for Active; 'I' for Inactive)
REMARK    1  A    between atoms: C_1  and  C_2
REMARK    2  A    between atoms: C_2  and  C_3
REMARK    3  A    between atoms: C_3  and  C_4
REMARK    4  A    between atoms: N_6  and  C_7
REMARK    5  A    between atoms: C_11  and  N_12
REMARK    6  A    between atoms: C_13  and  C_15
REMARK    7  A    between atoms: C_18  and  C_19
REMARK    8  A    between atoms: C_20  and  N_21
REMARK                            x       y       z     vdW  Elec       q    Type
REMARK                         _______ _______ _______ _____ _____    ______ ____
ROOT
ATOM      1  N   UNL     1       4.598   7.093  18.162  0.00  0.00    +0.000 N 
ATOM      2  C   UNL     1       3.267   6.711  18.280  0.00  0.00    +0.000 C 
ATOM      3  O   UNL     1       2.822   5.580  18.112  0.00  0.00    +0.000 OA
ATOM      4  H   UNL     1       4.868   8.002  18.511  0.00  0.00    +0.000 HD
ENDROOT
BRANCH   2   5
ATOM      5  C   UNL     1       2.280   7.736  18.707  0.00  0.00    +0.000 A 
ATOM      6  C   UNL     1       1.886   8.671  17.742  0.00  0.00    +0.000 A 
ATOM      7  C   UNL     1       1.053   9.736  18.074  0.00  0.00    +0.000 A 
ATOM      8  C   UNL     1       0.589   9.911  19.388  0.00  0.00    +0.000 A 
ATOM      9  C   UNL     1      -0.287  11.108  19.646  0.00  0.00    +0.000 C 
ATOM     10  C   UNL     1       0.992   8.968  20.366  0.00  0.00    +0.000 A 
ATOM     11  C   UNL     1       1.834   7.880  20.023  0.00  0.00    +0.000 A 
BRANCH  10  12
ATOM     12  N   UNL     1       0.581   9.079  21.784  0.00  0.00    +0.000 N 
ATOM     13  O   UNL     1       1.341   9.628  22.592  0.00  0.00    +0.000 OA
ATOM     14  O   UNL     1      -0.531   8.618  22.090  0.00  0.00    +0.000 OA
ENDBRANCH  10  12
ENDBRANCH   2   5
BRANCH   1  19
ATOM     15  C   UNL     1       6.783   5.044  15.921  0.00  0.00    +0.000 A 
ATOM     16  C   UNL     1       7.701   4.539  16.843  0.00  0.00    +0.000 A 
ATOM     17  C   UNL     1       7.588   4.844  18.193  0.00  0.00    +0.000 A 
ATOM     18  C   UNL     1       6.561   5.671  18.635  0.00  0.00    +0.000 A 
ATOM     19  C   UNL     1       5.645   6.229  17.737  0.00  0.00    +0.000 A 
ATOM     20  C   UNL     1       5.762   5.905  16.373  0.00  0.00    +0.000 A 
BRANCH  15  23
ATOM     21  C   UNL     1       5.946   3.971  13.834  0.00  0.00    +0.000 C 
ATOM     22  O   UNL     1       4.871   3.549  14.252  0.00  0.00    +0.000 OA
ATOM     23  N   UNL     1       6.863   4.733  14.542  0.00  0.00    +0.000 N 
ATOM     24  H   UNL     1       7.595   5.187  14.013  0.00  0.00    +0.000 HD
BRANCH  21  25
ATOM     25  C   UNL     1       6.355   3.689  12.401  0.00  0.00    +0.000 C 
BRANCH  25  27
ATOM     26  C   UNL     1       4.198   3.200  11.148  0.00  0.00    +0.000 C 
ATOM     27  C   UNL     1       5.490   2.631  11.721  0.00  0.00    +0.000 C 
ENDBRANCH  25  27
ENDBRANCH  21  25
ENDBRANCH  15  23
ENDBRANCH   1  19
TORSDOF 6
ENDMDL
MODEL 4
REMARK VINA RESULT:      -7.6      5.112      7.387
REMARK  Name = 
REMARK  8 active torsions:
REMARK  status: ('A' for Active; 'I' for Inactive)
REMARK    1  A    between atoms: C_1  and  C_2
REMARK    2  A    between atoms: C_2  and  C_3
REMARK    3  A    between atoms: C_3  and  C_4
REMARK    4  A    between atoms: N_6  and  C_7
REMARK    5  A    between atoms: C_11  and  N_12
REMARK    6  A    between atoms: C_13  and  C_15
REMARK    7  A    between atoms: C_18  and  C_19
REMARK    8  A    between atoms: C_20  and  N_21
REMARK                            x       y       z     vdW  Elec       q    Type
REMARK                         _______ _______ _______ _____ _____    ______ ____
ROOT
ATOM      1  N   UNL     1       7.021   7.743  17.102  0.00  0.00    +0.000 N 
ATOM      2  C   UNL     1       7.962   8.046  18.077  0.00  0.00    +0.000 C 
ATOM      3  O   UNL     1       8.537   7.239  18.802  0.00  0.00    +0.000 OA
ATOM      4  H   UNL     1       6.763   8.465  16.443  0.00  0.00    +0.000 HD
ENDROOT
BRANCH   2   5
ATOM      5  C   UNL     1       8.373   9.465  18.238  0.00  0.00    +0.000 A 
ATOM      6  C   UNL     1       7.722  10.403  17.427  0.00  0.00    +0.000 A 
ATOM      7  C   UNL     1       8.114  11.739  17.421  0.00  0.00    +0.000 A 
ATOM      8  C   UNL     1       9.179  12.186  18.222  0.00  0.00    +0.000 A 
ATOM      9  C   UNL     1       9.537  13.644  18.124  0.00  0.00    +0.000 C 
ATOM     10  C   UNL     1       9.840  11.235  19.038  0.00  0.00    +0.000 A 
ATOM     11  C   UNL     1       9.434   9.877  19.048  0.00  0.00    +0.000 A 
BRANCH  10  12
ATOM     12  N   UNL     1      10.990  11.599  19.896  0.00  0.00    +0.000 N 
ATOM     13  O   UNL     1      10.782  12.008  21.045  0.00  0.00    +0.000 OA
ATOM     14  O   UNL     1      12.126  11.460  19.412  0.00  0.00    +0.000 OA
ENDBRANCH  10  12
ENDBRANCH   2   5
BRANCH   1  19
ATOM     15  C   UNL     1       4.927   4.659  17.417  0.00  0.00    +0.000 A 
ATOM     16  C   UNL     1       5.469   3.871  16.400  0.00  0.00    +0.000 A 
ATOM     17  C   UNL     1       6.531   4.335  15.636  0.00  0.00    +0.000 A 
ATOM     18  C   UNL     1       7.056   5.601  15.872  0.00  0.00    +0.000 A 
ATOM     19  C   UNL     1       6.515   6.436  16.855  0.00  0.00    +0.000 A 
ATOM     20  C   UNL     1       5.445   5.952  17.630  0.00  0.00    +0.000 A 
BRANCH  15  23
ATOM     21  C   UNL     1       3.969   3.321  19.288  0.00  0.00    +0.000 C 
ATOM     22  O   UNL     1       5.013   2.892  19.773  0.00  0.00    +0.000 OA
ATOM     23  N   UNL     1       3.857   4.203  18.224  0.00  0.00    +0.000 N 
ATOM     24  H   UNL     1       2.954   4.634  18.073  0.00  0.00    +0.000 HD
BRANCH  21  25
ATOM     25  C   UNL     1       2.640   2.904  19.888  0.00  0.00    +0.000 C 
BRANCH  25  27
ATOM     26  C   UNL     1       1.421   5.010  20.622  0.00  0.00    +0.000 C 
ATOM     27  C   UNL     1       1.510   3.888  19.596  0.00  0.00    +0.000 C 
ENDBRANCH  25  27
ENDBRANCH  21  25
ENDBRANCH  15  23
ENDBRANCH   1  19
TORSDOF 6
ENDMDL
MODEL 5
REMARK VINA RESULT:      -7.6      1.021      1.044
REMARK  Name = 
REMARK  8 active torsions:
REMARK  status: ('A' for Active; 'I' for Inactive)
REMARK    1  A    between atoms: C_1  and  C_2
REMARK    2  A    between atoms: C_2  and  C_3
REMARK    3  A    between atoms: C_3  and  C_4
REMARK    4  A    between atoms: N_6  and  C_7
REMARK    5  A    between atoms: C_11  and  N_12
REMARK    6  A    between atoms: C_13  and  C_15
REMARK    7  A    between atoms: C_18  and  C_19
REMARK    8  A    between atoms: C_20  and  N_21
REMARK                            x       y       z     vdW  Elec       q    Type
REMARK                         _______ _______ _______ _____ _____    ______ ____
ROOT
ATOM      1  N   UNL     1       3.790   6.531  18.488  0.00  0.00    +0.000 N 
ATOM      2  C   UNL     1       3.269   7.652  17.854  0.00  0.00    +0.000 C 
ATOM      3  O   UNL     1       3.646   8.118  16.783  0.00  0.00    +0.000 OA
ATOM      4  H   UNL     1       3.274   6.134  19.261  0.00  0.00    +0.000 HD
ENDROOT
BRANCH   2   5
ATOM      5  C   UNL     1       2.105   8.333  18.479  0.00  0.00    +0.000 A 
ATOM      6  C   UNL     1       1.384   9.217  17.667  0.00  0.00    +0.000 A 
ATOM      7  C   UNL     1       0.348   9.986  18.190  0.00  0.00    +0.000 A 
ATOM      8  C   UNL     1       0.001   9.907  19.549  0.00  0.00    +0.000 A 
ATOM      9  C   UNL     1      -1.117  10.799  20.018  0.00  0.00    +0.000 C 
ATOM     10  C   UNL     1       0.735   9.018  20.372  0.00  0.00    +0.000 A 
ATOM     11  C   UNL     1       1.784   8.229  19.834  0.00  0.00    +0.000 A 
BRANCH  10  12
ATOM     12  N   UNL     1       0.467   8.882  21.821  0.00  0.00    +0.000 N 
ATOM     13  O   UNL     1      -0.524   8.243  22.194  0.00  0.00    +0.000 OA
ATOM     14  O   UNL     1       1.273   9.418  22.600  0.00  0.00    +0.000 OA
ENDBRANCH  10  12
ENDBRANCH   2   5
BRANCH   1  19
ATOM     15  C   UNL     1       5.977   4.481  16.250  0.00  0.00    +0.000 A 
ATOM     16  C   UNL     1       7.117   4.353  17.045  0.00  0.00    +0.000 A 
ATOM     17  C   UNL     1       7.158   4.909  18.317  0.00  0.00    +0.000 A 
ATOM     18  C   UNL     1       6.061   5.614  18.802  0.00  0.00    +0.000 A 
ATOM     19  C   UNL     1       4.916   5.798  18.020  0.00  0.00    +0.000 A 
ATOM     20  C   UNL     1       4.881   5.221  16.738  0.00  0.00    +0.000 A 
BRANCH  15  23
ATOM     21  C   UNL     1       6.562   4.372  13.830  0.00  0.00    +0.000 C 
ATOM     22  O   UNL     1       7.402   5.268  13.795  0.00  0.00    +0.000 OA
ATOM     23  N   UNL     1       5.901   3.907  14.958  0.00  0.00    +0.000 N 
ATOM     24  H   UNL     1       5.403   3.031  14.874  0.00  0.00    +0.000 HD
BRANCH  21  25
ATOM     25  C   UNL     1       6.191   3.642  12.553  0.00  0.00    +0.000 C 
BRANCH  25  27
ATOM     26  C   UNL     1       4.175   3.302  11.044  0.00  0.00    +0.000 C 
ATOM     27  C   UNL     1       4.711   3.282  12.470  0.00  0.00    +0.000 C 
ENDBRANCH  25  27
ENDBRANCH  21  25
ENDBRANCH  15  23
ENDBRANCH   1  19
TORSDOF 6
ENDMDL
MODEL 6
REMARK VINA RESULT:      -7.5      5.252      7.355
REMARK  Name = 
REMARK  8 active torsions:
REMARK  status: ('A' for Active; 'I' for Inactive)
REMARK    1  A    between atoms: C_1  and  C_2
REMARK    2  A    between atoms: C_2  and  C_3
REMARK    3  A    between atoms: C_3  and  C_4
REMARK    4  A    between atoms: N_6  and  C_7
REMARK    5  A    between atoms: C_11  and  N_12
REMARK    6  A    between atoms: C_13  and  C_15
REMARK    7  A    between atoms: C_18  and  C_19
REMARK    8  A    between atoms: C_20  and  N_21
REMARK                            x       y       z     vdW  Elec       q    Type
REMARK                         _______ _______ _______ _____ _____    ______ ____
ROOT
ATOM      1  N   UNL     1       7.022   7.955  17.189  0.00  0.00    +0.000 N 
ATOM      2  C   UNL     1       7.991   8.212  18.150  0.00  0.00    +0.000 C 
ATOM      3  O   UNL     1       8.565   7.375  18.840  0.00  0.00    +0.000 OA
ATOM      4  H   UNL     1       6.765   8.699  16.556  0.00  0.00    +0.000 HD
ENDROOT
BRANCH   2   5
ATOM      5  C   UNL     1       8.435   9.617  18.338  0.00  0.00    +0.000 A 
ATOM      6  C   UNL     1       7.974  10.553  17.404  0.00  0.00    +0.000 A 
ATOM      7  C   UNL     1       8.423  11.870  17.427  0.00  0.00    +0.000 A 
ATOM      8  C   UNL     1       9.359  12.300  18.383  0.00  0.00    +0.000 A 
ATOM      9  C   UNL     1       9.797  13.738  18.306  0.00  0.00    +0.000 C 
ATOM     10  C   UNL     1       9.830  11.352  19.325  0.00  0.00    +0.000 A 
ATOM     11  C   UNL     1       9.364  10.013  19.303  0.00  0.00    +0.000 A 
BRANCH  10  12
ATOM     12  N   UNL     1      10.837  11.697  20.353  0.00  0.00    +0.000 N 
ATOM     13  O   UNL     1      12.036  11.507  20.113  0.00  0.00    +0.000 OA
ATOM     14  O   UNL     1      10.418  12.180  21.419  0.00  0.00    +0.000 OA
ENDBRANCH  10  12
ENDBRANCH   2   5
BRANCH   1  19
ATOM     15  C   UNL     1       4.645   5.066  17.165  0.00  0.00    +0.000 A 
ATOM     16  C   UNL     1       5.366   4.142  16.406  0.00  0.00    +0.000 A 
ATOM     17  C   UNL     1       6.633   4.452  15.930  0.00  0.00    +0.000 A 
ATOM     18  C   UNL     1       7.189   5.699  16.198  0.00  0.00    +0.000 A 
ATOM     19  C   UNL     1       6.482   6.666  16.920  0.00  0.00    +0.000 A 
ATOM     20  C   UNL     1       5.204   6.337  17.406  0.00  0.00    +0.000 A 
BRANCH  15  23
ATOM     21  C   UNL     1       2.911   3.508  18.044  0.00  0.00    +0.000 C 
ATOM     22  O   UNL     1       3.583   2.481  18.097  0.00  0.00    +0.000 OA
ATOM     23  N   UNL     1       3.360   4.768  17.678  0.00  0.00    +0.000 N 
ATOM     24  H   UNL     1       2.757   5.553  17.886  0.00  0.00    +0.000 HD
BRANCH  21  25
ATOM     25  C   UNL     1       1.446   3.465  18.436  0.00  0.00    +0.000 C 
BRANCH  25  27
ATOM     26  C   UNL     1       1.262   2.970  20.922  0.00  0.00    +0.000 C 
ATOM     27  C   UNL     1       1.175   4.027  19.828  0.00  0.00    +0.000 C 
ENDBRANCH  25  27
ENDBRANCH  21  25
ENDBRANCH  15  23
ENDBRANCH   1  19
TORSDOF 6
ENDMDL
MODEL 7
REMARK VINA RESULT:      -7.5      2.730      3.860
REMARK  Name = 
REMARK  8 active torsions:
REMARK  status: ('A' for Active; 'I' for Inactive)
REMARK    1  A    between atoms: C_1  and  C_2
REMARK    2  A    between atoms: C_2  and  C_3
REMARK    3  A    between atoms: C_3  and  C_4
REMARK    4  A    between atoms: N_6  and  C_7
REMARK    5  A    between atoms: C_11  and  N_12
REMARK    6  A    between atoms: C_13  and  C_15
REMARK    7  A    between atoms: C_18  and  C_19
REMARK    8  A    between atoms: C_20  and  N_21
REMARK                            x       y       z     vdW  Elec       q    Type
REMARK                         _______ _______ _______ _____ _____    ______ ____
ROOT
ATOM      1  N   UNL     1       2.089   6.255  20.857  0.00  0.00    +0.000 N 
ATOM      2  C   UNL     1       1.928   7.366  20.040  0.00  0.00    +0.000 C 
ATOM      3  O   UNL     1       2.239   7.444  18.854  0.00  0.00    +0.000 OA
ATOM      4  H   UNL     1       1.622   6.246  21.752  0.00  0.00    +0.000 HD
ENDROOT
BRANCH   2   5
ATOM      5  C   UNL     1       1.263   8.565  20.611  0.00  0.00    +0.000 A 
ATOM      6  C   UNL     1       1.045   8.563  21.995  0.00  0.00    +0.000 A 
ATOM      7  C   UNL     1       0.330   9.588  22.609  0.00  0.00    +0.000 A 
ATOM      8  C   UNL     1      -0.202  10.651  21.859  0.00  0.00    +0.000 A 
ATOM      9  C   UNL     1      -0.978  11.694  22.617  0.00  0.00    +0.000 C 
ATOM     10  C   UNL     1       0.014  10.650  20.459  0.00  0.00    +0.000 A 
ATOM     11  C   UNL     1       0.750   9.609  19.838  0.00  0.00    +0.000 A 
BRANCH  10  12
ATOM     12  N   UNL     1      -0.529  11.708  19.578  0.00  0.00    +0.000 N 
ATOM     13  O   UNL     1       0.175  12.690  19.310  0.00  0.00    +0.000 OA
ATOM     14  O   UNL     1      -1.679  11.546  19.137  0.00  0.00    +0.000 OA
ENDBRANCH  10  12
ENDBRANCH   2   5
BRANCH   1  19
ATOM     15  C   UNL     1       4.519   3.941  19.202  0.00  0.00    +0.000 A 
ATOM     16  C   UNL     1       4.043   2.705  19.641  0.00  0.00    +0.000 A 
ATOM     17  C   UNL     1       2.916   2.628  20.450  0.00  0.00    +0.000 A 
ATOM     18  C   UNL     1       2.261   3.791  20.840  0.00  0.00    +0.000 A 
ATOM     19  C   UNL     1       2.731   5.050  20.454  0.00  0.00    +0.000 A 
ATOM     20  C   UNL     1       3.866   5.116  19.626  0.00  0.00    +0.000 A 
BRANCH  15  23
ATOM     21  C   UNL     1       5.654   4.548  17.068  0.00  0.00    +0.000 C 
ATOM     22  O   UNL     1       4.710   5.085  16.494  0.00  0.00    +0.000 OA
ATOM     23  N   UNL     1       5.654   4.047  18.362  0.00  0.00    +0.000 N 
ATOM     24  H   UNL     1       6.551   3.831  18.775  0.00  0.00    +0.000 HD
BRANCH  21  25
ATOM     25  C   UNL     1       6.987   4.419  16.357  0.00  0.00    +0.000 C 
BRANCH  25  27
ATOM     26  C   UNL     1       6.375   3.899  13.945  0.00  0.00    +0.000 C 
ATOM     27  C   UNL     1       6.956   4.920  14.916  0.00  0.00    +0.000 C 
ENDBRANCH  25  27
ENDBRANCH  21  25
ENDBRANCH  15  23
ENDBRANCH   1  19
TORSDOF 6
ENDMDL
MODEL 8
REMARK VINA RESULT:      -7.4      4.501      8.944
REMARK  Name = 
REMARK  8 active torsions:
REMARK  status: ('A' for Active; 'I' for Inactive)
REMARK    1  A    between atoms: C_1  and  C_2
REMARK    2  A    between atoms: C_2  and  C_3
REMARK    3  A    between atoms: C_3  and  C_4
REMARK    4  A    between atoms: N_6  and  C_7
REMARK    5  A    between atoms: C_11  and  N_12
REMARK    6  A    between atoms: C_13  and  C_15
REMARK    7  A    between atoms: C_18  and  C_19
REMARK    8  A    between atoms: C_20  and  N_21
REMARK                            x       y       z     vdW  Elec       q    Type
REMARK                         _______ _______ _______ _____ _____    ______ ____
ROOT
ATOM      1  N   UNL     1       1.324   9.004  18.710  0.00  0.00    +0.000 N 
ATOM      2  C   UNL     1       1.532   8.316  19.899  0.00  0.00    +0.000 C 
ATOM      3  O   UNL     1       1.175   8.680  21.017  0.00  0.00    +0.000 OA
ATOM      4  H   UNL     1       1.489   8.517  17.840  0.00  0.00    +0.000 HD
ENDROOT
BRANCH   2   5
ATOM      5  C   UNL     1       2.190   6.987  19.834  0.00  0.00    +0.000 A 
ATOM      6  C   UNL     1       3.186   6.825  18.862  0.00  0.00    +0.000 A 
ATOM      7  C   UNL     1       3.782   5.586  18.646  0.00  0.00    +0.000 A 
ATOM      8  C   UNL     1       3.398   4.457  19.390  0.00  0.00    +0.000 A 
ATOM      9  C   UNL     1       4.089   3.161  19.061  0.00  0.00    +0.000 C 
ATOM     10  C   UNL     1       2.387   4.619  20.369  0.00  0.00    +0.000 A 
ATOM     11  C   UNL     1       1.787   5.885  20.592  0.00  0.00    +0.000 A 
BRANCH  10  12
ATOM     12  N   UNL     1       1.892   3.487  21.184  0.00  0.00    +0.000 N 
ATOM     13  O   UNL     1       0.976   2.782  20.746  0.00  0.00    +0.000 OA
ATOM     14  O   UNL     1       2.442   3.296  22.282  0.00  0.00    +0.000 OA
ENDBRANCH  10  12
ENDBRANCH   2   5
BRANCH   1  19
ATOM     15  C   UNL     1      -1.267  11.671  18.301  0.00  0.00    +0.000 A 
ATOM     16  C   UNL     1      -0.487  12.818  18.459  0.00  0.00    +0.000 A 
ATOM     17  C   UNL     1       0.882  12.719  18.669  0.00  0.00    +0.000 A 
ATOM     18  C   UNL     1       1.485  11.468  18.737  0.00  0.00    +0.000 A 
ATOM     19  C   UNL     1       0.732  10.295  18.624  0.00  0.00    +0.000 A 
ATOM     20  C   UNL     1      -0.652  10.407  18.401  0.00  0.00    +0.000 A 
BRANCH  15  23
ATOM     21  C   UNL     1      -3.298  11.402  16.884  0.00  0.00    +0.000 C 
ATOM     22  O   UNL     1      -2.780  10.875  15.903  0.00  0.00    +0.000 OA
ATOM     23  N   UNL     1      -2.661  11.744  18.068  0.00  0.00    +0.000 N 
ATOM     24  H   UNL     1      -3.247  11.969  18.861  0.00  0.00    +0.000 HD
BRANCH  21  25
ATOM     25  C   UNL     1      -4.784  11.707  16.873  0.00  0.00    +0.000 C 
BRANCH  25  27
ATOM     26  C   UNL     1      -6.642  10.907  18.412  0.00  0.00    +0.000 C 
ATOM     27  C   UNL     1      -5.399  11.775  18.267  0.00  0.00    +0.000 C 
ENDBRANCH  25  27
ENDBRANCH  21  25
ENDBRANCH  15  23
ENDBRANCH   1  19
TORSDOF 6
ENDMDL
MODEL 9
REMARK VINA RESULT:      -7.4      3.023      4.537
REMARK  Name = 
REMARK  8 active torsions:
REMARK  status: ('A' for Active; 'I' for Inactive)
REMARK    1  A    between atoms: C_1  and  C_2
REMARK    2  A    between atoms: C_2  and  C_3
REMARK    3  A    between atoms: C_3  and  C_4
REMARK    4  A    between atoms: N_6  and  C_7
REMARK    5  A    between atoms: C_11  and  N_12
REMARK    6  A    between atoms: C_13  and  C_15
REMARK    7  A    between atoms: C_18  and  C_19
REMARK    8  A    between atoms: C_20  and  N_21
REMARK                            x       y       z     vdW  Elec       q    Type
REMARK                         _______ _______ _______ _____ _____    ______ ____
ROOT
ATOM      1  N   UNL     1       1.489   6.349  20.893  0.00  0.00    +0.000 N 
ATOM      2  C   UNL     1       1.684   7.567  20.254  0.00  0.00    +0.000 C 
ATOM      3  O   UNL     1       2.313   7.747  19.216  0.00  0.00    +0.000 OA
ATOM      4  H   UNL     1       0.798   6.298  21.628  0.00  0.00    +0.000 HD
ENDROOT
BRANCH   2   5
ATOM      5  C   UNL     1       1.029   8.771  20.828  0.00  0.00    +0.000 A 
ATOM      6  C   UNL     1       0.879   8.803  22.220  0.00  0.00    +0.000 A 
ATOM      7  C   UNL     1       0.179   9.832  22.842  0.00  0.00    +0.000 A 
ATOM      8  C   UNL     1      -0.407  10.867  22.093  0.00  0.00    +0.000 A 
ATOM      9  C   UNL     1      -1.161  11.918  22.861  0.00  0.00    +0.000 C 
ATOM     10  C   UNL     1      -0.261  10.832  20.684  0.00  0.00    +0.000 A 
ATOM     11  C   UNL     1       0.460   9.786  20.054  0.00  0.00    +0.000 A 
BRANCH  10  12
ATOM     12  N   UNL     1      -0.863  11.858  19.804  0.00  0.00    +0.000 N 
ATOM     13  O   UNL     1      -0.209  12.868  19.518  0.00  0.00    +0.000 OA
ATOM     14  O   UNL     1      -2.012  11.641  19.382  0.00  0.00    +0.000 OA
ENDBRANCH  10  12
ENDBRANCH   2   5
BRANCH   1  19
ATOM     15  C   UNL     1       3.913   3.944  19.365  0.00  0.00    +0.000 A 
ATOM     16  C   UNL     1       3.283   2.729  19.639  0.00  0.00    +0.000 A 
ATOM     17  C   UNL     1       2.058   2.699  20.293  0.00  0.00    +0.000 A 
ATOM     18  C   UNL     1       1.456   3.888  20.694  0.00  0.00    +0.000 A 
ATOM     19  C   UNL     1       2.076   5.122  20.474  0.00  0.00    +0.000 A 
ATOM     20  C   UNL     1       3.311   5.141  19.801  0.00  0.00    +0.000 A 
BRANCH  15  23
ATOM     21  C   UNL     1       5.329   4.412  17.370  0.00  0.00    +0.000 C 
ATOM     22  O   UNL     1       4.473   4.896  16.634  0.00  0.00    +0.000 OA
ATOM     23  N   UNL     1       5.152   4.004  18.683  0.00  0.00    +0.000 N 
ATOM     24  H   UNL     1       5.985   3.829  19.230  0.00  0.00    +0.000 HD
BRANCH  21  25
ATOM     25  C   UNL     1       6.748   4.249  16.858  0.00  0.00    +0.000 C 
BRANCH  25  27
ATOM     26  C   UNL     1       7.631   6.282  18.102  0.00  0.00    +0.000 C 
ATOM     27  C   UNL     1       7.803   4.796  17.815  0.00  0.00    +0.000 C 
ENDBRANCH  25  27
ENDBRANCH  21  25
ENDBRANCH  15  23
ENDBRANCH   1  19
TORSDOF 6
ENDMDL
