MODEL 1
REMARK VINA RESULT:      -7.7      0.000      0.000
REMARK  Name = 
REMARK  7 active torsions:
REMARK  status: ('A' for Active; 'I' for Inactive)
REMARK    1  A    between atoms: C_1  and  C_2
REMARK    2  A    between atoms: N_4  and  C_5
REMARK    3  A    between atoms: C_5  and  C_6
REMARK    4  A    between atoms: N_13  and  C_14
REMARK    5  A    between atoms: C_14  and  C_15
REMARK    6  A    between atoms: C_17  and  C_18
REMARK    7  A    between atoms: C_30  and  C_31
REMARK                            x       y       z     vdW  Elec       q    Type
REMARK                         _______ _______ _______ _____ _____    ______ ____
ROOT
ATOM      1  C   UNL     1       1.831   8.501  18.782  0.00  0.00    +0.000 A 
ATOM      2  C   UNL     1       1.734   8.093  20.113  0.00  0.00    +0.000 A 
ATOM      3  C   UNL     1       0.829   8.718  20.992  0.00  0.00    +0.000 A 
ATOM      4  C   UNL     1       0.104   9.832  20.569  0.00  0.00    +0.000 A 
ATOM      5  C   UNL     1       0.239  10.298  19.263  0.00  0.00    +0.000 A 
ATOM      6  C   UNL     1       1.015   9.560  18.349  0.00  0.00    +0.000 A 
ATOM      7  C   UNL     1      -0.269  11.642  18.804  0.00  0.00    +0.000 C 
ATOM      8  N   UNL     1       0.173  12.778  19.635  0.00  0.00    +0.000 NA
ATOM      9  C   UNL     1      -0.615  12.817  20.880  0.00  0.00    +0.000 C 
ATOM     10  C   UNL     1      -0.335  11.701  21.902  0.00  0.00    +0.000 C 
ATOM     11  O   UNL     1      -0.764  10.409  21.457  0.00  0.00    +0.000 OA
ENDROOT
BRANCH   1  12
ATOM     12  C   UNL     1       2.830   7.914  17.795  0.00  0.00    +0.000 C 
BRANCH  12  16
ATOM     13  C   UNL     1       3.164   3.996  19.929  0.00  0.00    +0.000 C 
ATOM     14  C   UNL     1       3.209   4.181  18.417  0.00  0.00    +0.000 C 
ATOM     15  C   UNL     1       2.585   5.510  17.959  0.00  0.00    +0.000 C 
ATOM     16  N   UNL     1       3.461   6.665  18.238  0.00  0.00    +0.000 NA
ATOM     17  C   UNL     1       4.724   6.419  17.497  0.00  0.00    +0.000 C 
ATOM     18  C   UNL     1       5.409   5.097  17.914  0.00  0.00    +0.000 C 
ATOM     19  C   UNL     1       6.159   5.236  19.237  0.00  0.00    +0.000 C 
ATOM     20  O   UNL     1       4.528   3.965  17.891  0.00  0.00    +0.000 OA
ENDBRANCH  12  16
ENDBRANCH   1  12
BRANCH   8  21
ATOM     21  C   UNL     1       1.645  12.779  19.882  0.00  0.00    +0.000 C 
BRANCH  21  22
ATOM     22  C   UNL     1       2.387  14.003  19.378  0.00  0.00    +0.000 A 
ATOM     23  N   UNL     1       3.695  14.098  19.301  0.00  0.00    +0.000 NA
ATOM     24  C   UNL     1       4.054  15.343  18.787  0.00  0.00    +0.000 A 
ATOM     25  C   UNL     1       2.991  16.169  18.496  0.00  0.00    +0.000 A 
ATOM     26  S   UNL     1       1.513  15.408  18.898  0.00  0.00    +0.000 S 
BRANCH  24  27
ATOM     27  C   UNL     1       5.454  15.709  18.583  0.00  0.00    +0.000 A 
ATOM     28  C   UNL     1       5.938  16.964  18.974  0.00  0.00    +0.000 A 
ATOM     29  C   UNL     1       7.271  17.319  18.741  0.00  0.00    +0.000 A 
ATOM     30  C   UNL     1       8.130  16.413  18.122  0.00  0.00    +0.000 A 
ATOM     31  C   UNL     1       7.669  15.152  17.753  0.00  0.00    +0.000 A 
ATOM     32  C   UNL     1       6.334  14.798  17.982  0.00  0.00    +0.000 A 
ENDBRANCH  24  27
ENDBRANCH  21  22
ENDBRANCH   8  21
TORSDOF 5
ENDMDL
MODEL 2
REMARK VINA RESULT:      -7.7      0.625      1.057
REMARK  Name = 
REMARK  7 active torsions:
REMARK  status: ('A' for Active; 'I' for Inactive)
REMARK    1  A    between atoms: C_1  and  C_2
REMARK    2  A    between atoms: N_4  and  C_5
REMARK    3  A    between atoms: C_5  and  C_6
REMARK    4  A    between atoms: N_13  and  C_14
REMARK    5  A    between atoms: C_14  and  C_15
REMARK    6  A    between atoms: C_17  and  C_18
REMARK    7  A    between atoms: C_30  and  C_31
REMARK                            x       y       z     vdW  Elec       q    Type
REMARK                         _______ _______ _______ _____ _____    ______ ____
ROOT
ATOM      1  C   UNL     1       2.213   8.184  18.578  0.00  0.00    +0.000 A 
ATOM      2  C   UNL     1       2.162   7.708  19.888  0.00  0.00    +0.000 A 
ATOM      3  C   UNL     1       1.223   8.219  20.803  0.00  0.00    +0.000 A 
ATOM      4  C   UNL     1       0.411   9.293  20.440  0.00  0.00    +0.000 A 
ATOM      5  C   UNL     1       0.495   9.830  19.157  0.00  0.00    +0.000 A 
ATOM      6  C   UNL     1       1.315   9.198  18.203  0.00  0.00    +0.000 A 
ATOM      7  C   UNL     1      -0.119  11.151  18.768  0.00  0.00    +0.000 C 
ATOM      8  N   UNL     1       0.245  12.277  19.650  0.00  0.00    +0.000 NA
ATOM      9  C   UNL     1      -0.529  12.195  20.901  0.00  0.00    +0.000 C 
ATOM     10  C   UNL     1      -0.155  11.057  21.866  0.00  0.00    +0.000 C 
ATOM     11  O   UNL     1      -0.489   9.759  21.361  0.00  0.00    +0.000 OA
ENDROOT
BRANCH   1  12
ATOM     12  C   UNL     1       3.244   7.724  17.556  0.00  0.00    +0.000 C 
BRANCH  12  16
ATOM     13  C   UNL     1       4.138   3.795  19.501  0.00  0.00    +0.000 C 
ATOM     14  C   UNL     1       4.268   4.089  18.011  0.00  0.00    +0.000 C 
ATOM     15  C   UNL     1       3.443   5.310  17.569  0.00  0.00    +0.000 C 
ATOM     16  N   UNL     1       4.061   6.584  17.988  0.00  0.00    +0.000 NA
ATOM     17  C   UNL     1       5.403   6.625  17.353  0.00  0.00    +0.000 C 
ATOM     18  C   UNL     1       6.289   5.424  17.761  0.00  0.00    +0.000 C 
ATOM     19  C   UNL     1       6.892   5.607  19.152  0.00  0.00    +0.000 C 
ATOM     20  O   UNL     1       5.641   4.155  17.597  0.00  0.00    +0.000 OA
ENDBRANCH  12  16
ENDBRANCH   1  12
BRANCH   8  21
ATOM     21  C   UNL     1       1.715  12.378  19.886  0.00  0.00    +0.000 C 
BRANCH  21  22
ATOM     22  C   UNL     1       2.368  13.650  19.376  0.00  0.00    +0.000 A 
ATOM     23  N   UNL     1       3.666  13.832  19.286  0.00  0.00    +0.000 NA
ATOM     24  C   UNL     1       3.935  15.099  18.770  0.00  0.00    +0.000 A 
ATOM     25  C   UNL     1       2.817  15.852  18.492  0.00  0.00    +0.000 A 
ATOM     26  S   UNL     1       1.397  14.994  18.908  0.00  0.00    +0.000 S 
BRANCH  24  27
ATOM     27  C   UNL     1       5.305  15.558  18.552  0.00  0.00    +0.000 A 
ATOM     28  C   UNL     1       6.242  14.754  17.890  0.00  0.00    +0.000 A 
ATOM     29  C   UNL     1       7.561  15.188  17.719  0.00  0.00    +0.000 A 
ATOM     30  C   UNL     1       7.947  16.437  18.202  0.00  0.00    +0.000 A 
ATOM     31  C   UNL     1       7.019  17.258  18.839  0.00  0.00    +0.000 A 
ATOM     32  C   UNL     1       5.701  16.822  19.014  0.00  0.00    +0.000 A 
ENDBRANCH  24  27
ENDBRANCH  21  22
ENDBRANCH   8  21
TORSDOF 5
ENDMDL
MODEL 3
REMARK VINA RESULT:      -7.7      0.763      1.171
REMARK  Name = 
REMARK  7 active torsions:
REMARK  status: ('A' for Active; 'I' for Inactive)
REMARK    1  A    between atoms: C_1  and  C_2
REMARK    2  A    between atoms: N_4  and  C_5
REMARK    3  A    between atoms: C_5  and  C_6
REMARK    4  A    between atoms: N_13  and  C_14
REMARK    5  A    between atoms: C_14  and  C_15
REMARK    6  A    between atoms: C_17  and  C_18
REMARK    7  A    between atoms: C_30  and  C_31
REMARK                            x       y       z     vdW  Elec       q    Type
REMARK                         _______ _______ _______ _____ _____    ______ ____
ROOT
ATOM      1  C   UNL     1       1.843   8.208  19.124  0.00  0.00    +0.000 A 
ATOM      2  C   UNL     1       1.724   7.964  20.493  0.00  0.00    +0.000 A 
ATOM      3  C   UNL     1       0.808   8.691  21.275  0.00  0.00    +0.000 A 
ATOM      4  C   UNL     1       0.094   9.748  20.710  0.00  0.00    +0.000 A 
ATOM      5  C   UNL     1       0.250  10.053  19.360  0.00  0.00    +0.000 A 
ATOM      6  C   UNL     1       1.038   9.209  18.554  0.00  0.00    +0.000 A 
ATOM      7  C   UNL     1      -0.246  11.333  18.735  0.00  0.00    +0.000 C 
ATOM      8  N   UNL     1       0.187  12.560  19.431  0.00  0.00    +0.000 NA
ATOM      9  C   UNL     1      -0.620  12.749  20.649  0.00  0.00    +0.000 C 
ATOM     10  C   UNL     1      -0.360  11.764  21.802  0.00  0.00    +0.000 C 
ATOM     11  O   UNL     1      -0.787  10.428  21.508  0.00  0.00    +0.000 OA
ENDROOT
BRANCH   1  12
ATOM     12  C   UNL     1       2.856   7.505  18.231  0.00  0.00    +0.000 C 
BRANCH  12  16
ATOM     13  C   UNL     1       1.463   3.434  19.454  0.00  0.00    +0.000 C 
ATOM     14  C   UNL     1       1.777   3.864  18.026  0.00  0.00    +0.000 C 
ATOM     15  C   UNL     1       1.742   5.390  17.841  0.00  0.00    +0.000 C 
ATOM     16  N   UNL     1       2.928   6.052  18.420  0.00  0.00    +0.000 NA
ATOM     17  C   UNL     1       4.107   5.485  17.716  0.00  0.00    +0.000 C 
ATOM     18  C   UNL     1       4.205   3.949  17.867  0.00  0.00    +0.000 C 
ATOM     19  C   UNL     1       4.768   3.545  19.228  0.00  0.00    +0.000 C 
ATOM     20  O   UNL     1       2.988   3.263  17.542  0.00  0.00    +0.000 OA
ENDBRANCH  12  16
ENDBRANCH   1  12
BRANCH   8  21
ATOM     21  C   UNL     1       1.655  12.588  19.699  0.00  0.00    +0.000 C 
BRANCH  21  22
ATOM     22  C   UNL     1       2.373  13.847  19.251  0.00  0.00    +0.000 A 
ATOM     23  N   UNL     1       3.679  13.966  19.162  0.00  0.00    +0.000 NA
ATOM     24  C   UNL     1       4.013  15.240  18.710  0.00  0.00    +0.000 A 
ATOM     25  C   UNL     1       2.935  16.065  18.476  0.00  0.00    +0.000 A 
ATOM     26  S   UNL     1       1.473  15.263  18.856  0.00  0.00    +0.000 S 
BRANCH  24  27
ATOM     27  C   UNL     1       5.405  15.638  18.508  0.00  0.00    +0.000 A 
ATOM     28  C   UNL     1       6.314  14.787  17.867  0.00  0.00    +0.000 A 
ATOM     29  C   UNL     1       7.654  15.161  17.711  0.00  0.00    +0.000 A 
ATOM     30  C   UNL     1       8.087  16.397  18.189  0.00  0.00    +0.000 A 
ATOM     31  C   UNL     1       7.187  17.264  18.805  0.00  0.00    +0.000 A 
ATOM     32  C   UNL     1       5.848  16.887  18.965  0.00  0.00    +0.000 A 
ENDBRANCH  24  27
ENDBRANCH  21  22
ENDBRANCH   8  21
TORSDOF 5
ENDMDL
MODEL 4
REMARK VINA RESULT:      -7.4      5.077     10.102
REMARK  Name = 
REMARK  7 active torsions:
REMARK  status: ('A' for Active; 'I' for Inactive)
REMARK    1  A    between atoms: C_1  and  C_2
REMARK    2  A    between atoms: N_4  and  C_5
REMARK    3  A    between atoms: C_5  and  C_6
REMARK    4  A    between atoms: N_13  and  C_14
REMARK    5  A    between atoms: C_14  and  C_15
REMARK    6  A    between atoms: C_17  and  C_18
REMARK    7  A    between atoms: C_30  and  C_31
REMARK                            x       y       z     vdW  Elec       q    Type
REMARK                         _______ _______ _______ _____ _____    ______ ____
ROOT
ATOM      1  C   UNL     1      -1.779  11.670  22.667  0.00  0.00    +0.000 A 
ATOM      2  C   UNL     1      -1.205  10.548  23.264  0.00  0.00    +0.000 A 
ATOM      3  C   UNL     1      -0.069   9.937  22.700  0.00  0.00    +0.000 A 
ATOM      4  C   UNL     1       0.421  10.378  21.471  0.00  0.00    +0.000 A 
ATOM      5  C   UNL     1      -0.182  11.454  20.824  0.00  0.00    +0.000 A 
ATOM      6  C   UNL     1      -1.206  12.162  21.482  0.00  0.00    +0.000 A 
ATOM      7  C   UNL     1       0.086  11.814  19.384  0.00  0.00    +0.000 C 
ATOM      8  N   UNL     1      -0.071  10.693  18.437  0.00  0.00    +0.000 NA
ATOM      9  C   UNL     1       1.104   9.808  18.517  0.00  0.00    +0.000 C 
ATOM     10  C   UNL     1       1.241   8.967  19.798  0.00  0.00    +0.000 C 
ATOM     11  O   UNL     1       1.528   9.754  20.960  0.00  0.00    +0.000 OA
ENDROOT
BRANCH   1  12
ATOM     12  C   UNL     1      -3.043  12.343  23.186  0.00  0.00    +0.000 C 
BRANCH  12  16
ATOM     13  C   UNL     1      -4.475  15.800  20.733  0.00  0.00    +0.000 C 
ATOM     14  C   UNL     1      -4.816  15.560  22.199  0.00  0.00    +0.000 C 
ATOM     15  C   UNL     1      -4.619  14.096  22.626  0.00  0.00    +0.000 C 
ATOM     16  N   UNL     1      -3.193  13.747  22.786  0.00  0.00    +0.000 NA
ATOM     17  C   UNL     1      -2.657  14.655  23.832  0.00  0.00    +0.000 C 
ATOM     18  C   UNL     1      -2.819  16.147  23.462  0.00  0.00    +0.000 C 
ATOM     19  C   UNL     1      -1.762  16.605  22.460  0.00  0.00    +0.000 C 
ATOM     20  O   UNL     1      -4.153  16.495  23.062  0.00  0.00    +0.000 OA
ENDBRANCH  12  16
ENDBRANCH   1  12
BRANCH   8  21
ATOM     21  C   UNL     1      -1.360   9.962  18.611  0.00  0.00    +0.000 C 
BRANCH  21  22
ATOM     22  C   UNL     1      -2.561  10.589  17.929  0.00  0.00    +0.000 A 
ATOM     23  N   UNL     1      -3.542  11.193  18.561  0.00  0.00    +0.000 NA
ATOM     24  C   UNL     1      -4.479  11.668  17.645  0.00  0.00    +0.000 A 
ATOM     25  C   UNL     1      -4.181  11.396  16.329  0.00  0.00    +0.000 A 
ATOM     26  S   UNL     1      -2.727  10.502  16.216  0.00  0.00    +0.000 S 
BRANCH  24  27
ATOM     27  C   UNL     1      -5.670  12.395  18.080  0.00  0.00    +0.000 A 
ATOM     28  C   UNL     1      -6.555  12.956  17.150  0.00  0.00    +0.000 A 
ATOM     29  C   UNL     1      -7.673  13.682  17.577  0.00  0.00    +0.000 A 
ATOM     30  C   UNL     1      -7.915  13.841  18.940  0.00  0.00    +0.000 A 
ATOM     31  C   UNL     1      -7.058  13.266  19.875  0.00  0.00    +0.000 A 
ATOM     32  C   UNL     1      -5.937  12.544  19.448  0.00  0.00    +0.000 A 
ENDBRANCH  24  27
ENDBRANCH  21  22
ENDBRANCH   8  21
TORSDOF 5
ENDMDL
MODEL 5
REMARK VINA RESULT:      -7.3      5.326     10.627
REMARK  Name = 
REMARK  7 active torsions:
REMARK  status: ('A' for Active; 'I' for Inactive)
REMARK    1  A    between atoms: C_1  and  C_2
REMARK    2  A    between atoms: N_4  and  C_5
REMARK    3  A    between atoms: C_5  and  C_6
REMARK    4  A    between atoms: N_13  and  C_14
REMARK    5  A    between atoms: C_14  and  C_15
REMARK    6  A    between atoms: C_17  and  C_18
REMARK    7  A    between atoms: C_30  and  C_31
REMARK                            x       y       z     vdW  Elec       q    Type
REMARK                         _______ _______ _______ _____ _____    ______ ____
ROOT
ATOM      1  C   UNL     1      -2.787  12.541  22.211  0.00  0.00    +0.000 A 
ATOM      2  C   UNL     1      -2.256  11.650  23.144  0.00  0.00    +0.000 A 
ATOM      3  C   UNL     1      -0.972  11.102  22.965  0.00  0.00    +0.000 A 
ATOM      4  C   UNL     1      -0.266  11.354  21.789  0.00  0.00    +0.000 A 
ATOM      5  C   UNL     1      -0.808  12.186  20.813  0.00  0.00    +0.000 A 
ATOM      6  C   UNL     1      -2.014  12.862  21.082  0.00  0.00    +0.000 A 
ATOM      7  C   UNL     1      -0.264  12.286  19.410  0.00  0.00    +0.000 C 
ATOM      8  N   UNL     1      -0.103  10.989  18.724  0.00  0.00    +0.000 NA
ATOM      9  C   UNL     1       1.103  10.309  19.229  0.00  0.00    +0.000 C 
ATOM     10  C   UNL     1       1.032   9.766  20.667  0.00  0.00    +0.000 C 
ATOM     11  O   UNL     1       0.980  10.800  21.656  0.00  0.00    +0.000 OA
ENDROOT
BRANCH   1  12
ATOM     12  C   UNL     1      -4.191  13.121  22.308  0.00  0.00    +0.000 C 
BRANCH  12  16
ATOM     13  C   UNL     1      -3.471  17.511  21.831  0.00  0.00    +0.000 C 
ATOM     14  C   UNL     1      -4.841  16.843  21.873  0.00  0.00    +0.000 C 
ATOM     15  C   UNL     1      -4.784  15.342  21.544  0.00  0.00    +0.000 C 
ATOM     16  N   UNL     1      -4.237  14.545  22.661  0.00  0.00    +0.000 NA
ATOM     17  C   UNL     1      -5.140  14.775  23.818  0.00  0.00    +0.000 C 
ATOM     18  C   UNL     1      -5.239  16.268  24.205  0.00  0.00    +0.000 C 
ATOM     19  C   UNL     1      -4.024  16.732  25.005  0.00  0.00    +0.000 C 
ATOM     20  O   UNL     1      -5.537  17.128  23.096  0.00  0.00    +0.000 OA
ENDBRANCH  12  16
ENDBRANCH   1  12
BRANCH   8  21
ATOM     21  C   UNL     1      -1.324  10.136  18.802  0.00  0.00    +0.000 C 
BRANCH  21  22
ATOM     22  C   UNL     1      -2.521  10.641  18.017  0.00  0.00    +0.000 A 
ATOM     23  N   UNL     1      -3.515  11.323  18.537  0.00  0.00    +0.000 NA
ATOM     24  C   UNL     1      -4.443  11.644  17.548  0.00  0.00    +0.000 A 
ATOM     25  C   UNL     1      -4.124  11.179  16.292  0.00  0.00    +0.000 A 
ATOM     26  S   UNL     1      -2.661  10.293  16.335  0.00  0.00    +0.000 S 
BRANCH  24  27
ATOM     27  C   UNL     1      -5.646  12.416  17.853  0.00  0.00    +0.000 A 
ATOM     28  C   UNL     1      -6.355  13.080  16.843  0.00  0.00    +0.000 A 
ATOM     29  C   UNL     1      -7.484  13.847  17.150  0.00  0.00    +0.000 A 
ATOM     30  C   UNL     1      -7.916  13.945  18.471  0.00  0.00    +0.000 A 
ATOM     31  C   UNL     1      -7.236  13.268  19.482  0.00  0.00    +0.000 A 
ATOM     32  C   UNL     1      -6.104  12.505  19.176  0.00  0.00    +0.000 A 
ENDBRANCH  24  27
ENDBRANCH  21  22
ENDBRANCH   8  21
TORSDOF 5
ENDMDL
MODEL 6
REMARK VINA RESULT:      -7.3      2.266      3.513
REMARK  Name = 
REMARK  7 active torsions:
REMARK  status: ('A' for Active; 'I' for Inactive)
REMARK    1  A    between atoms: C_1  and  C_2
REMARK    2  A    between atoms: N_4  and  C_5
REMARK    3  A    between atoms: C_5  and  C_6
REMARK    4  A    between atoms: N_13  and  C_14
REMARK    5  A    between atoms: C_14  and  C_15
REMARK    6  A    between atoms: C_17  and  C_18
REMARK    7  A    between atoms: C_30  and  C_31
REMARK                            x       y       z     vdW  Elec       q    Type
REMARK                         _______ _______ _______ _____ _____    ______ ____
ROOT
ATOM      1  C   UNL     1       1.852   8.486  18.994  0.00  0.00    +0.000 A 
ATOM      2  C   UNL     1       1.986   7.817  20.211  0.00  0.00    +0.000 A 
ATOM      3  C   UNL     1       1.093   8.066  21.270  0.00  0.00    +0.000 A 
ATOM      4  C   UNL     1       0.137   9.075  21.152  0.00  0.00    +0.000 A 
ATOM      5  C   UNL     1       0.032   9.803  19.969  0.00  0.00    +0.000 A 
ATOM      6  C   UNL     1       0.815   9.425  18.861  0.00  0.00    +0.000 A 
ATOM      7  C   UNL     1      -0.758  11.082  19.848  0.00  0.00    +0.000 C 
ATOM      8  N   UNL     1      -0.431  12.099  20.866  0.00  0.00    +0.000 NA
ATOM      9  C   UNL     1      -1.062  11.738  22.147  0.00  0.00    +0.000 C 
ATOM     10  C   UNL     1      -0.470  10.523  22.884  0.00  0.00    +0.000 C 
ATOM     11  O   UNL     1      -0.711   9.283  22.207  0.00  0.00    +0.000 OA
ENDROOT
BRANCH   1  12
ATOM     12  C   UNL     1       2.818   8.313  17.830  0.00  0.00    +0.000 C 
BRANCH  12  16
ATOM     13  C   UNL     1       5.053   4.963  15.882  0.00  0.00    +0.000 C 
ATOM     14  C   UNL     1       5.182   5.374  17.344  0.00  0.00    +0.000 C 
ATOM     15  C   UNL     1       4.706   6.813  17.604  0.00  0.00    +0.000 C 
ATOM     16  N   UNL     1       3.234   6.927  17.586  0.00  0.00    +0.000 NA
ATOM     17  C   UNL     1       2.733   6.028  18.657  0.00  0.00    +0.000 C 
ATOM     18  C   UNL     1       3.173   4.560  18.453  0.00  0.00    +0.000 C 
ATOM     19  C   UNL     1       2.324   3.851  17.400  0.00  0.00    +0.000 C 
ATOM     20  O   UNL     1       4.582   4.411  18.224  0.00  0.00    +0.000 OA
ENDBRANCH  12  16
ENDBRANCH   1  12
BRANCH   8  21
ATOM     21  C   UNL     1       1.035  12.345  20.992  0.00  0.00    +0.000 C 
BRANCH  21  22
ATOM     22  C   UNL     1       1.529  13.651  20.398  0.00  0.00    +0.000 A 
ATOM     23  N   UNL     1       0.812  14.429  19.617  0.00  0.00    +0.000 NA
ATOM     24  C   UNL     1       1.552  15.553  19.255  0.00  0.00    +0.000 A 
ATOM     25  C   UNL     1       2.828  15.588  19.771  0.00  0.00    +0.000 A 
ATOM     26  S   UNL     1       3.139  14.185  20.697  0.00  0.00    +0.000 S 
BRANCH  24  27
ATOM     27  C   UNL     1       0.987  16.593  18.398  0.00  0.00    +0.000 A 
ATOM     28  C   UNL     1       1.799  17.336  17.531  0.00  0.00    +0.000 A 
ATOM     29  C   UNL     1       1.255  18.355  16.742  0.00  0.00    +0.000 A 
ATOM     30  C   UNL     1      -0.110  18.629  16.810  0.00  0.00    +0.000 A 
ATOM     31  C   UNL     1      -0.933  17.881  17.648  0.00  0.00    +0.000 A 
ATOM     32  C   UNL     1      -0.388  16.864  18.441  0.00  0.00    +0.000 A 
ENDBRANCH  24  27
ENDBRANCH  21  22
ENDBRANCH   8  21
TORSDOF 5
ENDMDL
MODEL 7
REMARK VINA RESULT:      -7.3      1.040      1.369
REMARK  Name = 
REMARK  7 active torsions:
REMARK  status: ('A' for Active; 'I' for Inactive)
REMARK    1  A    between atoms: C_1  and  C_2
REMARK    2  A    between atoms: N_4  and  C_5
REMARK    3  A    between atoms: C_5  and  C_6
REMARK    4  A    between atoms: N_13  and  C_14
REMARK    5  A    between atoms: C_14  and  C_15
REMARK    6  A    between atoms: C_17  and  C_18
REMARK    7  A    between atoms: C_30  and  C_31
REMARK                            x       y       z     vdW  Elec       q    Type
REMARK                         _______ _______ _______ _____ _____    ______ ____
ROOT
ATOM      1  C   UNL     1       1.605   8.126  19.667  0.00  0.00    +0.000 A 
ATOM      2  C   UNL     1       1.465   8.090  21.055  0.00  0.00    +0.000 A 
ATOM      3  C   UNL     1       0.572   8.959  21.710  0.00  0.00    +0.000 A 
ATOM      4  C   UNL     1      -0.094   9.948  20.986  0.00  0.00    +0.000 A 
ATOM      5  C   UNL     1       0.086  10.046  19.608  0.00  0.00    +0.000 A 
ATOM      6  C   UNL     1       0.845   9.063  18.945  0.00  0.00    +0.000 A 
ATOM      7  C   UNL     1      -0.353  11.238  18.796  0.00  0.00    +0.000 C 
ATOM      8  N   UNL     1       0.123  12.536  19.311  0.00  0.00    +0.000 NA
ATOM      9  C   UNL     1      -0.686  12.933  20.478  0.00  0.00    +0.000 C 
ATOM     10  C   UNL     1      -0.475  12.118  21.766  0.00  0.00    +0.000 C 
ATOM     11  O   UNL     1      -0.953  10.772  21.664  0.00  0.00    +0.000 OA
ENDROOT
BRANCH   1  12
ATOM     12  C   UNL     1       2.596   7.262  18.900  0.00  0.00    +0.000 C 
BRANCH  12  16
ATOM     13  C   UNL     1       0.708   3.221  18.547  0.00  0.00    +0.000 C 
ATOM     14  C   UNL     1       2.088   3.597  18.020  0.00  0.00    +0.000 C 
ATOM     15  C   UNL     1       2.263   5.113  17.832  0.00  0.00    +0.000 C 
ATOM     16  N   UNL     1       2.440   5.819  19.117  0.00  0.00    +0.000 NA
ATOM     17  C   UNL     1       3.656   5.243  19.745  0.00  0.00    +0.000 C 
ATOM     18  C   UNL     1       3.544   3.717  19.968  0.00  0.00    +0.000 C 
ATOM     19  C   UNL     1       2.697   3.380  21.193  0.00  0.00    +0.000 C 
ATOM     20  O   UNL     1       3.137   2.997  18.795  0.00  0.00    +0.000 OA
ENDBRANCH  12  16
ENDBRANCH   1  12
BRANCH   8  21
ATOM     21  C   UNL     1       1.589  12.547  19.593  0.00  0.00    +0.000 C 
BRANCH  21  22
ATOM     22  C   UNL     1       2.316  13.819  19.201  0.00  0.00    +0.000 A 
ATOM     23  N   UNL     1       3.623  13.937  19.137  0.00  0.00    +0.000 NA
ATOM     24  C   UNL     1       3.967  15.226  18.735  0.00  0.00    +0.000 A 
ATOM     25  C   UNL     1       2.895  16.061  18.514  0.00  0.00    +0.000 A 
ATOM     26  S   UNL     1       1.426  15.250  18.843  0.00  0.00    +0.000 S 
BRANCH  24  27
ATOM     27  C   UNL     1       5.363  15.626  18.568  0.00  0.00    +0.000 A 
ATOM     28  C   UNL     1       5.815  16.876  19.009  0.00  0.00    +0.000 A 
ATOM     29  C   UNL     1       7.145  17.265  18.811  0.00  0.00    +0.000 A 
ATOM     30  C   UNL     1       8.032  16.397  18.178  0.00  0.00    +0.000 A 
ATOM     31  C   UNL     1       7.603  15.140  17.758  0.00  0.00    +0.000 A 
ATOM     32  C   UNL     1       6.271  14.753  17.952  0.00  0.00    +0.000 A 
ENDBRANCH  24  27
ENDBRANCH  21  22
ENDBRANCH   8  21
TORSDOF 5
ENDMDL
MODEL 8
REMARK VINA RESULT:      -7.2      5.074      7.662
REMARK  Name = 
REMARK  7 active torsions:
REMARK  status: ('A' for Active; 'I' for Inactive)
REMARK    1  A    between atoms: C_1  and  C_2
REMARK    2  A    between atoms: N_4  and  C_5
REMARK    3  A    between atoms: C_5  and  C_6
REMARK    4  A    between atoms: N_13  and  C_14
REMARK    5  A    between atoms: C_14  and  C_15
REMARK    6  A    between atoms: C_17  and  C_18
REMARK    7  A    between atoms: C_30  and  C_31
REMARK                            x       y       z     vdW  Elec       q    Type
REMARK                         _______ _______ _______ _____ _____    ______ ____
ROOT
ATOM      1  C   UNL     1       4.967   4.951  16.879  0.00  0.00    +0.000 A 
ATOM      2  C   UNL     1       5.805   4.166  17.672  0.00  0.00    +0.000 A 
ATOM      3  C   UNL     1       5.270   3.286  18.631  0.00  0.00    +0.000 A 
ATOM      4  C   UNL     1       3.898   3.279  18.880  0.00  0.00    +0.000 A 
ATOM      5  C   UNL     1       3.050   4.107  18.147  0.00  0.00    +0.000 A 
ATOM      6  C   UNL     1       3.579   4.852  17.076  0.00  0.00    +0.000 A 
ATOM      7  C   UNL     1       1.618   4.380  18.533  0.00  0.00    +0.000 C 
ATOM      8  N   UNL     1       1.436   4.828  19.927  0.00  0.00    +0.000 NA
ATOM      9  C   UNL     1       1.544   3.673  20.836  0.00  0.00    +0.000 C 
ATOM     10  C   UNL     1       2.947   3.062  21.005  0.00  0.00    +0.000 C 
ATOM     11  O   UNL     1       3.420   2.407  19.822  0.00  0.00    +0.000 OA
ENDROOT
BRANCH   1  12
ATOM     12  C   UNL     1       5.478   5.969  15.869  0.00  0.00    +0.000 C 
BRANCH  12  16
ATOM     13  C   UNL     1       7.545   5.719  11.909  0.00  0.00    +0.000 C 
ATOM     14  C   UNL     1       7.708   4.723  13.052  0.00  0.00    +0.000 C 
ATOM     15  C   UNL     1       7.297   5.305  14.414  0.00  0.00    +0.000 C 
ATOM     16  N   UNL     1       5.832   5.404  14.562  0.00  0.00    +0.000 NA
ATOM     17  C   UNL     1       5.305   4.022  14.423  0.00  0.00    +0.000 C 
ATOM     18  C   UNL     1       5.679   3.378  13.068  0.00  0.00    +0.000 C 
ATOM     19  C   UNL     1       4.789   3.878  11.933  0.00  0.00    +0.000 C 
ATOM     20  O   UNL     1       7.077   3.467  12.760  0.00  0.00    +0.000 OA
ENDBRANCH  12  16
ENDBRANCH   1  12
BRANCH   8  21
ATOM     21  C   UNL     1       2.351   5.946  20.302  0.00  0.00    +0.000 C 
BRANCH  21  22
ATOM     22  C   UNL     1       1.802   7.341  20.063  0.00  0.00    +0.000 A 
ATOM     23  N   UNL     1       1.033   7.990  20.908  0.00  0.00    +0.000 NA
ATOM     24  C   UNL     1       0.715   9.246  20.395  0.00  0.00    +0.000 A 
ATOM     25  C   UNL     1       1.252   9.510  19.155  0.00  0.00    +0.000 A 
ATOM     26  S   UNL     1       2.143   8.165  18.589  0.00  0.00    +0.000 S 
BRANCH  24  27
ATOM     27  C   UNL     1      -0.121  10.185  21.140  0.00  0.00    +0.000 A 
ATOM     28  C   UNL     1      -0.386   9.995  22.503  0.00  0.00    +0.000 A 
ATOM     29  C   UNL     1      -1.218  10.879  23.198  0.00  0.00    +0.000 A 
ATOM     30  C   UNL     1      -1.782  11.965  22.533  0.00  0.00    +0.000 A 
ATOM     31  C   UNL     1      -1.506  12.182  21.185  0.00  0.00    +0.000 A 
ATOM     32  C   UNL     1      -0.678  11.295  20.488  0.00  0.00    +0.000 A 
ENDBRANCH  24  27
ENDBRANCH  21  22
ENDBRANCH   8  21
TORSDOF 5
ENDMDL
MODEL 9
REMARK VINA RESULT:      -7.2      0.839      1.665
REMARK  Name = 
REMARK  7 active torsions:
REMARK  status: ('A' for Active; 'I' for Inactive)
REMARK    1  A    between atoms: C_1  and  C_2
REMARK    2  A    between atoms: N_4  and  C_5
REMARK    3  A    between atoms: C_5  and  C_6
REMARK    4  A    between atoms: N_13  and  C_14
REMARK    5  A    between atoms: C_14  and  C_15
REMARK    6  A    between atoms: C_17  and  C_18
REMARK    7  A    between atoms: C_30  and  C_31
REMARK                            x       y       z     vdW  Elec       q    Type
REMARK                         _______ _______ _______ _____ _____    ______ ____
ROOT
ATOM      1  C   UNL     1       1.622   8.464  19.164  0.00  0.00    +0.000 A 
ATOM      2  C   UNL     1       1.466   8.260  20.535  0.00  0.00    +0.000 A 
ATOM      3  C   UNL     1       0.581   9.057  21.284  0.00  0.00    +0.000 A 
ATOM      4  C   UNL     1      -0.062  10.139  20.681  0.00  0.00    +0.000 A 
ATOM      5  C   UNL     1       0.134  10.402  19.327  0.00  0.00    +0.000 A 
ATOM      6  C   UNL     1       0.885   9.495  18.556  0.00  0.00    +0.000 A 
ATOM      7  C   UNL     1      -0.277  11.692  18.664  0.00  0.00    +0.000 C 
ATOM      8  N   UNL     1       0.214  12.909  19.339  0.00  0.00    +0.000 NA
ATOM      9  C   UNL     1      -0.601  13.173  20.538  0.00  0.00    +0.000 C 
ATOM     10  C   UNL     1      -0.417  12.203  21.718  0.00  0.00    +0.000 C 
ATOM     11  O   UNL     1      -0.915  10.888  21.447  0.00  0.00    +0.000 OA
ENDROOT
BRANCH   1  12
ATOM     12  C   UNL     1       2.607   7.683  18.305  0.00  0.00    +0.000 C 
BRANCH  12  16
ATOM     13  C   UNL     1       2.517   3.365  17.139  0.00  0.00    +0.000 C 
ATOM     14  C   UNL     1       3.636   4.042  17.922  0.00  0.00    +0.000 C 
ATOM     15  C   UNL     1       3.649   5.569  17.745  0.00  0.00    +0.000 C 
ATOM     16  N   UNL     1       2.568   6.230  18.503  0.00  0.00    +0.000 NA
ATOM     17  C   UNL     1       2.789   5.885  19.931  0.00  0.00    +0.000 C 
ATOM     18  C   UNL     1       2.782   4.358  20.180  0.00  0.00    +0.000 C 
ATOM     19  C   UNL     1       1.365   3.793  20.217  0.00  0.00    +0.000 C 
ATOM     20  O   UNL     1       3.649   3.631  19.298  0.00  0.00    +0.000 OA
ENDBRANCH  12  16
ENDBRANCH   1  12
BRANCH   8  21
ATOM     21  C   UNL     1       1.677  12.860  19.633  0.00  0.00    +0.000 C 
BRANCH  21  22
ATOM     22  C   UNL     1       2.466  14.083  19.204  0.00  0.00    +0.000 A 
ATOM     23  N   UNL     1       3.777  14.126  19.115  0.00  0.00    +0.000 NA
ATOM     24  C   UNL     1       4.184  15.386  18.684  0.00  0.00    +0.000 A 
ATOM     25  C   UNL     1       3.156  16.277  18.466  0.00  0.00    +0.000 A 
ATOM     26  S   UNL     1       1.650  15.555  18.836  0.00  0.00    +0.000 S 
BRANCH  24  27
ATOM     27  C   UNL     1       5.597  15.705  18.485  0.00  0.00    +0.000 A 
ATOM     28  C   UNL     1       6.473  14.779  17.906  0.00  0.00    +0.000 A 
ATOM     29  C   UNL     1       7.831  15.079  17.754  0.00  0.00    +0.000 A 
ATOM     30  C   UNL     1       8.317  16.316  18.174  0.00  0.00    +0.000 A 
ATOM     31  C   UNL     1       7.452  17.257  18.727  0.00  0.00    +0.000 A 
ATOM     32  C   UNL     1       6.094  16.955  18.883  0.00  0.00    +0.000 A 
ENDBRANCH  24  27
ENDBRANCH  21  22
ENDBRANCH   8  21
TORSDOF 5
ENDMDL
