MODEL 1
REMARK VINA RESULT:      -8.3      0.000      0.000
REMARK  Name = 
REMARK  10 active torsions:
REMARK  status: ('A' for Active; 'I' for Inactive)
REMARK    1  A    between atoms: C_1  and  O_2
REMARK    2  A    between atoms: O_2  and  C_3
REMARK    3  A    between atoms: C_6  and  C_7
REMARK    4  A    between atoms: N_12  and  C_13
REMARK    5  A    between atoms: C_13  and  C_14
REMARK    6  A    between atoms: C_14  and  N_15
REMARK    7  A    between atoms: C_16  and  C_18
REMARK    8  A    between atoms: N_20  and  C_21
REMARK    9  A    between atoms: C_31  and  O_32
REMARK   10  A    between atoms: O_32  and  C_33
REMARK                            x       y       z     vdW  Elec       q    Type
REMARK                         _______ _______ _______ _____ _____    ______ ____
ROOT
ATOM      1  C   UNL     1       2.006   6.213  20.156  0.00  0.00    +0.000 C 
ATOM      2  O   UNL     1       1.225   5.480  20.763  0.00  0.00    +0.000 OA
ATOM      3  N   UNL     1       3.160   5.729  19.541  0.00  0.00    +0.000 N 
ATOM      4  C   UNL     1       3.297   4.286  19.351  0.00  0.00    +0.000 C 
ATOM      5  C   UNL     1       3.553   3.976  17.861  0.00  0.00    +0.000 C 
ATOM      6  N   UNL     1       4.697   4.706  17.251  0.00  0.00    +0.000 NA
ATOM      7  C   UNL     1       4.538   6.157  17.527  0.00  0.00    +0.000 C 
ATOM      8  C   UNL     1       4.305   6.492  19.020  0.00  0.00    +0.000 C 
ENDROOT
BRANCH   1  12
ATOM      9  C   UNL     1       0.842  10.342  19.923  0.00  0.00    +0.000 A 
ATOM     10  C   UNL     1       1.277   9.649  18.779  0.00  0.00    +0.000 A 
ATOM     11  C   UNL     1       1.650   8.303  18.850  0.00  0.00    +0.000 A 
ATOM     12  C   UNL     1       1.662   7.655  20.083  0.00  0.00    +0.000 A 
ATOM     13  C   UNL     1       1.421   8.402  21.233  0.00  0.00    +0.000 A 
ATOM     14  C   UNL     1       0.947   9.714  21.171  0.00  0.00    +0.000 A 
BRANCH   9  16
ATOM     15  C   UNL     1       1.315  12.650  19.642  0.00  0.00    +0.000 C 
ATOM     16  O   UNL     1       0.353  11.618  19.855  0.00  0.00    +0.000 OA
ENDBRANCH   9  16
BRANCH  14  17
ATOM     17  O   UNL     1       0.614  10.164  22.419  0.00  0.00    +0.000 OA
ATOM     18  C   UNL     1      -0.510   9.625  23.086  0.00  0.00    +0.000 C 
ENDBRANCH  14  17
ENDBRANCH   1  12
BRANCH   6  19
ATOM     19  C   UNL     1       6.006   4.229  17.735  0.00  0.00    +0.000 C 
BRANCH  19  20
ATOM     20  C   UNL     1       7.187   4.695  16.869  0.00  0.00    +0.000 C 
BRANCH  20  21
ATOM     21  N   UNL     1       7.446   6.103  17.021  0.00  0.00    +0.000 N 
ATOM     22  C   UNL     1       7.870   6.674  18.201  0.00  0.00    +0.000 C 
ATOM     23  O   UNL     1       8.103   6.098  19.252  0.00  0.00    +0.000 OA
ATOM     24  H   UNL     1       7.259   6.742  16.250  0.00  0.00    +0.000 HD
BRANCH  22  25
ATOM     25  C   UNL     1       8.045   8.195  18.084  0.00  0.00    +0.000 C 
ATOM     26  O   UNL     1       7.483   8.753  17.149  0.00  0.00    +0.000 OA
ATOM     27  N   UNL     1       8.873   8.732  19.045  0.00  0.00    +0.000 N 
ATOM     28  H   UNL     1       9.317   8.059  19.666  0.00  0.00    +0.000 HD
BRANCH  27  29
ATOM     29  C   UNL     1       9.214  10.091  19.161  0.00  0.00    +0.000 A 
ATOM     30  C   UNL     1       9.426  10.912  18.046  0.00  0.00    +0.000 A 
ATOM     31  C   UNL     1       9.796  12.247  18.203  0.00  0.00    +0.000 A 
ATOM     32  C   UNL     1       9.954  12.762  19.479  0.00  0.00    +0.000 A 
ATOM     33  F   UNL     1      10.327  14.039  19.631  0.00  0.00    +0.000 F 
ATOM     34  C   UNL     1       9.731  11.971  20.602  0.00  0.00    +0.000 A 
ATOM     35  C   UNL     1       9.348  10.635  20.445  0.00  0.00    +0.000 A 
ENDBRANCH  27  29
ENDBRANCH  22  25
ENDBRANCH  20  21
ENDBRANCH  19  20
ENDBRANCH   6  19
TORSDOF 8
ENDMDL
MODEL 2
REMARK VINA RESULT:      -8.3      4.311      9.277
REMARK  Name = 
REMARK  10 active torsions:
REMARK  status: ('A' for Active; 'I' for Inactive)
REMARK    1  A    between atoms: C_1  and  O_2
REMARK    2  A    between atoms: O_2  and  C_3
REMARK    3  A    between atoms: C_6  and  C_7
REMARK    4  A    between atoms: N_12  and  C_13
REMARK    5  A    between atoms: C_13  and  C_14
REMARK    6  A    between atoms: C_14  and  N_15
REMARK    7  A    between atoms: C_16  and  C_18
REMARK    8  A    between atoms: N_20  and  C_21
REMARK    9  A    between atoms: C_31  and  O_32
REMARK   10  A    between atoms: O_32  and  C_33
REMARK                            x       y       z     vdW  Elec       q    Type
REMARK                         _______ _______ _______ _____ _____    ______ ____
ROOT
ATOM      1  C   UNL     1       3.197   3.671  17.043  0.00  0.00    +0.000 C 
ATOM      2  O   UNL     1       2.652   2.610  16.740  0.00  0.00    +0.000 OA
ATOM      3  N   UNL     1       2.663   4.543  17.990  0.00  0.00    +0.000 N 
ATOM      4  C   UNL     1       1.595   4.058  18.862  0.00  0.00    +0.000 C 
ATOM      5  C   UNL     1       1.993   4.259  20.340  0.00  0.00    +0.000 C 
ATOM      6  N   UNL     1       2.391   5.645  20.704  0.00  0.00    +0.000 NA
ATOM      7  C   UNL     1       3.432   6.108  19.750  0.00  0.00    +0.000 C 
ATOM      8  C   UNL     1       3.043   5.939  18.262  0.00  0.00    +0.000 C 
ENDROOT
BRANCH   1  12
ATOM      9  C   UNL     1       6.860   4.757  15.077  0.00  0.00    +0.000 A 
ATOM     10  C   UNL     1       5.749   4.313  14.338  0.00  0.00    +0.000 A 
ATOM     11  C   UNL     1       4.553   3.966  14.975  0.00  0.00    +0.000 A 
ATOM     12  C   UNL     1       4.480   3.988  16.365  0.00  0.00    +0.000 A 
ATOM     13  C   UNL     1       5.642   4.237  17.091  0.00  0.00    +0.000 A 
ATOM     14  C   UNL     1       6.811   4.687  16.475  0.00  0.00    +0.000 A 
BRANCH   9  16
ATOM     15  C   UNL     1       7.935   5.370  13.052  0.00  0.00    +0.000 C 
ATOM     16  O   UNL     1       7.995   5.222  14.470  0.00  0.00    +0.000 OA
ENDBRANCH   9  16
BRANCH  14  17
ATOM     17  O   UNL     1       7.745   5.035  17.412  0.00  0.00    +0.000 OA
ATOM     18  C   UNL     1       7.544   6.181  18.214  0.00  0.00    +0.000 C 
ENDBRANCH  14  17
ENDBRANCH   1  12
BRANCH   6  19
ATOM     19  C   UNL     1       1.254   6.583  20.721  0.00  0.00    +0.000 C 
BRANCH  19  20
ATOM     20  C   UNL     1       1.666   8.051  20.527  0.00  0.00    +0.000 C 
BRANCH  20  21
ATOM     21  N   UNL     1       1.037   8.921  21.487  0.00  0.00    +0.000 N 
ATOM     22  C   UNL     1      -0.085   9.671  21.210  0.00  0.00    +0.000 C 
ATOM     23  O   UNL     1      -0.707   9.700  20.160  0.00  0.00    +0.000 OA
ATOM     24  H   UNL     1       1.455   9.052  22.407  0.00  0.00    +0.000 HD
BRANCH  22  25
ATOM     25  C   UNL     1      -0.527  10.524  22.408  0.00  0.00    +0.000 C 
ATOM     26  O   UNL     1      -0.153  10.166  23.518  0.00  0.00    +0.000 OA
ATOM     27  N   UNL     1      -1.348  11.577  22.065  0.00  0.00    +0.000 N 
ATOM     28  H   UNL     1      -1.613  11.622  21.084  0.00  0.00    +0.000 HD
BRANCH  27  29
ATOM     29  C   UNL     1      -1.905  12.503  22.964  0.00  0.00    +0.000 A 
ATOM     30  C   UNL     1      -3.174  12.332  23.530  0.00  0.00    +0.000 A 
ATOM     31  C   UNL     1      -3.706  13.291  24.391  0.00  0.00    +0.000 A 
ATOM     32  C   UNL     1      -2.964  14.423  24.687  0.00  0.00    +0.000 A 
ATOM     33  F   UNL     1      -3.482  15.354  25.500  0.00  0.00    +0.000 F 
ATOM     34  C   UNL     1      -1.694  14.605  24.151  0.00  0.00    +0.000 A 
ATOM     35  C   UNL     1      -1.155  13.638  23.297  0.00  0.00    +0.000 A 
ENDBRANCH  27  29
ENDBRANCH  22  25
ENDBRANCH  20  21
ENDBRANCH  19  20
ENDBRANCH   6  19
TORSDOF 8
ENDMDL
MODEL 3
REMARK VINA RESULT:      -8.1      0.616      1.084
REMARK  Name = 
REMARK  10 active torsions:
REMARK  status: ('A' for Active; 'I' for Inactive)
REMARK    1  A    between atoms: C_1  and  O_2
REMARK    2  A    between atoms: O_2  and  C_3
REMARK    3  A    between atoms: C_6  and  C_7
REMARK    4  A    between atoms: N_12  and  C_13
REMARK    5  A    between atoms: C_13  and  C_14
REMARK    6  A    between atoms: C_14  and  N_15
REMARK    7  A    between atoms: C_16  and  C_18
REMARK    8  A    between atoms: N_20  and  C_21
REMARK    9  A    between atoms: C_31  and  O_32
REMARK   10  A    between atoms: O_32  and  C_33
REMARK                            x       y       z     vdW  Elec       q    Type
REMARK                         _______ _______ _______ _____ _____    ______ ____
ROOT
ATOM      1  C   UNL     1       2.161   6.132  20.081  0.00  0.00    +0.000 C 
ATOM      2  O   UNL     1       1.525   5.372  20.811  0.00  0.00    +0.000 OA
ATOM      3  N   UNL     1       3.304   5.726  19.393  0.00  0.00    +0.000 N 
ATOM      4  C   UNL     1       3.589   4.295  19.296  0.00  0.00    +0.000 C 
ATOM      5  C   UNL     1       3.747   3.892  17.814  0.00  0.00    +0.000 C 
ATOM      6  N   UNL     1       4.741   4.688  17.046  0.00  0.00    +0.000 NA
ATOM      7  C   UNL     1       4.441   6.131  17.230  0.00  0.00    +0.000 C 
ATOM      8  C   UNL     1       4.304   6.562  18.710  0.00  0.00    +0.000 C 
ENDROOT
BRANCH   1  12
ATOM      9  C   UNL     1       0.531  10.077  19.595  0.00  0.00    +0.000 A 
ATOM     10  C   UNL     1       1.372   9.518  18.615  0.00  0.00    +0.000 A 
ATOM     11  C   UNL     1       1.898   8.231  18.768  0.00  0.00    +0.000 A 
ATOM     12  C   UNL     1       1.649   7.517  19.937  0.00  0.00    +0.000 A 
ATOM     13  C   UNL     1       0.983   8.156  20.980  0.00  0.00    +0.000 A 
ATOM     14  C   UNL     1       0.363   9.395  20.807  0.00  0.00    +0.000 A 
BRANCH   9  16
ATOM     15  C   UNL     1      -1.507  11.230  19.210  0.00  0.00    +0.000 C 
ATOM     16  O   UNL     1      -0.096  11.280  19.411  0.00  0.00    +0.000 OA
ENDBRANCH   9  16
BRANCH  14  17
ATOM     17  O   UNL     1      -0.376   9.722  21.910  0.00  0.00    +0.000 OA
ATOM     18  C   UNL     1       0.147   9.488  23.203  0.00  0.00    +0.000 C 
ENDBRANCH  14  17
ENDBRANCH   1  12
BRANCH   6  19
ATOM     19  C   UNL     1       6.133   4.397  17.434  0.00  0.00    +0.000 C 
BRANCH  19  20
ATOM     20  C   UNL     1       7.176   4.995  16.476  0.00  0.00    +0.000 C 
BRANCH  20  21
ATOM     21  N   UNL     1       7.430   6.385  16.755  0.00  0.00    +0.000 N 
ATOM     22  C   UNL     1       7.864   6.847  17.978  0.00  0.00    +0.000 C 
ATOM     23  O   UNL     1       8.111   6.178  18.969  0.00  0.00    +0.000 OA
ATOM     24  H   UNL     1       7.232   7.091  16.048  0.00  0.00    +0.000 HD
BRANCH  22  25
ATOM     25  C   UNL     1       8.030   8.373  17.999  0.00  0.00    +0.000 C 
ATOM     26  O   UNL     1       7.429   9.015  17.147  0.00  0.00    +0.000 OA
ATOM     27  N   UNL     1       8.898   8.822  18.973  0.00  0.00    +0.000 N 
ATOM     28  H   UNL     1       9.368   8.094  19.507  0.00  0.00    +0.000 HD
BRANCH  27  29
ATOM     29  C   UNL     1       9.241  10.165  19.204  0.00  0.00    +0.000 A 
ATOM     30  C   UNL     1       9.418  10.685  20.493  0.00  0.00    +0.000 A 
ATOM     31  C   UNL     1       9.725  12.032  20.682  0.00  0.00    +0.000 A 
ATOM     32  C   UNL     1       9.856  12.860  19.578  0.00  0.00    +0.000 A 
ATOM     33  F   UNL     1      10.132  14.158  19.760  0.00  0.00    +0.000 F 
ATOM     34  C   UNL     1       9.702  12.361  18.289  0.00  0.00    +0.000 A 
ATOM     35  C   UNL     1       9.406  11.007  18.098  0.00  0.00    +0.000 A 
ENDBRANCH  27  29
ENDBRANCH  22  25
ENDBRANCH  20  21
ENDBRANCH  19  20
ENDBRANCH   6  19
TORSDOF 8
ENDMDL
MODEL 4
REMARK VINA RESULT:      -7.6      3.309      7.429
REMARK  Name = 
REMARK  10 active torsions:
REMARK  status: ('A' for Active; 'I' for Inactive)
REMARK    1  A    between atoms: C_1  and  O_2
REMARK    2  A    between atoms: O_2  and  C_3
REMARK    3  A    between atoms: C_6  and  C_7
REMARK    4  A    between atoms: N_12  and  C_13
REMARK    5  A    between atoms: C_13  and  C_14
REMARK    6  A    between atoms: C_14  and  N_15
REMARK    7  A    between atoms: C_16  and  C_18
REMARK    8  A    between atoms: N_20  and  C_21
REMARK    9  A    between atoms: C_31  and  O_32
REMARK   10  A    between atoms: O_32  and  C_33
REMARK                            x       y       z     vdW  Elec       q    Type
REMARK                         _______ _______ _______ _____ _____    ______ ____
ROOT
ATOM      1  C   UNL     1       3.302   5.905  19.198  0.00  0.00    +0.000 C 
ATOM      2  O   UNL     1       3.453   5.184  20.184  0.00  0.00    +0.000 OA
ATOM      3  N   UNL     1       2.318   6.891  19.136  0.00  0.00    +0.000 N 
ATOM      4  C   UNL     1       1.644   7.283  20.373  0.00  0.00    +0.000 C 
ATOM      5  C   UNL     1       1.773   8.808  20.579  0.00  0.00    +0.000 C 
ATOM      6  N   UNL     1       1.316   9.640  19.434  0.00  0.00    +0.000 NA
ATOM      7  C   UNL     1       1.985   9.159  18.198  0.00  0.00    +0.000 C 
ATOM      8  C   UNL     1       1.846   7.637  17.959  0.00  0.00    +0.000 C 
ENDROOT
BRANCH   1  12
ATOM      9  C   UNL     1       5.895   5.407  15.809  0.00  0.00    +0.000 A 
ATOM     10  C   UNL     1       4.907   4.452  16.108  0.00  0.00    +0.000 A 
ATOM     11  C   UNL     1       4.056   4.615  17.207  0.00  0.00    +0.000 A 
ATOM     12  C   UNL     1       4.235   5.700  18.062  0.00  0.00    +0.000 A 
ATOM     13  C   UNL     1       5.337   6.527  17.869  0.00  0.00    +0.000 A 
ATOM     14  C   UNL     1       6.130   6.442  16.723  0.00  0.00    +0.000 A 
BRANCH   9  16
ATOM     15  C   UNL     1       6.475   4.166  13.871  0.00  0.00    +0.000 C 
ATOM     16  O   UNL     1       6.652   5.334  14.671  0.00  0.00    +0.000 OA
ENDBRANCH   9  16
BRANCH  14  17
ATOM     17  O   UNL     1       7.026   7.474  16.680  0.00  0.00    +0.000 OA
ATOM     18  C   UNL     1       7.812   7.773  17.817  0.00  0.00    +0.000 C 
ENDBRANCH  14  17
ENDBRANCH   1  12
BRANCH   6  19
ATOM     19  C   UNL     1      -0.149   9.631  19.265  0.00  0.00    +0.000 C 
BRANCH  19  20
ATOM     20  C   UNL     1      -0.790  11.021  19.397  0.00  0.00    +0.000 C 
BRANCH  20  21
ATOM     21  N   UNL     1       0.183  12.039  19.694  0.00  0.00    +0.000 N 
ATOM     22  C   UNL     1       0.520  12.416  20.976  0.00  0.00    +0.000 C 
ATOM     23  O   UNL     1       0.081  11.950  22.016  0.00  0.00    +0.000 OA
ATOM     24  H   UNL     1       0.618  12.566  18.938  0.00  0.00    +0.000 HD
BRANCH  22  25
ATOM     25  C   UNL     1       1.567  13.539  20.999  0.00  0.00    +0.000 C 
ATOM     26  O   UNL     1       1.647  14.210  22.020  0.00  0.00    +0.000 OA
ATOM     27  N   UNL     1       2.259  13.673  19.814  0.00  0.00    +0.000 N 
ATOM     28  H   UNL     1       1.952  13.066  19.057  0.00  0.00    +0.000 HD
BRANCH  27  29
ATOM     29  C   UNL     1       3.261  14.626  19.558  0.00  0.00    +0.000 A 
ATOM     30  C   UNL     1       4.404  14.749  20.358  0.00  0.00    +0.000 A 
ATOM     31  C   UNL     1       5.359  15.729  20.090  0.00  0.00    +0.000 A 
ATOM     32  C   UNL     1       5.169  16.587  19.019  0.00  0.00    +0.000 A 
ATOM     33  F   UNL     1       6.076  17.542  18.772  0.00  0.00    +0.000 F 
ATOM     34  C   UNL     1       4.050  16.471  18.200  0.00  0.00    +0.000 A 
ATOM     35  C   UNL     1       3.098  15.480  18.461  0.00  0.00    +0.000 A 
ENDBRANCH  27  29
ENDBRANCH  22  25
ENDBRANCH  20  21
ENDBRANCH  19  20
ENDBRANCH   6  19
TORSDOF 8
ENDMDL
MODEL 5
REMARK VINA RESULT:      -7.6      4.250      7.282
REMARK  Name = 
REMARK  10 active torsions:
REMARK  status: ('A' for Active; 'I' for Inactive)
REMARK    1  A    between atoms: C_1  and  O_2
REMARK    2  A    between atoms: O_2  and  C_3
REMARK    3  A    between atoms: C_6  and  C_7
REMARK    4  A    between atoms: N_12  and  C_13
REMARK    5  A    between atoms: C_13  and  C_14
REMARK    6  A    between atoms: C_14  and  N_15
REMARK    7  A    between atoms: C_16  and  C_18
REMARK    8  A    between atoms: N_20  and  C_21
REMARK    9  A    between atoms: C_31  and  O_32
REMARK   10  A    between atoms: O_32  and  C_33
REMARK                            x       y       z     vdW  Elec       q    Type
REMARK                         _______ _______ _______ _____ _____    ______ ____
ROOT
ATOM      1  C   UNL     1      -0.933  12.122  18.605  0.00  0.00    +0.000 C 
ATOM      2  O   UNL     1      -0.403  13.067  18.022  0.00  0.00    +0.000 OA
ATOM      3  N   UNL     1      -0.213  11.238  19.408  0.00  0.00    +0.000 N 
ATOM      4  C   UNL     1       1.143  11.608  19.810  0.00  0.00    +0.000 C 
ATOM      5  C   UNL     1       1.264  11.561  21.348  0.00  0.00    +0.000 C 
ATOM      6  N   UNL     1       0.853  10.277  21.975  0.00  0.00    +0.000 NA
ATOM      7  C   UNL     1      -0.503   9.920  21.485  0.00  0.00    +0.000 C 
ATOM      8  C   UNL     1      -0.640   9.936  19.943  0.00  0.00    +0.000 C 
ENDROOT
BRANCH   1  12
ATOM      9  C   UNL     1      -5.163  11.496  18.185  0.00  0.00    +0.000 A 
ATOM     10  C   UNL     1      -4.288  11.258  17.110  0.00  0.00    +0.000 A 
ATOM     11  C   UNL     1      -2.910  11.454  17.246  0.00  0.00    +0.000 A 
ATOM     12  C   UNL     1      -2.400  11.962  18.438  0.00  0.00    +0.000 A 
ATOM     13  C   UNL     1      -3.292  12.379  19.422  0.00  0.00    +0.000 A 
ATOM     14  C   UNL     1      -4.657  12.095  19.346  0.00  0.00    +0.000 A 
BRANCH   9  16
ATOM     15  C   UNL     1      -7.383  12.292  17.923  0.00  0.00    +0.000 C 
ATOM     16  O   UNL     1      -6.496  11.192  18.116  0.00  0.00    +0.000 OA
ENDBRANCH   9  16
BRANCH  14  17
ATOM     17  O   UNL     1      -5.286  12.441  20.510  0.00  0.00    +0.000 OA
ATOM     18  C   UNL     1      -4.525  12.688  21.676  0.00  0.00    +0.000 C 
ENDBRANCH  14  17
ENDBRANCH   1  12
BRANCH   6  19
ATOM     19  C   UNL     1       1.802   9.180  21.712  0.00  0.00    +0.000 C 
BRANCH  19  20
ATOM     20  C   UNL     1       1.152   7.949  21.061  0.00  0.00    +0.000 C 
BRANCH  20  21
ATOM     21  N   UNL     1       2.112   7.140  20.355  0.00  0.00    +0.000 N 
ATOM     22  C   UNL     1       2.053   5.765  20.302  0.00  0.00    +0.000 C 
ATOM     23  O   UNL     1       1.202   5.048  20.804  0.00  0.00    +0.000 OA
ATOM     24  H   UNL     1       2.920   7.577  19.914  0.00  0.00    +0.000 HD
BRANCH  22  25
ATOM     25  C   UNL     1       3.217   5.162  19.502  0.00  0.00    +0.000 C 
ATOM     26  O   UNL     1       3.679   4.100  19.900  0.00  0.00    +0.000 OA
ATOM     27  N   UNL     1       3.625   5.945  18.443  0.00  0.00    +0.000 N 
ATOM     28  H   UNL     1       3.159   6.846  18.362  0.00  0.00    +0.000 HD
BRANCH  27  29
ATOM     29  C   UNL     1       4.673   5.638  17.558  0.00  0.00    +0.000 A 
ATOM     30  C   UNL     1       5.909   6.296  17.600  0.00  0.00    +0.000 A 
ATOM     31  C   UNL     1       6.912   5.987  16.683  0.00  0.00    +0.000 A 
ATOM     32  C   UNL     1       6.678   5.016  15.722  0.00  0.00    +0.000 A 
ATOM     33  F   UNL     1       7.634   4.731  14.829  0.00  0.00    +0.000 F 
ATOM     34  C   UNL     1       5.465   4.337  15.674  0.00  0.00    +0.000 A 
ATOM     35  C   UNL     1       4.462   4.638  16.601  0.00  0.00    +0.000 A 
ENDBRANCH  27  29
ENDBRANCH  22  25
ENDBRANCH  20  21
ENDBRANCH  19  20
ENDBRANCH   6  19
TORSDOF 8
ENDMDL
MODEL 6
REMARK VINA RESULT:      -7.5      3.878      7.434
REMARK  Name = 
REMARK  10 active torsions:
REMARK  status: ('A' for Active; 'I' for Inactive)
REMARK    1  A    between atoms: C_1  and  O_2
REMARK    2  A    between atoms: O_2  and  C_3
REMARK    3  A    between atoms: C_6  and  C_7
REMARK    4  A    between atoms: N_12  and  C_13
REMARK    5  A    between atoms: C_13  and  C_14
REMARK    6  A    between atoms: C_14  and  N_15
REMARK    7  A    between atoms: C_16  and  C_18
REMARK    8  A    between atoms: N_20  and  C_21
REMARK    9  A    between atoms: C_31  and  O_32
REMARK   10  A    between atoms: O_32  and  C_33
REMARK                            x       y       z     vdW  Elec       q    Type
REMARK                         _______ _______ _______ _____ _____    ______ ____
ROOT
ATOM      1  C   UNL     1       2.265   8.184  18.204  0.00  0.00    +0.000 C 
ATOM      2  O   UNL     1       2.365   8.836  17.165  0.00  0.00    +0.000 OA
ATOM      3  N   UNL     1       1.726   8.717  19.374  0.00  0.00    +0.000 N 
ATOM      4  C   UNL     1       0.990   9.978  19.291  0.00  0.00    +0.000 C 
ATOM      5  C   UNL     1      -0.423   9.799  19.887  0.00  0.00    +0.000 C 
ATOM      6  N   UNL     1      -0.461   9.248  21.268  0.00  0.00    +0.000 NA
ATOM      7  C   UNL     1       0.351   8.004  21.307  0.00  0.00    +0.000 C 
ATOM      8  C   UNL     1       1.781   8.168  20.738  0.00  0.00    +0.000 C 
ENDROOT
BRANCH   1  12
ATOM      9  C   UNL     1       3.641   4.114  18.259  0.00  0.00    +0.000 A 
ATOM     10  C   UNL     1       4.511   5.165  17.919  0.00  0.00    +0.000 A 
ATOM     11  C   UNL     1       4.068   6.492  17.907  0.00  0.00    +0.000 A 
ATOM     12  C   UNL     1       2.728   6.774  18.164  0.00  0.00    +0.000 A 
ATOM     13  C   UNL     1       1.838   5.713  18.303  0.00  0.00    +0.000 A 
ATOM     14  C   UNL     1       2.278   4.393  18.422  0.00  0.00    +0.000 A 
BRANCH   9  16
ATOM     15  C   UNL     1       4.394   2.409  19.728  0.00  0.00    +0.000 C 
ATOM     16  O   UNL     1       4.082   2.826  18.400  0.00  0.00    +0.000 OA
ENDBRANCH   9  16
BRANCH  14  17
ATOM     17  O   UNL     1       1.236   3.564  18.734  0.00  0.00    +0.000 OA
ATOM     18  C   UNL     1       0.810   3.443  20.077  0.00  0.00    +0.000 C 
ENDBRANCH  14  17
ENDBRANCH   1  12
BRANCH   6  19
ATOM     19  C   UNL     1       0.014  10.207  22.282  0.00  0.00    +0.000 C 
BRANCH  19  20
ATOM     20  C   UNL     1      -0.655  11.587  22.182  0.00  0.00    +0.000 C 
BRANCH  20  21
ATOM     21  N   UNL     1       0.210  12.563  21.572  0.00  0.00    +0.000 N 
ATOM     22  C   UNL     1      -0.203  13.435  20.588  0.00  0.00    +0.000 C 
ATOM     23  O   UNL     1      -1.325  13.526  20.115  0.00  0.00    +0.000 OA
ATOM     24  H   UNL     1       1.198  12.595  21.820  0.00  0.00    +0.000 HD
BRANCH  22  25
ATOM     25  C   UNL     1       0.931  14.349  20.104  0.00  0.00    +0.000 C 
ATOM     26  O   UNL     1       0.635  15.501  19.809  0.00  0.00    +0.000 OA
ATOM     27  N   UNL     1       2.153  13.716  20.018  0.00  0.00    +0.000 N 
ATOM     28  H   UNL     1       2.143  12.718  20.217  0.00  0.00    +0.000 HD
BRANCH  27  29
ATOM     29  C   UNL     1       3.352  14.313  19.593  0.00  0.00    +0.000 A 
ATOM     30  C   UNL     1       3.685  14.450  18.239  0.00  0.00    +0.000 A 
ATOM     31  C   UNL     1       4.901  15.017  17.858  0.00  0.00    +0.000 A 
ATOM     32  C   UNL     1       5.784  15.450  18.834  0.00  0.00    +0.000 A 
ATOM     33  F   UNL     1       6.959  15.978  18.469  0.00  0.00    +0.000 F 
ATOM     34  C   UNL     1       5.466  15.341  20.184  0.00  0.00    +0.000 A 
ATOM     35  C   UNL     1       4.242  14.783  20.567  0.00  0.00    +0.000 A 
ENDBRANCH  27  29
ENDBRANCH  22  25
ENDBRANCH  20  21
ENDBRANCH  19  20
ENDBRANCH   6  19
TORSDOF 8
ENDMDL
MODEL 7
REMARK VINA RESULT:      -7.5      5.943     10.929
REMARK  Name = 
REMARK  10 active torsions:
REMARK  status: ('A' for Active; 'I' for Inactive)
REMARK    1  A    between atoms: C_1  and  O_2
REMARK    2  A    between atoms: O_2  and  C_3
REMARK    3  A    between atoms: C_6  and  C_7
REMARK    4  A    between atoms: N_12  and  C_13
REMARK    5  A    between atoms: C_13  and  C_14
REMARK    6  A    between atoms: C_14  and  N_15
REMARK    7  A    between atoms: C_16  and  C_18
REMARK    8  A    between atoms: N_20  and  C_21
REMARK    9  A    between atoms: C_31  and  O_32
REMARK   10  A    between atoms: O_32  and  C_33
REMARK                            x       y       z     vdW  Elec       q    Type
REMARK                         _______ _______ _______ _____ _____    ______ ____
ROOT
ATOM      1  C   UNL     1       2.325   8.090  18.153  0.00  0.00    +0.000 C 
ATOM      2  O   UNL     1       2.453   8.701  17.092  0.00  0.00    +0.000 OA
ATOM      3  N   UNL     1       1.765   8.672  19.289  0.00  0.00    +0.000 N 
ATOM      4  C   UNL     1       1.039   9.932  19.142  0.00  0.00    +0.000 C 
ATOM      5  C   UNL     1      -0.387   9.785  19.713  0.00  0.00    +0.000 C 
ATOM      6  N   UNL     1      -0.459   9.288  21.113  0.00  0.00    +0.000 NA
ATOM      7  C   UNL     1       0.344   8.042  21.218  0.00  0.00    +0.000 C 
ATOM      8  C   UNL     1       1.787   8.176  20.674  0.00  0.00    +0.000 C 
ENDROOT
BRANCH   1  12
ATOM      9  C   UNL     1       3.649   4.010  18.398  0.00  0.00    +0.000 A 
ATOM     10  C   UNL     1       4.569   5.056  18.208  0.00  0.00    +0.000 A 
ATOM     11  C   UNL     1       4.142   6.386  18.136  0.00  0.00    +0.000 A 
ATOM     12  C   UNL     1       2.780   6.677  18.177  0.00  0.00    +0.000 A 
ATOM     13  C   UNL     1       1.872   5.622  18.165  0.00  0.00    +0.000 A 
ATOM     14  C   UNL     1       2.279   4.298  18.343  0.00  0.00    +0.000 A 
BRANCH   9  16
ATOM     15  C   UNL     1       4.391   2.365  19.939  0.00  0.00    +0.000 C 
ATOM     16  O   UNL     1       4.053   2.718  18.599  0.00  0.00    +0.000 OA
ENDBRANCH   9  16
BRANCH  14  17
ATOM     17  O   UNL     1       1.196   3.476  18.479  0.00  0.00    +0.000 OA
ATOM     18  C   UNL     1       0.766   3.082  19.768  0.00  0.00    +0.000 C 
ENDBRANCH  14  17
ENDBRANCH   1  12
BRANCH   6  19
ATOM     19  C   UNL     1       0.001  10.283  22.099  0.00  0.00    +0.000 C 
BRANCH  19  20
ATOM     20  C   UNL     1      -1.014  10.547  23.223  0.00  0.00    +0.000 C 
BRANCH  20  21
ATOM     21  N   UNL     1      -1.864  11.671  22.930  0.00  0.00    +0.000 N 
ATOM     22  C   UNL     1      -1.460  12.982  23.056  0.00  0.00    +0.000 C 
ATOM     23  O   UNL     1      -0.357  13.379  23.400  0.00  0.00    +0.000 OA
ATOM     24  H   UNL     1      -2.838  11.520  22.671  0.00  0.00    +0.000 HD
BRANCH  22  25
ATOM     25  C   UNL     1      -2.576  13.974  22.700  0.00  0.00    +0.000 C 
ATOM     26  O   UNL     1      -2.540  14.482  21.586  0.00  0.00    +0.000 OA
ATOM     27  N   UNL     1      -3.464  14.200  23.730  0.00  0.00    +0.000 N 
ATOM     28  H   UNL     1      -3.238  13.743  24.611  0.00  0.00    +0.000 HD
BRANCH  27  29
ATOM     29  C   UNL     1      -4.568  15.069  23.680  0.00  0.00    +0.000 A 
ATOM     30  C   UNL     1      -4.542  16.352  24.240  0.00  0.00    +0.000 A 
ATOM     31  C   UNL     1      -5.670  17.171  24.199  0.00  0.00    +0.000 A 
ATOM     32  C   UNL     1      -6.826  16.705  23.593  0.00  0.00    +0.000 A 
ATOM     33  F   UNL     1      -7.915  17.484  23.570  0.00  0.00    +0.000 F 
ATOM     34  C   UNL     1      -6.868  15.441  23.014  0.00  0.00    +0.000 A 
ATOM     35  C   UNL     1      -5.734  14.624  23.044  0.00  0.00    +0.000 A 
ENDBRANCH  27  29
ENDBRANCH  22  25
ENDBRANCH  20  21
ENDBRANCH  19  20
ENDBRANCH   6  19
TORSDOF 8
ENDMDL
MODEL 8
REMARK VINA RESULT:      -7.5      3.721      7.577
REMARK  Name = 
REMARK  10 active torsions:
REMARK  status: ('A' for Active; 'I' for Inactive)
REMARK    1  A    between atoms: C_1  and  O_2
REMARK    2  A    between atoms: O_2  and  C_3
REMARK    3  A    between atoms: C_6  and  C_7
REMARK    4  A    between atoms: N_12  and  C_13
REMARK    5  A    between atoms: C_13  and  C_14
REMARK    6  A    between atoms: C_14  and  N_15
REMARK    7  A    between atoms: C_16  and  C_18
REMARK    8  A    between atoms: N_20  and  C_21
REMARK    9  A    between atoms: C_31  and  O_32
REMARK   10  A    between atoms: O_32  and  C_33
REMARK                            x       y       z     vdW  Elec       q    Type
REMARK                         _______ _______ _______ _____ _____    ______ ____
ROOT
ATOM      1  C   UNL     1       2.302   7.717  18.823  0.00  0.00    +0.000 C 
ATOM      2  O   UNL     1       2.600   8.121  17.699  0.00  0.00    +0.000 OA
ATOM      3  N   UNL     1       1.691   8.533  19.774  0.00  0.00    +0.000 N 
ATOM      4  C   UNL     1       1.118   9.805  19.337  0.00  0.00    +0.000 C 
ATOM      5  C   UNL     1      -0.367   9.879  19.751  0.00  0.00    +0.000 C 
ATOM      6  N   UNL     1      -0.633   9.642  21.196  0.00  0.00    +0.000 NA
ATOM      7  C   UNL     1       0.023   8.371  21.598  0.00  0.00    +0.000 C 
ATOM      8  C   UNL     1       1.520   8.286  21.214  0.00  0.00    +0.000 C 
ENDROOT
BRANCH   1  12
ATOM      9  C   UNL     1       3.168   3.571  19.546  0.00  0.00    +0.000 A 
ATOM     10  C   UNL     1       1.849   4.055  19.613  0.00  0.00    +0.000 A 
ATOM     11  C   UNL     1       1.564   5.403  19.371  0.00  0.00    +0.000 A 
ATOM     12  C   UNL     1       2.605   6.297  19.132  0.00  0.00    +0.000 A 
ATOM     13  C   UNL     1       3.915   5.846  19.264  0.00  0.00    +0.000 A 
ATOM     14  C   UNL     1       4.216   4.489  19.400  0.00  0.00    +0.000 A 
BRANCH   9  16
ATOM     15  C   UNL     1       3.512   1.505  18.431  0.00  0.00    +0.000 C 
ATOM     16  O   UNL     1       3.457   2.238  19.654  0.00  0.00    +0.000 OA
ENDBRANCH   9  16
BRANCH  14  17
ATOM     17  O   UNL     1       5.566   4.286  19.323  0.00  0.00    +0.000 OA
ATOM     18  C   UNL     1       6.435   5.385  19.134  0.00  0.00    +0.000 C 
ENDBRANCH  14  17
ENDBRANCH   1  12
BRANCH   6  19
ATOM     19  C   UNL     1      -0.177  10.752  22.053  0.00  0.00    +0.000 C 
BRANCH  19  20
ATOM     20  C   UNL     1      -0.744  12.119  21.640  0.00  0.00    +0.000 C 
BRANCH  20  21
ATOM     21  N   UNL     1       0.281  13.004  21.151  0.00  0.00    +0.000 N 
ATOM     22  C   UNL     1       0.630  14.181  21.778  0.00  0.00    +0.000 C 
ATOM     23  O   UNL     1       0.161  14.627  22.813  0.00  0.00    +0.000 OA
ATOM     24  H   UNL     1       0.748  12.805  20.268  0.00  0.00    +0.000 HD
BRANCH  22  25
ATOM     25  C   UNL     1       1.736  14.936  21.027  0.00  0.00    +0.000 C 
ATOM     26  O   UNL     1       1.584  16.141  20.869  0.00  0.00    +0.000 OA
ATOM     27  N   UNL     1       2.754  14.122  20.577  0.00  0.00    +0.000 N 
ATOM     28  H   UNL     1       2.619  13.126  20.734  0.00  0.00    +0.000 HD
BRANCH  27  29
ATOM     29  C   UNL     1       3.880  14.550  19.852  0.00  0.00    +0.000 A 
ATOM     30  C   UNL     1       3.923  14.534  18.451  0.00  0.00    +0.000 A 
ATOM     31  C   UNL     1       5.072  14.935  17.770  0.00  0.00    +0.000 A 
ATOM     32  C   UNL     1       6.178  15.353  18.491  0.00  0.00    +0.000 A 
ATOM     33  F   UNL     1       7.288  15.720  17.838  0.00  0.00    +0.000 F 
ATOM     34  C   UNL     1       6.151  15.394  19.881  0.00  0.00    +0.000 A 
ATOM     35  C   UNL     1       4.995  15.004  20.565  0.00  0.00    +0.000 A 
ENDBRANCH  27  29
ENDBRANCH  22  25
ENDBRANCH  20  21
ENDBRANCH  19  20
ENDBRANCH   6  19
TORSDOF 8
ENDMDL
MODEL 9
REMARK VINA RESULT:      -7.5      4.628      9.511
REMARK  Name = 
REMARK  10 active torsions:
REMARK  status: ('A' for Active; 'I' for Inactive)
REMARK    1  A    between atoms: C_1  and  O_2
REMARK    2  A    between atoms: O_2  and  C_3
REMARK    3  A    between atoms: C_6  and  C_7
REMARK    4  A    between atoms: N_12  and  C_13
REMARK    5  A    between atoms: C_13  and  C_14
REMARK    6  A    between atoms: C_14  and  N_15
REMARK    7  A    between atoms: C_16  and  C_18
REMARK    8  A    between atoms: N_20  and  C_21
REMARK    9  A    between atoms: C_31  and  O_32
REMARK   10  A    between atoms: O_32  and  C_33
REMARK                            x       y       z     vdW  Elec       q    Type
REMARK                         _______ _______ _______ _____ _____    ______ ____
ROOT
ATOM      1  C   UNL     1       2.978   3.779  17.413  0.00  0.00    +0.000 C 
ATOM      2  O   UNL     1       2.465   2.671  17.263  0.00  0.00    +0.000 OA
ATOM      3  N   UNL     1       2.396   4.773  18.199  0.00  0.00    +0.000 N 
ATOM      4  C   UNL     1       1.311   4.400  19.105  0.00  0.00    +0.000 C 
ATOM      5  C   UNL     1       1.658   4.836  20.545  0.00  0.00    +0.000 C 
ATOM      6  N   UNL     1       2.015   6.272  20.701  0.00  0.00    +0.000 NA
ATOM      7  C   UNL     1       3.075   6.609  19.717  0.00  0.00    +0.000 C 
ATOM      8  C   UNL     1       2.736   6.203  18.263  0.00  0.00    +0.000 C 
ENDROOT
BRANCH   1  12
ATOM      9  C   UNL     1       6.688   4.652  15.430  0.00  0.00    +0.000 A 
ATOM     10  C   UNL     1       5.556   4.251  14.698  0.00  0.00    +0.000 A 
ATOM     11  C   UNL     1       4.345   3.973  15.341  0.00  0.00    +0.000 A 
ATOM     12  C   UNL     1       4.274   4.022  16.731  0.00  0.00    +0.000 A 
ATOM     13  C   UNL     1       5.447   4.225  17.452  0.00  0.00    +0.000 A 
ATOM     14  C   UNL     1       6.637   4.607  16.829  0.00  0.00    +0.000 A 
BRANCH   9  16
ATOM     15  C   UNL     1       7.783   5.204  13.398  0.00  0.00    +0.000 C 
ATOM     16  O   UNL     1       7.844   5.050  14.815  0.00  0.00    +0.000 OA
ENDBRANCH   9  16
BRANCH  14  17
ATOM     17  O   UNL     1       7.587   4.924  17.760  0.00  0.00    +0.000 OA
ATOM     18  C   UNL     1       7.331   5.938  18.711  0.00  0.00    +0.000 C 
ENDBRANCH  14  17
ENDBRANCH   1  12
BRANCH   6  19
ATOM     19  C   UNL     1       0.858   7.171  20.542  0.00  0.00    +0.000 C 
BRANCH  19  20
ATOM     20  C   UNL     1       1.196   8.653  20.772  0.00  0.00    +0.000 C 
BRANCH  20  21
ATOM     21  N   UNL     1       0.300   9.528  20.062  0.00  0.00    +0.000 N 
ATOM     22  C   UNL     1       0.490  10.889  19.960  0.00  0.00    +0.000 C 
ATOM     23  O   UNL     1       1.419  11.536  20.419  0.00  0.00    +0.000 OA
ATOM     24  H   UNL     1      -0.557   9.158  19.653  0.00  0.00    +0.000 HD
BRANCH  22  25
ATOM     25  C   UNL     1      -0.631  11.577  19.167  0.00  0.00    +0.000 C 
ATOM     26  O   UNL     1      -0.358  12.636  18.616  0.00  0.00    +0.000 OA
ATOM     27  N   UNL     1      -1.837  10.913  19.226  0.00  0.00    +0.000 N 
ATOM     28  H   UNL     1      -1.858  10.097  19.834  0.00  0.00    +0.000 HD
BRANCH  27  29
ATOM     29  C   UNL     1      -3.028  11.328  18.604  0.00  0.00    +0.000 A 
ATOM     30  C   UNL     1      -4.045  11.998  19.296  0.00  0.00    +0.000 A 
ATOM     31  C   UNL     1      -5.225  12.363  18.651  0.00  0.00    +0.000 A 
ATOM     32  C   UNL     1      -5.388  12.059  17.309  0.00  0.00    +0.000 A 
ATOM     33  F   UNL     1      -6.529  12.393  16.693  0.00  0.00    +0.000 F 
ATOM     34  C   UNL     1      -4.384  11.411  16.597  0.00  0.00    +0.000 A 
ATOM     35  C   UNL     1      -3.194  11.055  17.241  0.00  0.00    +0.000 A 
ENDBRANCH  27  29
ENDBRANCH  22  25
ENDBRANCH  20  21
ENDBRANCH  19  20
ENDBRANCH   6  19
TORSDOF 8
ENDMDL
