MODEL 1
REMARK VINA RESULT:      -7.7      0.000      0.000
REMARK  Name = 
REMARK  9 active torsions:
REMARK  status: ('A' for Active; 'I' for Inactive)
REMARK    1  A    between atoms: C_1  and  O_2
REMARK    2  A    between atoms: O_2  and  C_3
REMARK    3  A    between atoms: C_8  and  N_9
REMARK    4  A    between atoms: N_12  and  C_13
REMARK    5  A    between atoms: C_13  and  C_14
REMARK    6  A    between atoms: N_16  and  C_17
REMARK    7  A    between atoms: C_17  and  C_18
REMARK    8  A    between atoms: C_18  and  N_19
REMARK    9  A    between atoms: N_19  and  C_20
REMARK                            x       y       z     vdW  Elec       q    Type
REMARK                         _______ _______ _______ _____ _____    ______ ____
ROOT
ATOM      1  C   UNL     1       1.752   5.011  20.942  0.00  0.00    +0.000 C 
ATOM      2  C   UNL     1       3.140   4.562  20.476  0.00  0.00    +0.000 C 
ATOM      3  N   UNL     1       2.912   3.266  19.907  0.00  0.00    +0.000 N 
ATOM      4  C   UNL     1       1.584   2.928  19.983  0.00  0.00    +0.000 C 
ATOM      5  O   UNL     1       1.062   1.942  19.492  0.00  0.00    +0.000 OA
ATOM      6  O   UNL     1       0.903   3.874  20.689  0.00  0.00    +0.000 OA
ENDROOT
BRANCH   1   7
ATOM      7  C   UNL     1       1.189   6.269  20.209  0.00  0.00    +0.000 C 
BRANCH   7  11
ATOM      8  N   UNL     1       0.574   9.895  19.375  0.00  0.00    +0.000 N 
ATOM      9  C   UNL     1       1.176   8.972  18.399  0.00  0.00    +0.000 C 
ATOM     10  C   UNL     1       2.338   8.159  19.024  0.00  0.00    +0.000 C 
ATOM     11  N   UNL     1       2.041   7.481  20.308  0.00  0.00    +0.000 NA
ATOM     12  C   UNL     1       1.475   8.500  21.227  0.00  0.00    +0.000 C 
ATOM     13  C   UNL     1       0.264   9.298  20.684  0.00  0.00    +0.000 C 
BRANCH   8  19
ATOM     14  C   UNL     1      -0.676  11.878  18.501  0.00  0.00    +0.000 A 
ATOM     15  C   UNL     1      -0.685  13.262  18.284  0.00  0.00    +0.000 A 
ATOM     16  C   UNL     1       0.333  14.089  18.757  0.00  0.00    +0.000 A 
ATOM     17  C   UNL     1       1.382  13.516  19.460  0.00  0.00    +0.000 A 
ATOM     18  C   UNL     1       1.422  12.139  19.661  0.00  0.00    +0.000 A 
ATOM     19  C   UNL     1       0.414  11.258  19.173  0.00  0.00    +0.000 A 
BRANCH  14  21
ATOM     20  C   UNL     1      -2.990  11.554  18.126  0.00  0.00    +0.000 C 
ATOM     21  O   UNL     1      -1.660  11.065  17.985  0.00  0.00    +0.000 OA
ENDBRANCH  14  21
ENDBRANCH   8  19
ENDBRANCH   7  11
ENDBRANCH   1   7
BRANCH   3  22
ATOM     22  C   UNL     1       3.865   2.559  19.059  0.00  0.00    +0.000 C 
BRANCH  22  23
ATOM     23  C   UNL     1       3.668   2.650  17.527  0.00  0.00    +0.000 C 
BRANCH  23  24
ATOM     24  N   UNL     1       4.811   3.181  16.797  0.00  0.00    +0.000 N 
ATOM     25  H   UNL     1       5.681   3.090  17.333  0.00  0.00    +0.000 HD
BRANCH  24  26
ATOM     26  C   UNL     1       4.871   4.452  16.094  0.00  0.00    +0.000 A 
ATOM     27  C   UNL     1       5.330   4.203  14.809  0.00  0.00    +0.000 A 
ATOM     28  C   UNL     1       6.705   4.178  14.702  0.00  0.00    +0.000 A 
ATOM     29  N   UNL     1       7.541   4.688  15.634  0.00  0.00    +0.000 NA
ATOM     30  C   UNL     1       6.964   5.500  16.527  0.00  0.00    +0.000 A 
ATOM     31  C   UNL     1       7.727   6.501  17.095  0.00  0.00    +0.000 A 
ATOM     32  C   UNL     1       7.114   7.681  17.503  0.00  0.00    +0.000 A 
ATOM     33 CL   UNL     1       8.080   9.010  18.013  0.00  0.00    +0.000 Cl
ATOM     34  C   UNL     1       5.735   7.833  17.388  0.00  0.00    +0.000 A 
ATOM     35  C   UNL     1       4.951   6.739  17.013  0.00  0.00    +0.000 A 
ATOM     36  C   UNL     1       5.563   5.519  16.669  0.00  0.00    +0.000 A 
ENDBRANCH  24  26
ENDBRANCH  23  24
ENDBRANCH  22  23
ENDBRANCH   3  22
TORSDOF 8
ENDMDL
MODEL 2
REMARK VINA RESULT:      -7.5      0.978      1.006
REMARK  Name = 
REMARK  9 active torsions:
REMARK  status: ('A' for Active; 'I' for Inactive)
REMARK    1  A    between atoms: C_1  and  O_2
REMARK    2  A    between atoms: O_2  and  C_3
REMARK    3  A    between atoms: C_8  and  N_9
REMARK    4  A    between atoms: N_12  and  C_13
REMARK    5  A    between atoms: C_13  and  C_14
REMARK    6  A    between atoms: N_16  and  C_17
REMARK    7  A    between atoms: C_17  and  C_18
REMARK    8  A    between atoms: C_18  and  N_19
REMARK    9  A    between atoms: N_19  and  C_20
REMARK                            x       y       z     vdW  Elec       q    Type
REMARK                         _______ _______ _______ _____ _____    ______ ____
ROOT
ATOM      1  C   UNL     1       1.678   5.357  20.741  0.00  0.00    +0.000 C 
ATOM      2  C   UNL     1       2.715   5.065  19.653  0.00  0.00    +0.000 C 
ATOM      3  N   UNL     1       2.210   3.893  18.998  0.00  0.00    +0.000 N 
ATOM      4  C   UNL     1       1.027   3.491  19.565  0.00  0.00    +0.000 C 
ATOM      5  O   UNL     1       0.303   2.597  19.164  0.00  0.00    +0.000 OA
ATOM      6  O   UNL     1       0.753   4.255  20.660  0.00  0.00    +0.000 OA
ENDROOT
BRANCH   1   7
ATOM      7  C   UNL     1       0.914   6.707  20.572  0.00  0.00    +0.000 C 
BRANCH   7  11
ATOM      8  N   UNL     1       0.137  10.390  20.340  0.00  0.00    +0.000 N 
ATOM      9  C   UNL     1       0.552   9.615  19.159  0.00  0.00    +0.000 C 
ATOM     10  C   UNL     1       1.813   8.764  19.451  0.00  0.00    +0.000 C 
ATOM     11  N   UNL     1       1.763   7.921  20.668  0.00  0.00    +0.000 NA
ATOM     12  C   UNL     1       1.373   8.799  21.799  0.00  0.00    +0.000 C 
ATOM     13  C   UNL     1       0.078   9.625  21.595  0.00  0.00    +0.000 C 
BRANCH   8  19
ATOM     14  C   UNL     1      -1.227  12.437  19.881  0.00  0.00    +0.000 A 
ATOM     15  C   UNL     1      -1.280  13.837  19.863  0.00  0.00    +0.000 A 
ATOM     16  C   UNL     1      -0.232  14.621  20.344  0.00  0.00    +0.000 A 
ATOM     17  C   UNL     1       0.893  13.987  20.852  0.00  0.00    +0.000 A 
ATOM     18  C   UNL     1       0.975  12.598  20.853  0.00  0.00    +0.000 A 
ATOM     19  C   UNL     1      -0.064  11.763  20.348  0.00  0.00    +0.000 A 
BRANCH  14  21
ATOM     20  C   UNL     1      -3.550  12.232  19.481  0.00  0.00    +0.000 C 
ATOM     21  O   UNL     1      -2.245  11.674  19.356  0.00  0.00    +0.000 OA
ENDBRANCH  14  21
ENDBRANCH   8  19
ENDBRANCH   7  11
ENDBRANCH   1   7
BRANCH   3  22
ATOM     22  C   UNL     1       2.680   3.403  17.707  0.00  0.00    +0.000 C 
BRANCH  22  23
ATOM     23  C   UNL     1       4.062   2.710  17.663  0.00  0.00    +0.000 C 
BRANCH  23  24
ATOM     24  N   UNL     1       4.918   3.127  16.560  0.00  0.00    +0.000 N 
ATOM     25  H   UNL     1       5.895   2.858  16.714  0.00  0.00    +0.000 HD
BRANCH  24  26
ATOM     26  C   UNL     1       4.927   4.434  15.922  0.00  0.00    +0.000 A 
ATOM     27  C   UNL     1       5.381   4.266  14.623  0.00  0.00    +0.000 A 
ATOM     28  C   UNL     1       6.755   4.295  14.504  0.00  0.00    +0.000 A 
ATOM     29  N   UNL     1       7.582   4.785  15.454  0.00  0.00    +0.000 NA
ATOM     30  C   UNL     1       6.987   5.531  16.392  0.00  0.00    +0.000 A 
ATOM     31  C   UNL     1       7.721   6.527  17.003  0.00  0.00    +0.000 A 
ATOM     32  C   UNL     1       7.071   7.663  17.476  0.00  0.00    +0.000 A 
ATOM     33 CL   UNL     1       7.997   8.998  18.046  0.00  0.00    +0.000 Cl
ATOM     34  C   UNL     1       5.687   7.772  17.381  0.00  0.00    +0.000 A 
ATOM     35  C   UNL     1       4.938   6.673  16.956  0.00  0.00    +0.000 A 
ATOM     36  C   UNL     1       5.588   5.494  16.546  0.00  0.00    +0.000 A 
ENDBRANCH  24  26
ENDBRANCH  23  24
ENDBRANCH  22  23
ENDBRANCH   3  22
TORSDOF 8
ENDMDL
MODEL 3
REMARK VINA RESULT:      -7.3      1.767      2.247
REMARK  Name = 
REMARK  9 active torsions:
REMARK  status: ('A' for Active; 'I' for Inactive)
REMARK    1  A    between atoms: C_1  and  O_2
REMARK    2  A    between atoms: O_2  and  C_3
REMARK    3  A    between atoms: C_8  and  N_9
REMARK    4  A    between atoms: N_12  and  C_13
REMARK    5  A    between atoms: C_13  and  C_14
REMARK    6  A    between atoms: N_16  and  C_17
REMARK    7  A    between atoms: C_17  and  C_18
REMARK    8  A    between atoms: C_18  and  N_19
REMARK    9  A    between atoms: N_19  and  C_20
REMARK                            x       y       z     vdW  Elec       q    Type
REMARK                         _______ _______ _______ _____ _____    ______ ____
ROOT
ATOM      1  C   UNL     1       1.951   6.279  20.646  0.00  0.00    +0.000 C 
ATOM      2  C   UNL     1       2.533   5.920  19.275  0.00  0.00    +0.000 C 
ATOM      3  N   UNL     1       2.101   4.569  19.058  0.00  0.00    +0.000 N 
ATOM      4  C   UNL     1       1.350   4.123  20.117  0.00  0.00    +0.000 C 
ATOM      5  O   UNL     1       0.755   3.062  20.181  0.00  0.00    +0.000 OA
ATOM      6  O   UNL     1       1.345   5.057  21.110  0.00  0.00    +0.000 OA
ENDROOT
BRANCH   1   7
ATOM      7  C   UNL     1       0.891   7.424  20.628  0.00  0.00    +0.000 C 
BRANCH   7  11
ATOM      8  N   UNL     1      -0.689  10.847  20.755  0.00  0.00    +0.000 N 
ATOM      9  C   UNL     1      -0.443  10.159  19.476  0.00  0.00    +0.000 C 
ATOM     10  C   UNL     1       1.003   9.607  19.395  0.00  0.00    +0.000 C 
ATOM     11  N   UNL     1       1.455   8.795  20.549  0.00  0.00    +0.000 NA
ATOM     12  C   UNL     1       1.198   9.588  21.777  0.00  0.00    +0.000 C 
ATOM     13  C   UNL     1      -0.251  10.109  21.950  0.00  0.00    +0.000 C 
BRANCH   8  19
ATOM     14  C   UNL     1      -0.409  13.332  20.697  0.00  0.00    +0.000 A 
ATOM     15  C   UNL     1      -0.989  14.588  20.923  0.00  0.00    +0.000 A 
ATOM     16  C   UNL     1      -2.332  14.728  21.271  0.00  0.00    +0.000 A 
ATOM     17  C   UNL     1      -3.109  13.585  21.397  0.00  0.00    +0.000 A 
ATOM     18  C   UNL     1      -2.543  12.328  21.203  0.00  0.00    +0.000 A 
ATOM     19  C   UNL     1      -1.170  12.143  20.870  0.00  0.00    +0.000 A 
BRANCH  14  21
ATOM     20  C   UNL     1       1.801  14.043  21.155  0.00  0.00    +0.000 C 
ATOM     21  O   UNL     1       0.930  13.203  20.404  0.00  0.00    +0.000 OA
ENDBRANCH  14  21
ENDBRANCH   8  19
ENDBRANCH   7  11
ENDBRANCH   1   7
BRANCH   3  22
ATOM     22  C   UNL     1       2.143   3.888  17.770  0.00  0.00    +0.000 C 
BRANCH  22  23
ATOM     23  C   UNL     1       3.243   2.820  17.558  0.00  0.00    +0.000 C 
BRANCH  23  24
ATOM     24  N   UNL     1       4.554   3.357  17.220  0.00  0.00    +0.000 N 
ATOM     25  H   UNL     1       5.155   3.443  18.047  0.00  0.00    +0.000 HD
BRANCH  24  26
ATOM     26  C   UNL     1       4.824   4.506  16.372  0.00  0.00    +0.000 A 
ATOM     27  C   UNL     1       5.392   4.039  15.196  0.00  0.00    +0.000 A 
ATOM     28  C   UNL     1       6.760   3.877  15.263  0.00  0.00    +0.000 A 
ATOM     29  N   UNL     1       7.538   4.436  16.218  0.00  0.00    +0.000 NA
ATOM     30  C   UNL     1       6.955   5.414  16.920  0.00  0.00    +0.000 A 
ATOM     31  C   UNL     1       7.752   6.412  17.443  0.00  0.00    +0.000 A 
ATOM     32  C   UNL     1       7.225   7.688  17.617  0.00  0.00    +0.000 A 
ATOM     33 CL   UNL     1       8.263   8.984  18.066  0.00  0.00    +0.000 Cl
ATOM     34  C   UNL     1       5.890   7.944  17.315  0.00  0.00    +0.000 A 
ATOM     35  C   UNL     1       5.042   6.883  16.990  0.00  0.00    +0.000 A 
ATOM     36  C   UNL     1       5.557   5.577  16.885  0.00  0.00    +0.000 A 
ENDBRANCH  24  26
ENDBRANCH  23  24
ENDBRANCH  22  23
ENDBRANCH   3  22
TORSDOF 8
ENDMDL
MODEL 4
REMARK VINA RESULT:      -7.2      2.686      4.817
REMARK  Name = 
REMARK  9 active torsions:
REMARK  status: ('A' for Active; 'I' for Inactive)
REMARK    1  A    between atoms: C_1  and  O_2
REMARK    2  A    between atoms: O_2  and  C_3
REMARK    3  A    between atoms: C_8  and  N_9
REMARK    4  A    between atoms: N_12  and  C_13
REMARK    5  A    between atoms: C_13  and  C_14
REMARK    6  A    between atoms: N_16  and  C_17
REMARK    7  A    between atoms: C_17  and  C_18
REMARK    8  A    between atoms: C_18  and  N_19
REMARK    9  A    between atoms: N_19  and  C_20
REMARK                            x       y       z     vdW  Elec       q    Type
REMARK                         _______ _______ _______ _____ _____    ______ ____
ROOT
ATOM      1  C   UNL     1       0.183   9.952  20.564  0.00  0.00    +0.000 C 
ATOM      2  C   UNL     1       0.831   8.700  21.162  0.00  0.00    +0.000 C 
ATOM      3  N   UNL     1       1.487   8.082  20.046  0.00  0.00    +0.000 N 
ATOM      4  C   UNL     1       1.302   8.821  18.904  0.00  0.00    +0.000 C 
ATOM      5  O   UNL     1       1.822   8.615  17.822  0.00  0.00    +0.000 OA
ATOM      6  O   UNL     1       0.447   9.853  19.151  0.00  0.00    +0.000 OA
ENDROOT
BRANCH   1   7
ATOM      7  C   UNL     1       0.737  11.303  21.115  0.00  0.00    +0.000 C 
BRANCH   7  11
ATOM      8  N   UNL     1       0.772  14.679  19.435  0.00  0.00    +0.000 N 
ATOM      9  C   UNL     1       1.265  14.499  20.810  0.00  0.00    +0.000 C 
ATOM     10  C   UNL     1       0.258  13.701  21.676  0.00  0.00    +0.000 C 
ATOM     11  N   UNL     1      -0.231  12.428  21.099  0.00  0.00    +0.000 NA
ATOM     12  C   UNL     1      -0.736  12.724  19.735  0.00  0.00    +0.000 C 
ATOM     13  C   UNL     1       0.253  13.459  18.796  0.00  0.00    +0.000 C 
BRANCH   8  19
ATOM     14  C   UNL     1       1.741  16.684  18.295  0.00  0.00    +0.000 A 
ATOM     15  C   UNL     1       1.509  17.950  17.740  0.00  0.00    +0.000 A 
ATOM     16  C   UNL     1       0.223  18.472  17.606  0.00  0.00    +0.000 A 
ATOM     17  C   UNL     1      -0.852  17.710  18.039  0.00  0.00    +0.000 A 
ATOM     18  C   UNL     1      -0.639  16.462  18.618  0.00  0.00    +0.000 A 
ATOM     19  C   UNL     1       0.661  15.905  18.794  0.00  0.00    +0.000 A 
BRANCH  14  21
ATOM     20  C   UNL     1       3.601  15.593  17.321  0.00  0.00    +0.000 C 
ATOM     21  O   UNL     1       3.018  16.201  18.469  0.00  0.00    +0.000 OA
ENDBRANCH  14  21
ENDBRANCH   8  19
ENDBRANCH   7  11
ENDBRANCH   1   7
BRANCH   3  22
ATOM     22  C   UNL     1       2.490   7.030  20.160  0.00  0.00    +0.000 C 
BRANCH  22  23
ATOM     23  C   UNL     1       1.992   5.567  20.224  0.00  0.00    +0.000 C 
BRANCH  23  24
ATOM     24  N   UNL     1       1.823   4.924  18.927  0.00  0.00    +0.000 N 
ATOM     25  H   UNL     1       1.359   4.014  19.012  0.00  0.00    +0.000 HD
BRANCH  24  26
ATOM     26  C   UNL     1       2.834   4.796  17.890  0.00  0.00    +0.000 A 
ATOM     27  C   UNL     1       3.008   3.445  17.635  0.00  0.00    +0.000 A 
ATOM     28  C   UNL     1       3.916   2.831  18.473  0.00  0.00    +0.000 A 
ATOM     29  N   UNL     1       4.817   3.502  19.226  0.00  0.00    +0.000 NA
ATOM     30  C   UNL     1       4.996   4.783  18.886  0.00  0.00    +0.000 A 
ATOM     31  C   UNL     1       6.226   5.361  19.126  0.00  0.00    +0.000 A 
ATOM     32  C   UNL     1       6.673   6.389  18.301  0.00  0.00    +0.000 A 
ATOM     33 CL   UNL     1       8.285   6.969  18.461  0.00  0.00    +0.000 Cl
ATOM     34  C   UNL     1       5.865   6.865  17.272  0.00  0.00    +0.000 A 
ATOM     35  C   UNL     1       4.544   6.420  17.172  0.00  0.00    +0.000 A 
ATOM     36  C   UNL     1       4.065   5.434  18.053  0.00  0.00    +0.000 A 
ENDBRANCH  24  26
ENDBRANCH  23  24
ENDBRANCH  22  23
ENDBRANCH   3  22
TORSDOF 8
ENDMDL
MODEL 5
REMARK VINA RESULT:      -7.1      1.354      1.426
REMARK  Name = 
REMARK  9 active torsions:
REMARK  status: ('A' for Active; 'I' for Inactive)
REMARK    1  A    between atoms: C_1  and  O_2
REMARK    2  A    between atoms: O_2  and  C_3
REMARK    3  A    between atoms: C_8  and  N_9
REMARK    4  A    between atoms: N_12  and  C_13
REMARK    5  A    between atoms: C_13  and  C_14
REMARK    6  A    between atoms: N_16  and  C_17
REMARK    7  A    between atoms: C_17  and  C_18
REMARK    8  A    between atoms: C_18  and  N_19
REMARK    9  A    between atoms: N_19  and  C_20
REMARK                            x       y       z     vdW  Elec       q    Type
REMARK                         _______ _______ _______ _____ _____    ______ ____
ROOT
ATOM      1  C   UNL     1       1.713   5.596  20.219  0.00  0.00    +0.000 C 
ATOM      2  C   UNL     1       3.061   4.870  20.255  0.00  0.00    +0.000 C 
ATOM      3  N   UNL     1       2.755   3.548  19.790  0.00  0.00    +0.000 N 
ATOM      4  C   UNL     1       1.420   3.435  19.491  0.00  0.00    +0.000 C 
ATOM      5  O   UNL     1       0.877   2.474  18.975  0.00  0.00    +0.000 OA
ATOM      6  O   UNL     1       0.766   4.577  19.843  0.00  0.00    +0.000 OA
ENDROOT
BRANCH   1   7
ATOM      7  C   UNL     1       1.638   6.788  19.214  0.00  0.00    +0.000 C 
BRANCH   7  11
ATOM      8  N   UNL     1      -0.198   9.914  20.252  0.00  0.00    +0.000 N 
ATOM      9  C   UNL     1       0.338   9.752  18.891  0.00  0.00    +0.000 C 
ATOM     10  C   UNL     1       1.811   9.273  18.911  0.00  0.00    +0.000 C 
ATOM     11  N   UNL     1       2.099   8.091  19.756  0.00  0.00    +0.000 NA
ATOM     12  C   UNL     1       1.553   8.369  21.109  0.00  0.00    +0.000 C 
ATOM     13  C   UNL     1       0.062   8.785  21.160  0.00  0.00    +0.000 C 
BRANCH   8  19
ATOM     14  C   UNL     1      -1.622  11.954  19.983  0.00  0.00    +0.000 A 
ATOM     15  C   UNL     1      -2.097  13.142  20.554  0.00  0.00    +0.000 A 
ATOM     16  C   UNL     1      -1.825  13.484  21.878  0.00  0.00    +0.000 A 
ATOM     17  C   UNL     1      -1.060  12.617  22.645  0.00  0.00    +0.000 A 
ATOM     18  C   UNL     1      -0.557  11.445  22.086  0.00  0.00    +0.000 A 
ATOM     19  C   UNL     1      -0.792  11.073  20.731  0.00  0.00    +0.000 A 
BRANCH  14  21
ATOM     20  C   UNL     1      -3.219  11.441  18.313  0.00  0.00    +0.000 C 
ATOM     21  O   UNL     1      -1.853  11.651  18.660  0.00  0.00    +0.000 OA
ENDBRANCH  14  21
ENDBRANCH   8  19
ENDBRANCH   7  11
ENDBRANCH   1   7
BRANCH   3  22
ATOM     22  C   UNL     1       3.752   2.574  19.360  0.00  0.00    +0.000 C 
BRANCH  22  23
ATOM     23  C   UNL     1       4.927   3.085  18.493  0.00  0.00    +0.000 C 
BRANCH  23  24
ATOM     24  N   UNL     1       4.619   3.231  17.077  0.00  0.00    +0.000 N 
ATOM     25  H   UNL     1       4.985   2.448  16.526  0.00  0.00    +0.000 HD
BRANCH  24  26
ATOM     26  C   UNL     1       4.785   4.434  16.278  0.00  0.00    +0.000 A 
ATOM     27  C   UNL     1       5.305   4.056  15.049  0.00  0.00    +0.000 A 
ATOM     28  C   UNL     1       6.681   3.959  15.032  0.00  0.00    +0.000 A 
ATOM     29  N   UNL     1       7.486   4.507  15.970  0.00  0.00    +0.000 NA
ATOM     30  C   UNL     1       6.900   5.418  16.755  0.00  0.00    +0.000 A 
ATOM     31  C   UNL     1       7.678   6.427  17.286  0.00  0.00    +0.000 A 
ATOM     32  C   UNL     1       7.103   7.664  17.557  0.00  0.00    +0.000 A 
ATOM     33 CL   UNL     1       8.104   8.986  18.017  0.00  0.00    +0.000 Cl
ATOM     34  C   UNL     1       5.742   7.869  17.343  0.00  0.00    +0.000 A 
ATOM     35  C   UNL     1       4.928   6.784  17.010  0.00  0.00    +0.000 A 
ATOM     36  C   UNL     1       5.496   5.513  16.807  0.00  0.00    +0.000 A 
ENDBRANCH  24  26
ENDBRANCH  23  24
ENDBRANCH  22  23
ENDBRANCH   3  22
TORSDOF 8
ENDMDL
MODEL 6
REMARK VINA RESULT:      -7.1      2.663      4.583
REMARK  Name = 
REMARK  9 active torsions:
REMARK  status: ('A' for Active; 'I' for Inactive)
REMARK    1  A    between atoms: C_1  and  O_2
REMARK    2  A    between atoms: O_2  and  C_3
REMARK    3  A    between atoms: C_8  and  N_9
REMARK    4  A    between atoms: N_12  and  C_13
REMARK    5  A    between atoms: C_13  and  C_14
REMARK    6  A    between atoms: N_16  and  C_17
REMARK    7  A    between atoms: C_17  and  C_18
REMARK    8  A    between atoms: C_18  and  N_19
REMARK    9  A    between atoms: N_19  and  C_20
REMARK                            x       y       z     vdW  Elec       q    Type
REMARK                         _______ _______ _______ _____ _____    ______ ____
ROOT
ATOM      1  C   UNL     1       0.915   9.884  20.195  0.00  0.00    +0.000 C 
ATOM      2  C   UNL     1       1.527   9.593  18.821  0.00  0.00    +0.000 C 
ATOM      3  N   UNL     1       2.004   8.245  18.933  0.00  0.00    +0.000 N 
ATOM      4  C   UNL     1       1.736   7.736  20.179  0.00  0.00    +0.000 C 
ATOM      5  O   UNL     1       1.921   6.588  20.542  0.00  0.00    +0.000 OA
ATOM      6  O   UNL     1       1.209   8.708  20.975  0.00  0.00    +0.000 OA
ENDROOT
BRANCH   1   7
ATOM      7  C   UNL     1      -0.624  10.144  20.184  0.00  0.00    +0.000 C 
BRANCH   7  11
ATOM      8  N   UNL     1       0.541  13.583  19.164  0.00  0.00    +0.000 N 
ATOM      9  C   UNL     1       1.126  12.884  20.320  0.00  0.00    +0.000 C 
ATOM     10  C   UNL     1       0.030  12.317  21.257  0.00  0.00    +0.000 C 
ATOM     11  N   UNL     1      -1.028  11.509  20.607  0.00  0.00    +0.000 NA
ATOM     12  C   UNL     1      -1.574  12.313  19.484  0.00  0.00    +0.000 C 
ATOM     13  C   UNL     1      -0.531  12.850  18.472  0.00  0.00    +0.000 C 
BRANCH   8  19
ATOM     14  C   UNL     1       2.127  15.354  18.384  0.00  0.00    +0.000 A 
ATOM     15  C   UNL     1       2.334  16.713  18.115  0.00  0.00    +0.000 A 
ATOM     16  C   UNL     1       1.299  17.645  18.186  0.00  0.00    +0.000 A 
ATOM     17  C   UNL     1       0.030  17.204  18.535  0.00  0.00    +0.000 A 
ATOM     18  C   UNL     1      -0.188  15.862  18.832  0.00  0.00    +0.000 A 
ATOM     19  C   UNL     1       0.848  14.885  18.795  0.00  0.00    +0.000 A 
BRANCH  14  21
ATOM     20  C   UNL     1       4.465  15.017  18.520  0.00  0.00    +0.000 C 
ATOM     21  O   UNL     1       3.167  14.452  18.361  0.00  0.00    +0.000 OA
ENDBRANCH  14  21
ENDBRANCH   8  19
ENDBRANCH   7  11
ENDBRANCH   1   7
BRANCH   3  22
ATOM     22  C   UNL     1       2.392   7.413  17.800  0.00  0.00    +0.000 C 
BRANCH  22  23
ATOM     23  C   UNL     1       3.904   7.194  17.554  0.00  0.00    +0.000 C 
BRANCH  23  24
ATOM     24  N   UNL     1       4.539   6.254  18.468  0.00  0.00    +0.000 N 
ATOM     25  H   UNL     1       4.983   6.733  19.258  0.00  0.00    +0.000 HD
BRANCH  24  26
ATOM     26  C   UNL     1       5.400   5.141  18.101  0.00  0.00    +0.000 A 
ATOM     27  C   UNL     1       6.602   5.298  18.774  0.00  0.00    +0.000 A 
ATOM     28  C   UNL     1       7.509   6.103  18.117  0.00  0.00    +0.000 A 
ATOM     29  N   UNL     1       7.417   6.427  16.807  0.00  0.00    +0.000 NA
ATOM     30  C   UNL     1       6.570   5.673  16.097  0.00  0.00    +0.000 A 
ATOM     31  C   UNL     1       6.824   5.488  14.753  0.00  0.00    +0.000 A 
ATOM     32  C   UNL     1       6.409   4.313  14.134  0.00  0.00    +0.000 A 
ATOM     33 CL   UNL     1       6.904   3.980  12.519  0.00  0.00    +0.000 Cl
ATOM     34  C   UNL     1       5.698   3.354  14.850  0.00  0.00    +0.000 A 
ATOM     35  C   UNL     1       5.264   3.645  16.146  0.00  0.00    +0.000 A 
ATOM     36  C   UNL     1       5.620   4.865  16.750  0.00  0.00    +0.000 A 
ENDBRANCH  24  26
ENDBRANCH  23  24
ENDBRANCH  22  23
ENDBRANCH   3  22
TORSDOF 8
ENDMDL
MODEL 7
REMARK VINA RESULT:      -7.0      4.316      6.497
REMARK  Name = 
REMARK  9 active torsions:
REMARK  status: ('A' for Active; 'I' for Inactive)
REMARK    1  A    between atoms: C_1  and  O_2
REMARK    2  A    between atoms: O_2  and  C_3
REMARK    3  A    between atoms: C_8  and  N_9
REMARK    4  A    between atoms: N_12  and  C_13
REMARK    5  A    between atoms: C_13  and  C_14
REMARK    6  A    between atoms: N_16  and  C_17
REMARK    7  A    between atoms: C_17  and  C_18
REMARK    8  A    between atoms: C_18  and  N_19
REMARK    9  A    between atoms: N_19  and  C_20
REMARK                            x       y       z     vdW  Elec       q    Type
REMARK                         _______ _______ _______ _____ _____    ______ ____
ROOT
ATOM      1  C   UNL     1       1.019  12.217  20.806  0.00  0.00    +0.000 C 
ATOM      2  C   UNL     1       1.297  11.806  19.356  0.00  0.00    +0.000 C 
ATOM      3  N   UNL     1       1.278  10.373  19.393  0.00  0.00    +0.000 N 
ATOM      4  C   UNL     1       1.021   9.922  20.663  0.00  0.00    +0.000 C 
ATOM      5  O   UNL     1       0.837   8.763  20.993  0.00  0.00    +0.000 OA
ATOM      6  O   UNL     1       0.984  10.972  21.531  0.00  0.00    +0.000 OA
ENDROOT
BRANCH   1   7
ATOM      7  C   UNL     1      -0.315  12.997  21.022  0.00  0.00    +0.000 C 
BRANCH   7  11
ATOM      8  N   UNL     1      -3.708  13.759  22.483  0.00  0.00    +0.000 N 
ATOM      9  C   UNL     1      -2.583  13.331  23.330  0.00  0.00    +0.000 C 
ATOM     10  C   UNL     1      -1.880  12.076  22.754  0.00  0.00    +0.000 C 
ATOM     11  N   UNL     1      -1.493  12.145  21.326  0.00  0.00    +0.000 NA
ATOM     12  C   UNL     1      -2.698  12.548  20.558  0.00  0.00    +0.000 C 
ATOM     13  C   UNL     1      -3.406  13.838  21.044  0.00  0.00    +0.000 C 
BRANCH   8  19
ATOM     14  C   UNL     1      -5.522  15.167  23.474  0.00  0.00    +0.000 A 
ATOM     15  C   UNL     1      -6.828  15.221  23.979  0.00  0.00    +0.000 A 
ATOM     16  C   UNL     1      -7.683  14.121  23.930  0.00  0.00    +0.000 A 
ATOM     17  C   UNL     1      -7.218  12.942  23.364  0.00  0.00    +0.000 A 
ATOM     18  C   UNL     1      -5.915  12.863  22.882  0.00  0.00    +0.000 A 
ATOM     19  C   UNL     1      -5.003  13.957  22.937  0.00  0.00    +0.000 A 
BRANCH  14  21
ATOM     20  C   UNL     1      -4.416  16.697  24.902  0.00  0.00    +0.000 C 
ATOM     21  O   UNL     1      -4.670  16.244  23.575  0.00  0.00    +0.000 OA
ENDBRANCH  14  21
ENDBRANCH   8  19
ENDBRANCH   7  11
ENDBRANCH   1   7
BRANCH   3  22
ATOM     22  C   UNL     1       1.190   9.520  18.213  0.00  0.00    +0.000 C 
BRANCH  22  23
ATOM     23  C   UNL     1       2.286   8.445  18.021  0.00  0.00    +0.000 C 
BRANCH  23  24
ATOM     24  N   UNL     1       1.844   7.077  18.257  0.00  0.00    +0.000 N 
ATOM     25  H   UNL     1       1.651   6.906  19.249  0.00  0.00    +0.000 HD
BRANCH  24  26
ATOM     26  C   UNL     1       2.452   5.870  17.722  0.00  0.00    +0.000 A 
ATOM     27  C   UNL     1       1.794   4.783  18.278  0.00  0.00    +0.000 A 
ATOM     28  C   UNL     1       2.297   4.392  19.501  0.00  0.00    +0.000 A 
ATOM     29  N   UNL     1       3.511   4.761  19.968  0.00  0.00    +0.000 NA
ATOM     30  C   UNL     1       4.337   5.277  19.050  0.00  0.00    +0.000 A 
ATOM     31  C   UNL     1       5.697   5.122  19.229  0.00  0.00    +0.000 A 
ATOM     32  C   UNL     1       6.530   5.059  18.117  0.00  0.00    +0.000 A 
ATOM     33 CL   UNL     1       8.191   4.657  18.319  0.00  0.00    +0.000 Cl
ATOM     34  C   UNL     1       6.005   5.204  16.835  0.00  0.00    +0.000 A 
ATOM     35  C   UNL     1       4.666   5.570  16.678  0.00  0.00    +0.000 A 
ATOM     36  C   UNL     1       3.836   5.707  17.807  0.00  0.00    +0.000 A 
ENDBRANCH  24  26
ENDBRANCH  23  24
ENDBRANCH  22  23
ENDBRANCH   3  22
TORSDOF 8
ENDMDL
MODEL 8
REMARK VINA RESULT:      -7.0      4.019      5.612
REMARK  Name = 
REMARK  9 active torsions:
REMARK  status: ('A' for Active; 'I' for Inactive)
REMARK    1  A    between atoms: C_1  and  O_2
REMARK    2  A    between atoms: O_2  and  C_3
REMARK    3  A    between atoms: C_8  and  N_9
REMARK    4  A    between atoms: N_12  and  C_13
REMARK    5  A    between atoms: C_13  and  C_14
REMARK    6  A    between atoms: N_16  and  C_17
REMARK    7  A    between atoms: C_17  and  C_18
REMARK    8  A    between atoms: C_18  and  N_19
REMARK    9  A    between atoms: N_19  and  C_20
REMARK                            x       y       z     vdW  Elec       q    Type
REMARK                         _______ _______ _______ _____ _____    ______ ____
ROOT
ATOM      1  C   UNL     1       0.895  10.539  20.748  0.00  0.00    +0.000 C 
ATOM      2  C   UNL     1       1.352  10.271  19.310  0.00  0.00    +0.000 C 
ATOM      3  N   UNL     1       1.670   8.873  19.303  0.00  0.00    +0.000 N 
ATOM      4  C   UNL     1       1.449   8.317  20.538  0.00  0.00    +0.000 C 
ATOM      5  O   UNL     1       1.523   7.134  20.819  0.00  0.00    +0.000 OA
ATOM      6  O   UNL     1       1.110   9.289  21.431  0.00  0.00    +0.000 OA
ENDROOT
BRANCH   1   7
ATOM      7  C   UNL     1      -0.596  10.975  20.891  0.00  0.00    +0.000 C 
BRANCH   7  11
ATOM      8  N   UNL     1      -3.620  12.832  22.167  0.00  0.00    +0.000 N 
ATOM      9  C   UNL     1      -3.248  12.854  20.743  0.00  0.00    +0.000 C 
ATOM     10  C   UNL     1      -1.746  13.180  20.552  0.00  0.00    +0.000 C 
ATOM     11  N   UNL     1      -0.797  12.371  21.353  0.00  0.00    +0.000 NA
ATOM     12  C   UNL     1      -1.238  12.444  22.768  0.00  0.00    +0.000 C 
ATOM     13  C   UNL     1      -2.716  12.060  23.034  0.00  0.00    +0.000 C 
BRANCH   8  19
ATOM     14  C   UNL     1      -4.568  14.917  23.174  0.00  0.00    +0.000 A 
ATOM     15  C   UNL     1      -5.664  15.532  23.794  0.00  0.00    +0.000 A 
ATOM     16  C   UNL     1      -6.888  14.881  23.943  0.00  0.00    +0.000 A 
ATOM     17  C   UNL     1      -7.015  13.586  23.462  0.00  0.00    +0.000 A 
ATOM     18  C   UNL     1      -5.929  12.949  22.868  0.00  0.00    +0.000 A 
ATOM     19  C   UNL     1      -4.656  13.572  22.720  0.00  0.00    +0.000 A 
BRANCH  14  21
ATOM     20  C   UNL     1      -3.350  16.760  22.326  0.00  0.00    +0.000 C 
ATOM     21  O   UNL     1      -3.350  15.550  23.079  0.00  0.00    +0.000 OA
ENDBRANCH  14  21
ENDBRANCH   8  19
ENDBRANCH   7  11
ENDBRANCH   1   7
BRANCH   3  22
ATOM     22  C   UNL     1       1.860   8.078  18.095  0.00  0.00    +0.000 C 
BRANCH  22  23
ATOM     23  C   UNL     1       3.207   7.336  17.928  0.00  0.00    +0.000 C 
BRANCH  23  24
ATOM     24  N   UNL     1       3.270   6.034  18.578  0.00  0.00    +0.000 N 
ATOM     25  H   UNL     1       3.318   6.121  19.599  0.00  0.00    +0.000 HD
BRANCH  24  26
ATOM     26  C   UNL     1       4.126   4.921  18.201  0.00  0.00    +0.000 A 
ATOM     27  C   UNL     1       4.953   4.641  19.278  0.00  0.00    +0.000 A 
ATOM     28  C   UNL     1       6.104   5.401  19.311  0.00  0.00    +0.000 A 
ATOM     29  N   UNL     1       6.581   6.090  18.250  0.00  0.00    +0.000 NA
ATOM     30  C   UNL     1       6.050   5.749  17.070  0.00  0.00    +0.000 A 
ATOM     31  C   UNL     1       6.820   5.901  15.935  0.00  0.00    +0.000 A 
ATOM     32  C   UNL     1       6.615   5.054  14.850  0.00  0.00    +0.000 A 
ATOM     33 CL   UNL     1       7.705   5.096  13.519  0.00  0.00    +0.000 Cl
ATOM     34  C   UNL     1       5.607   4.094  14.889  0.00  0.00    +0.000 A 
ATOM     35  C   UNL     1       4.701   4.091  15.952  0.00  0.00    +0.000 A 
ATOM     36  C   UNL     1       4.861   4.997  17.017  0.00  0.00    +0.000 A 
ENDBRANCH  24  26
ENDBRANCH  23  24
ENDBRANCH  22  23
ENDBRANCH   3  22
TORSDOF 8
ENDMDL
MODEL 9
REMARK VINA RESULT:      -6.9      3.362      9.288
REMARK  Name = 
REMARK  9 active torsions:
REMARK  status: ('A' for Active; 'I' for Inactive)
REMARK    1  A    between atoms: C_1  and  O_2
REMARK    2  A    between atoms: O_2  and  C_3
REMARK    3  A    between atoms: C_8  and  N_9
REMARK    4  A    between atoms: N_12  and  C_13
REMARK    5  A    between atoms: C_13  and  C_14
REMARK    6  A    between atoms: N_16  and  C_17
REMARK    7  A    between atoms: C_17  and  C_18
REMARK    8  A    between atoms: C_18  and  N_19
REMARK    9  A    between atoms: N_19  and  C_20
REMARK                            x       y       z     vdW  Elec       q    Type
REMARK                         _______ _______ _______ _____ _____    ______ ____
ROOT
ATOM      1  C   UNL     1       4.031   5.814  18.602  0.00  0.00    +0.000 C 
ATOM      2  C   UNL     1       3.226   7.027  19.076  0.00  0.00    +0.000 C 
ATOM      3  N   UNL     1       2.195   6.459  19.897  0.00  0.00    +0.000 N 
ATOM      4  C   UNL     1       2.316   5.094  19.953  0.00  0.00    +0.000 C 
ATOM      5  O   UNL     1       1.660   4.341  20.652  0.00  0.00    +0.000 OA
ATOM      6  O   UNL     1       3.306   4.679  19.113  0.00  0.00    +0.000 OA
ENDROOT
BRANCH   1   7
ATOM      7  C   UNL     1       5.508   5.771  19.104  0.00  0.00    +0.000 C 
BRANCH   7  11
ATOM      8  N   UNL     1       5.947   4.621  15.539  0.00  0.00    +0.000 N 
ATOM      9  C   UNL     1       6.602   3.925  16.659  0.00  0.00    +0.000 C 
ATOM     10  C   UNL     1       7.327   4.917  17.601  0.00  0.00    +0.000 C 
ATOM     11  N   UNL     1       6.528   6.074  18.069  0.00  0.00    +0.000 NA
ATOM     12  C   UNL     1       5.945   6.724  16.869  0.00  0.00    +0.000 C 
ATOM     13  C   UNL     1       5.145   5.794  15.921  0.00  0.00    +0.000 C 
BRANCH   8  19
ATOM     14  C   UNL     1       7.209   4.796  13.386  0.00  0.00    +0.000 A 
ATOM     15  C   UNL     1       7.256   4.485  12.020  0.00  0.00    +0.000 A 
ATOM     16  C   UNL     1       6.307   3.659  11.419  0.00  0.00    +0.000 A 
ATOM     17  C   UNL     1       5.288   3.137  12.203  0.00  0.00    +0.000 A 
ATOM     18  C   UNL     1       5.210   3.457  13.555  0.00  0.00    +0.000 A 
ATOM     19  C   UNL     1       6.146   4.317  14.200  0.00  0.00    +0.000 A 
BRANCH  14  21
ATOM     20  C   UNL     1       9.162   6.099  13.093  0.00  0.00    +0.000 C 
ATOM     21  O   UNL     1       8.121   5.654  13.957  0.00  0.00    +0.000 OA
ENDBRANCH  14  21
ENDBRANCH   8  19
ENDBRANCH   7  11
ENDBRANCH   1   7
BRANCH   3  22
ATOM     22  C   UNL     1       1.361   7.223  20.817  0.00  0.00    +0.000 C 
BRANCH  22  23
ATOM     23  C   UNL     1       1.392   8.766  20.703  0.00  0.00    +0.000 C 
BRANCH  23  24
ATOM     24  N   UNL     1       0.170   9.362  20.181  0.00  0.00    +0.000 N 
ATOM     25  H   UNL     1      -0.630   8.727  20.268  0.00  0.00    +0.000 HD
BRANCH  24  26
ATOM     26  C   UNL     1       0.025  10.067  18.918  0.00  0.00    +0.000 A 
ATOM     27  C   UNL     1       0.795  11.218  18.985  0.00  0.00    +0.000 A 
ATOM     28  C   UNL     1       0.144  12.291  19.559  0.00  0.00    +0.000 A 
ATOM     29  N   UNL     1      -1.197  12.361  19.718  0.00  0.00    +0.000 NA
ATOM     30  C   UNL     1      -1.897  11.469  19.008  0.00  0.00    +0.000 A 
ATOM     31  C   UNL     1      -3.177  11.802  18.614  0.00  0.00    +0.000 A 
ATOM     32  C   UNL     1      -3.694  11.262  17.440  0.00  0.00    +0.000 A 
ATOM     33 CL   UNL     1      -5.199  11.831  16.832  0.00  0.00    +0.000 Cl
ATOM     34  C   UNL     1      -2.947  10.352  16.696  0.00  0.00    +0.000 A 
ATOM     35  C   UNL     1      -1.746   9.862  17.214  0.00  0.00    +0.000 A 
ATOM     36  C   UNL     1      -1.255  10.352  18.438  0.00  0.00    +0.000 A 
ENDBRANCH  24  26
ENDBRANCH  23  24
ENDBRANCH  22  23
ENDBRANCH   3  22
TORSDOF 8
ENDMDL
