MODEL 1
REMARK VINA RESULT:      -9.0      0.000      0.000
REMARK  Name = 
REMARK  6 active torsions:
REMARK  status: ('A' for Active; 'I' for Inactive)
REMARK    1  A    between atoms: C_2  and  C_17
REMARK    2  A    between atoms: N_3  and  C_4
REMARK    3  A    between atoms: C_7  and  C_8
REMARK    4  A    between atoms: N_20  and  C_21
REMARK    5  A    between atoms: C_25  and  O_26
REMARK    6  A    between atoms: O_26  and  C_27
REMARK                            x       y       z     vdW  Elec       q    Type
REMARK                         _______ _______ _______ _____ _____    ______ ____
ROOT
ATOM      1  O   UNL     1       8.013   8.786  16.860  0.00  0.00    +0.000 OA
ATOM      2  C   UNL     1       8.086   8.330  17.995  0.00  0.00    +0.000 C 
ATOM      3  N   UNL     1       8.782   8.895  19.045  0.00  0.00    +0.000 N 
ATOM      4  H   UNL     1       8.915   8.343  19.884  0.00  0.00    +0.000 HD
ENDROOT
BRANCH   3   5
ATOM      5  C   UNL     1       9.428  10.148  19.046  0.00  0.00    +0.000 A 
ATOM      6  C   UNL     1       9.948  10.748  17.904  0.00  0.00    +0.000 A 
ATOM      7  C   UNL     1      10.531  12.015  17.976  0.00  0.00    +0.000 A 
ATOM      8  C   UNL     1      10.635  12.707  19.194  0.00  0.00    +0.000 A 
ATOM      9  C   UNL     1      10.113  12.093  20.342  0.00  0.00    +0.000 A 
ATOM     10  C   UNL     1       9.512  10.834  20.258  0.00  0.00    +0.000 A 
ATOM     11  F   UNL     1       9.001  10.284  21.369  0.00  0.00    +0.000 F 
BRANCH   8  12
ATOM     12  C   UNL     1      11.185  14.131  19.217  0.00  0.00    +0.000 C 
ATOM     13  C   UNL     1      11.434  14.794  17.838  0.00  0.00    +0.000 C 
ATOM     14  N   UNL     1      10.180  15.133  17.135  0.00  0.00    +0.000 NA
ATOM     15  C   UNL     1       9.417  16.040  18.009  0.00  0.00    +0.000 C 
ATOM     16  C   UNL     1       9.188  15.458  19.412  0.00  0.00    +0.000 C 
ATOM     17  O   UNL     1      10.400  15.019  20.043  0.00  0.00    +0.000 OA
ATOM     18  H   UNL     1       9.638  14.275  17.018  0.00  0.00    +0.000 HD
ENDBRANCH   8  12
ENDBRANCH   3   5
BRANCH   2  19
ATOM     19  C   UNL     1       7.431   7.078  18.317  0.00  0.00    +0.000 A 
ATOM     20  C   UNL     1       7.959   6.032  19.101  0.00  0.00    +0.000 A 
ATOM     21  N   UNL     1       7.123   5.001  19.222  0.00  0.00    +0.000 NA
ATOM     22  N   UNL     1       6.041   5.351  18.484  0.00  0.00    +0.000 N 
ATOM     23  C   UNL     1       6.197   6.604  17.928  0.00  0.00    +0.000 A 
BRANCH  22  24
ATOM     24  C   UNL     1       4.933   4.473  18.343  0.00  0.00    +0.000 A 
ATOM     25  C   UNL     1       4.431   4.154  17.073  0.00  0.00    +0.000 A 
ATOM     26  C   UNL     1       3.340   3.298  16.953  0.00  0.00    +0.000 A 
ATOM     27  C   UNL     1       2.752   2.757  18.094  0.00  0.00    +0.000 A 
ATOM     28  C   UNL     1       3.254   3.051  19.363  0.00  0.00    +0.000 A 
ATOM     29  C   UNL     1       4.338   3.921  19.491  0.00  0.00    +0.000 A 
BRANCH  28  30
ATOM     30  O   UNL     1       2.583   2.457  20.394  0.00  0.00    +0.000 OA
BRANCH  30  31
ATOM     31  C   UNL     1       1.804   3.320  21.203  0.00  0.00    +0.000 C 
ATOM     32  F   UNL     1       0.815   3.858  20.448  0.00  0.00    +0.000 F 
ATOM     33  F   UNL     1       1.200   2.547  22.142  0.00  0.00    +0.000 F 
ENDBRANCH  30  31
ENDBRANCH  28  30
ENDBRANCH  22  24
ENDBRANCH   2  19
TORSDOF 6
ENDMDL
MODEL 2
REMARK VINA RESULT:      -8.6      8.135     10.798
REMARK  Name = 
REMARK  6 active torsions:
REMARK  status: ('A' for Active; 'I' for Inactive)
REMARK    1  A    between atoms: C_2  and  C_17
REMARK    2  A    between atoms: N_3  and  C_4
REMARK    3  A    between atoms: C_7  and  C_8
REMARK    4  A    between atoms: N_20  and  C_21
REMARK    5  A    between atoms: C_25  and  O_26
REMARK    6  A    between atoms: O_26  and  C_27
REMARK                            x       y       z     vdW  Elec       q    Type
REMARK                         _______ _______ _______ _____ _____    ______ ____
ROOT
ATOM      1  O   UNL     1       0.228   9.782  18.854  0.00  0.00    +0.000 OA
ATOM      2  C   UNL     1       0.553   9.463  19.991  0.00  0.00    +0.000 C 
ATOM      3  N   UNL     1       1.396   8.422  20.324  0.00  0.00    +0.000 N 
ATOM      4  H   UNL     1       1.454   8.144  21.297  0.00  0.00    +0.000 HD
ENDROOT
BRANCH   3   5
ATOM      5  C   UNL     1       2.131   7.618  19.429  0.00  0.00    +0.000 A 
ATOM      6  C   UNL     1       2.720   8.101  18.265  0.00  0.00    +0.000 A 
ATOM      7  C   UNL     1       3.476   7.253  17.453  0.00  0.00    +0.000 A 
ATOM      8  C   UNL     1       3.642   5.893  17.764  0.00  0.00    +0.000 A 
ATOM      9  C   UNL     1       3.040   5.413  18.937  0.00  0.00    +0.000 A 
ATOM     10  C   UNL     1       2.304   6.273  19.756  0.00  0.00    +0.000 A 
ATOM     11  F   UNL     1       1.760   5.789  20.883  0.00  0.00    +0.000 F 
BRANCH   8  12
ATOM     12  C   UNL     1       4.558   5.021  16.909  0.00  0.00    +0.000 C 
ATOM     13  C   UNL     1       5.387   5.754  15.823  0.00  0.00    +0.000 C 
ATOM     14  N   UNL     1       6.467   6.583  16.395  0.00  0.00    +0.000 NA
ATOM     15  C   UNL     1       7.333   5.692  17.186  0.00  0.00    +0.000 C 
ATOM     16  C   UNL     1       6.555   4.896  18.244  0.00  0.00    +0.000 C 
ATOM     17  O   UNL     1       5.432   4.187  17.700  0.00  0.00    +0.000 OA
ATOM     18  H   UNL     1       6.045   7.262  17.030  0.00  0.00    +0.000 HD
ENDBRANCH   8  12
ENDBRANCH   3   5
BRANCH   2  19
ATOM     19  C   UNL     1       0.016  10.184  21.129  0.00  0.00    +0.000 A 
ATOM     20  C   UNL     1       0.153   9.831  22.486  0.00  0.00    +0.000 A 
ATOM     21  N   UNL     1      -0.453  10.688  23.309  0.00  0.00    +0.000 NA
ATOM     22  N   UNL     1      -1.026  11.601  22.488  0.00  0.00    +0.000 N 
ATOM     23  C   UNL     1      -0.757  11.325  21.164  0.00  0.00    +0.000 A 
BRANCH  22  24
ATOM     24  C   UNL     1      -1.803  12.671  23.008  0.00  0.00    +0.000 A 
ATOM     25  C   UNL     1      -1.184  13.791  23.582  0.00  0.00    +0.000 A 
ATOM     26  C   UNL     1      -1.961  14.827  24.093  0.00  0.00    +0.000 A 
ATOM     27  C   UNL     1      -3.350  14.751  24.031  0.00  0.00    +0.000 A 
ATOM     28  C   UNL     1      -3.979  13.650  23.445  0.00  0.00    +0.000 A 
ATOM     29  C   UNL     1      -3.205  12.600  22.945  0.00  0.00    +0.000 A 
BRANCH  28  30
ATOM     30  O   UNL     1      -5.343  13.701  23.453  0.00  0.00    +0.000 OA
BRANCH  30  31
ATOM     31  C   UNL     1      -5.999  12.615  24.083  0.00  0.00    +0.000 C 
ATOM     32  F   UNL     1      -5.265  12.218  25.152  0.00  0.00    +0.000 F 
ATOM     33  F   UNL     1      -7.174  13.089  24.572  0.00  0.00    +0.000 F 
ENDBRANCH  30  31
ENDBRANCH  28  30
ENDBRANCH  22  24
ENDBRANCH   2  19
TORSDOF 6
ENDMDL
MODEL 3
REMARK VINA RESULT:      -8.5      8.161     10.249
REMARK  Name = 
REMARK  6 active torsions:
REMARK  status: ('A' for Active; 'I' for Inactive)
REMARK    1  A    between atoms: C_2  and  C_17
REMARK    2  A    between atoms: N_3  and  C_4
REMARK    3  A    between atoms: C_7  and  C_8
REMARK    4  A    between atoms: N_20  and  C_21
REMARK    5  A    between atoms: C_25  and  O_26
REMARK    6  A    between atoms: O_26  and  C_27
REMARK                            x       y       z     vdW  Elec       q    Type
REMARK                         _______ _______ _______ _____ _____    ______ ____
ROOT
ATOM      1  O   UNL     1       0.432   8.599  21.388  0.00  0.00    +0.000 OA
ATOM      2  C   UNL     1       0.642   9.227  20.358  0.00  0.00    +0.000 C 
ATOM      3  N   UNL     1       0.080  10.445  20.030  0.00  0.00    +0.000 N 
ATOM      4  H   UNL     1       0.190  10.785  19.082  0.00  0.00    +0.000 HD
ENDROOT
BRANCH   3   5
ATOM      5  C   UNL     1      -0.733  11.244  20.860  0.00  0.00    +0.000 A 
ATOM      6  C   UNL     1      -0.465  11.480  22.205  0.00  0.00    +0.000 A 
ATOM      7  C   UNL     1      -1.291  12.325  22.950  0.00  0.00    +0.000 A 
ATOM      8  C   UNL     1      -2.421  12.937  22.382  0.00  0.00    +0.000 A 
ATOM      9  C   UNL     1      -2.685  12.690  21.027  0.00  0.00    +0.000 A 
ATOM     10  C   UNL     1      -1.843  11.861  20.282  0.00  0.00    +0.000 A 
ATOM     11  F   UNL     1      -2.110  11.664  18.982  0.00  0.00    +0.000 F 
BRANCH   8  12
ATOM     12  C   UNL     1      -3.240  13.933  23.199  0.00  0.00    +0.000 C 
ATOM     13  C   UNL     1      -4.598  14.369  22.590  0.00  0.00    +0.000 C 
ATOM     14  N   UNL     1      -5.607  13.291  22.620  0.00  0.00    +0.000 NA
ATOM     15  C   UNL     1      -5.781  12.890  24.026  0.00  0.00    +0.000 C 
ATOM     16  C   UNL     1      -4.457  12.500  24.700  0.00  0.00    +0.000 C 
ATOM     17  O   UNL     1      -3.441  13.504  24.564  0.00  0.00    +0.000 OA
ATOM     18  H   UNL     1      -5.234  12.491  22.105  0.00  0.00    +0.000 HD
ENDBRANCH   8  12
ENDBRANCH   3   5
BRANCH   2  19
ATOM     19  C   UNL     1       1.523   8.684  19.343  0.00  0.00    +0.000 A 
ATOM     20  C   UNL     1       1.808   9.255  18.086  0.00  0.00    +0.000 A 
ATOM     21  N   UNL     1       2.657   8.523  17.364  0.00  0.00    +0.000 NA
ATOM     22  N   UNL     1       2.913   7.438  18.136  0.00  0.00    +0.000 N 
ATOM     23  C   UNL     1       2.244   7.510  19.340  0.00  0.00    +0.000 A 
BRANCH  22  24
ATOM     24  C   UNL     1       3.765   6.398  17.679  0.00  0.00    +0.000 A 
ATOM     25  C   UNL     1       3.717   5.125  18.266  0.00  0.00    +0.000 A 
ATOM     26  C   UNL     1       4.564   4.118  17.811  0.00  0.00    +0.000 A 
ATOM     27  C   UNL     1       5.456   4.376  16.773  0.00  0.00    +0.000 A 
ATOM     28  C   UNL     1       5.501   5.634  16.167  0.00  0.00    +0.000 A 
ATOM     29  C   UNL     1       4.665   6.652  16.629  0.00  0.00    +0.000 A 
BRANCH  28  30
ATOM     30  O   UNL     1       6.421   5.751  15.165  0.00  0.00    +0.000 OA
BRANCH  30  31
ATOM     31  C   UNL     1       6.576   4.616  14.331  0.00  0.00    +0.000 C 
ATOM     32  F   UNL     1       5.399   4.366  13.707  0.00  0.00    +0.000 F 
ATOM     33  F   UNL     1       7.466   4.954  13.362  0.00  0.00    +0.000 F 
ENDBRANCH  30  31
ENDBRANCH  28  30
ENDBRANCH  22  24
ENDBRANCH   2  19
TORSDOF 6
ENDMDL
MODEL 4
REMARK VINA RESULT:      -8.4      8.031     10.065
REMARK  Name = 
REMARK  6 active torsions:
REMARK  status: ('A' for Active; 'I' for Inactive)
REMARK    1  A    between atoms: C_2  and  C_17
REMARK    2  A    between atoms: N_3  and  C_4
REMARK    3  A    between atoms: C_7  and  C_8
REMARK    4  A    between atoms: N_20  and  C_21
REMARK    5  A    between atoms: C_25  and  O_26
REMARK    6  A    between atoms: O_26  and  C_27
REMARK                            x       y       z     vdW  Elec       q    Type
REMARK                         _______ _______ _______ _____ _____    ______ ____
ROOT
ATOM      1  O   UNL     1       1.057  11.555  19.006  0.00  0.00    +0.000 OA
ATOM      2  C   UNL     1       0.827  10.469  19.524  0.00  0.00    +0.000 C 
ATOM      3  N   UNL     1      -0.053  10.244  20.565  0.00  0.00    +0.000 N 
ATOM      4  H   UNL     1      -0.032   9.342  21.025  0.00  0.00    +0.000 HD
ENDROOT
BRANCH   3   5
ATOM      5  C   UNL     1      -0.933  11.186  21.137  0.00  0.00    +0.000 A 
ATOM      6  C   UNL     1      -1.763  12.017  20.392  0.00  0.00    +0.000 A 
ATOM      7  C   UNL     1      -2.645  12.891  21.033  0.00  0.00    +0.000 A 
ATOM      8  C   UNL     1      -2.704  12.978  22.434  0.00  0.00    +0.000 A 
ATOM      9  C   UNL     1      -1.859  12.139  23.177  0.00  0.00    +0.000 A 
ATOM     10  C   UNL     1      -0.996  11.253  22.529  0.00  0.00    +0.000 A 
ATOM     11  F   UNL     1      -0.218  10.448  23.268  0.00  0.00    +0.000 F 
BRANCH   8  12
ATOM     12  C   UNL     1      -3.750  13.869  23.099  0.00  0.00    +0.000 C 
ATOM     13  C   UNL     1      -5.164  13.860  22.463  0.00  0.00    +0.000 C 
ATOM     14  N   UNL     1      -5.884  12.592  22.693  0.00  0.00    +0.000 NA
ATOM     15  C   UNL     1      -5.977  12.397  24.150  0.00  0.00    +0.000 C 
ATOM     16  C   UNL     1      -4.608  12.451  24.844  0.00  0.00    +0.000 C 
ATOM     17  O   UNL     1      -3.861  13.633  24.520  0.00  0.00    +0.000 OA
ATOM     18  H   UNL     1      -5.322  11.832  22.305  0.00  0.00    +0.000 HD
ENDBRANCH   8  12
ENDBRANCH   3   5
BRANCH   2  19
ATOM     19  C   UNL     1       1.529   9.284  19.071  0.00  0.00    +0.000 A 
ATOM     20  C   UNL     1       2.001   9.036  17.766  0.00  0.00    +0.000 A 
ATOM     21  N   UNL     1       2.608   7.855  17.649  0.00  0.00    +0.000 NA
ATOM     22  N   UNL     1       2.510   7.298  18.881  0.00  0.00    +0.000 N 
ATOM     23  C   UNL     1       1.865   8.141  19.763  0.00  0.00    +0.000 A 
BRANCH  22  24
ATOM     24  C   UNL     1       3.022   5.999  19.143  0.00  0.00    +0.000 A 
ATOM     25  C   UNL     1       2.195   4.998  19.672  0.00  0.00    +0.000 A 
ATOM     26  C   UNL     1       2.715   3.733  19.929  0.00  0.00    +0.000 A 
ATOM     27  C   UNL     1       4.054   3.462  19.657  0.00  0.00    +0.000 A 
ATOM     28  C   UNL     1       4.884   4.445  19.112  0.00  0.00    +0.000 A 
ATOM     29  C   UNL     1       4.372   5.721  18.867  0.00  0.00    +0.000 A 
BRANCH  28  30
ATOM     30  O   UNL     1       6.173   4.049  18.899  0.00  0.00    +0.000 OA
BRANCH  30  31
ATOM     31  C   UNL     1       7.002   4.977  18.221  0.00  0.00    +0.000 C 
ATOM     32  F   UNL     1       7.771   5.624  19.130  0.00  0.00    +0.000 F 
ATOM     33  F   UNL     1       7.846   4.258  17.437  0.00  0.00    +0.000 F 
ENDBRANCH  30  31
ENDBRANCH  28  30
ENDBRANCH  22  24
ENDBRANCH   2  19
TORSDOF 6
ENDMDL
MODEL 5
REMARK VINA RESULT:      -8.3      7.955      9.451
REMARK  Name = 
REMARK  6 active torsions:
REMARK  status: ('A' for Active; 'I' for Inactive)
REMARK    1  A    between atoms: C_2  and  C_17
REMARK    2  A    between atoms: N_3  and  C_4
REMARK    3  A    between atoms: C_7  and  C_8
REMARK    4  A    between atoms: N_20  and  C_21
REMARK    5  A    between atoms: C_25  and  O_26
REMARK    6  A    between atoms: O_26  and  C_27
REMARK                            x       y       z     vdW  Elec       q    Type
REMARK                         _______ _______ _______ _____ _____    ______ ____
ROOT
ATOM      1  O   UNL     1      -0.354  10.404  18.808  0.00  0.00    +0.000 OA
ATOM      2  C   UNL     1       0.550   9.991  19.524  0.00  0.00    +0.000 C 
ATOM      3  N   UNL     1       0.854  10.459  20.787  0.00  0.00    +0.000 N 
ATOM      4  H   UNL     1       1.726  10.164  21.210  0.00  0.00    +0.000 HD
ENDROOT
BRANCH   3   5
ATOM      5  C   UNL     1       0.117  11.401  21.532  0.00  0.00    +0.000 A 
ATOM      6  C   UNL     1       0.202  12.775  21.336  0.00  0.00    +0.000 A 
ATOM      7  C   UNL     1      -0.599  13.644  22.081  0.00  0.00    +0.000 A 
ATOM      8  C   UNL     1      -1.487  13.168  23.060  0.00  0.00    +0.000 A 
ATOM      9  C   UNL     1      -1.563  11.781  23.254  0.00  0.00    +0.000 A 
ATOM     10  C   UNL     1      -0.775  10.917  22.490  0.00  0.00    +0.000 A 
ATOM     11  F   UNL     1      -0.888   9.594  22.683  0.00  0.00    +0.000 F 
BRANCH   8  12
ATOM     12  C   UNL     1      -2.419  14.139  23.782  0.00  0.00    +0.000 C 
ATOM     13  C   UNL     1      -2.813  15.420  23.003  0.00  0.00    +0.000 C 
ATOM     14  N   UNL     1      -3.730  15.145  21.879  0.00  0.00    +0.000 NA
ATOM     15  C   UNL     1      -4.929  14.497  22.440  0.00  0.00    +0.000 C 
ATOM     16  C   UNL     1      -4.595  13.249  23.270  0.00  0.00    +0.000 C 
ATOM     17  O   UNL     1      -3.612  13.497  24.285  0.00  0.00    +0.000 OA
ATOM     18  H   UNL     1      -3.274  14.481  21.251  0.00  0.00    +0.000 HD
ENDBRANCH   8  12
ENDBRANCH   3   5
BRANCH   2  19
ATOM     19  C   UNL     1       1.430   8.941  19.048  0.00  0.00    +0.000 A 
ATOM     20  C   UNL     1       2.098   8.903  17.808  0.00  0.00    +0.000 A 
ATOM     21  N   UNL     1       2.838   7.806  17.650  0.00  0.00    +0.000 NA
ATOM     22  N   UNL     1       2.635   7.092  18.783  0.00  0.00    +0.000 N 
ATOM     23  C   UNL     1       1.790   7.754  19.650  0.00  0.00    +0.000 A 
BRANCH  22  24
ATOM     24  C   UNL     1       3.243   5.822  18.970  0.00  0.00    +0.000 A 
ATOM     25  C   UNL     1       2.490   4.727  19.420  0.00  0.00    +0.000 A 
ATOM     26  C   UNL     1       3.104   3.492  19.605  0.00  0.00    +0.000 A 
ATOM     27  C   UNL     1       4.463   3.343  19.339  0.00  0.00    +0.000 A 
ATOM     28  C   UNL     1       5.220   4.420  18.872  0.00  0.00    +0.000 A 
ATOM     29  C   UNL     1       4.614   5.666  18.700  0.00  0.00    +0.000 A 
BRANCH  28  30
ATOM     30  O   UNL     1       6.538   4.138  18.655  0.00  0.00    +0.000 OA
BRANCH  30  31
ATOM     31  C   UNL     1       7.243   5.061  17.842  0.00  0.00    +0.000 C 
ATOM     32  F   UNL     1       8.145   5.722  18.608  0.00  0.00    +0.000 F 
ATOM     33  F   UNL     1       7.954   4.335  16.941  0.00  0.00    +0.000 F 
ENDBRANCH  30  31
ENDBRANCH  28  30
ENDBRANCH  22  24
ENDBRANCH   2  19
TORSDOF 6
ENDMDL
MODEL 6
REMARK VINA RESULT:      -8.3      8.070     10.966
REMARK  Name = 
REMARK  6 active torsions:
REMARK  status: ('A' for Active; 'I' for Inactive)
REMARK    1  A    between atoms: C_2  and  C_17
REMARK    2  A    between atoms: N_3  and  C_4
REMARK    3  A    between atoms: C_7  and  C_8
REMARK    4  A    between atoms: N_20  and  C_21
REMARK    5  A    between atoms: C_25  and  O_26
REMARK    6  A    between atoms: O_26  and  C_27
REMARK                            x       y       z     vdW  Elec       q    Type
REMARK                         _______ _______ _______ _____ _____    ______ ____
ROOT
ATOM      1  O   UNL     1       0.594  10.042  18.998  0.00  0.00    +0.000 OA
ATOM      2  C   UNL     1       0.710   9.524  20.102  0.00  0.00    +0.000 C 
ATOM      3  N   UNL     1       1.362   8.336  20.368  0.00  0.00    +0.000 N 
ATOM      4  H   UNL     1       1.245   7.920  21.284  0.00  0.00    +0.000 HD
ENDROOT
BRANCH   3   5
ATOM      5  C   UNL     1       2.113   7.568  19.455  0.00  0.00    +0.000 A 
ATOM      6  C   UNL     1       2.652   8.079  18.279  0.00  0.00    +0.000 A 
ATOM      7  C   UNL     1       3.428   7.267  17.448  0.00  0.00    +0.000 A 
ATOM      8  C   UNL     1       3.665   5.917  17.754  0.00  0.00    +0.000 A 
ATOM      9  C   UNL     1       3.114   5.409  18.939  0.00  0.00    +0.000 A 
ATOM     10  C   UNL     1       2.357   6.233  19.776  0.00  0.00    +0.000 A 
ATOM     11  F   UNL     1       1.864   5.723  20.915  0.00  0.00    +0.000 F 
BRANCH   8  12
ATOM     12  C   UNL     1       4.601   5.089  16.876  0.00  0.00    +0.000 C 
ATOM     13  C   UNL     1       5.473   5.879  15.867  0.00  0.00    +0.000 C 
ATOM     14  N   UNL     1       6.541   6.658  16.525  0.00  0.00    +0.000 NA
ATOM     15  C   UNL     1       7.371   5.709  17.287  0.00  0.00    +0.000 C 
ATOM     16  C   UNL     1       6.550   4.857  18.267  0.00  0.00    +0.000 C 
ATOM     17  O   UNL     1       5.440   4.197  17.642  0.00  0.00    +0.000 OA
ATOM     18  H   UNL     1       6.104   7.301  17.187  0.00  0.00    +0.000 HD
ENDBRANCH   8  12
ENDBRANCH   3   5
BRANCH   2  19
ATOM     19  C   UNL     1       0.109  10.148  21.264  0.00  0.00    +0.000 A 
ATOM     20  C   UNL     1       0.206   9.707  22.599  0.00  0.00    +0.000 A 
ATOM     21  N   UNL     1      -0.457  10.487  23.453  0.00  0.00    +0.000 NA
ATOM     22  N   UNL     1      -1.028  11.437  22.674  0.00  0.00    +0.000 N 
ATOM     23  C   UNL     1      -0.701  11.261  21.345  0.00  0.00    +0.000 A 
BRANCH  22  24
ATOM     24  C   UNL     1      -1.857  12.445  23.234  0.00  0.00    +0.000 A 
ATOM     25  C   UNL     1      -3.211  12.193  23.499  0.00  0.00    +0.000 A 
ATOM     26  C   UNL     1      -4.010  13.195  24.041  0.00  0.00    +0.000 A 
ATOM     27  C   UNL     1      -3.464  14.445  24.324  0.00  0.00    +0.000 A 
ATOM     28  C   UNL     1      -2.113  14.703  24.083  0.00  0.00    +0.000 A 
ATOM     29  C   UNL     1      -1.309  13.707  23.524  0.00  0.00    +0.000 A 
BRANCH  28  30
ATOM     30  O   UNL     1      -1.709  15.968  24.402  0.00  0.00    +0.000 OA
BRANCH  30  31
ATOM     31  C   UNL     1      -0.887  16.084  25.551  0.00  0.00    +0.000 C 
ATOM     32  F   UNL     1      -0.966  17.353  26.021  0.00  0.00    +0.000 F 
ATOM     33  F   UNL     1      -1.423  15.280  26.505  0.00  0.00    +0.000 F 
ENDBRANCH  30  31
ENDBRANCH  28  30
ENDBRANCH  22  24
ENDBRANCH   2  19
TORSDOF 6
ENDMDL
MODEL 7
REMARK VINA RESULT:      -8.3      7.896      9.863
REMARK  Name = 
REMARK  6 active torsions:
REMARK  status: ('A' for Active; 'I' for Inactive)
REMARK    1  A    between atoms: C_2  and  C_17
REMARK    2  A    between atoms: N_3  and  C_4
REMARK    3  A    between atoms: C_7  and  C_8
REMARK    4  A    between atoms: N_20  and  C_21
REMARK    5  A    between atoms: C_25  and  O_26
REMARK    6  A    between atoms: O_26  and  C_27
REMARK                            x       y       z     vdW  Elec       q    Type
REMARK                         _______ _______ _______ _____ _____    ______ ____
ROOT
ATOM      1  O   UNL     1       0.682   8.792  21.523  0.00  0.00    +0.000 OA
ATOM      2  C   UNL     1       0.705   9.324  20.420  0.00  0.00    +0.000 C 
ATOM      3  N   UNL     1      -0.034  10.428  20.044  0.00  0.00    +0.000 N 
ATOM      4  H   UNL     1      -0.065  10.672  19.061  0.00  0.00    +0.000 HD
ENDROOT
BRANCH   3   5
ATOM      5  C   UNL     1      -0.848  11.217  20.881  0.00  0.00    +0.000 A 
ATOM      6  C   UNL     1      -0.654  11.339  22.253  0.00  0.00    +0.000 A 
ATOM      7  C   UNL     1      -1.474  12.180  23.009  0.00  0.00    +0.000 A 
ATOM      8  C   UNL     1      -2.527  12.902  22.422  0.00  0.00    +0.000 A 
ATOM      9  C   UNL     1      -2.719  12.769  21.039  0.00  0.00    +0.000 A 
ATOM     10  C   UNL     1      -1.881  11.943  20.286  0.00  0.00    +0.000 A 
ATOM     11  F   UNL     1      -2.076  11.855  18.961  0.00  0.00    +0.000 F 
BRANCH   8  12
ATOM     12  C   UNL     1      -3.336  13.888  23.261  0.00  0.00    +0.000 C 
ATOM     13  C   UNL     1      -4.689  14.351  22.662  0.00  0.00    +0.000 C 
ATOM     14  N   UNL     1      -5.709  13.283  22.668  0.00  0.00    +0.000 NA
ATOM     15  C   UNL     1      -5.887  12.853  24.066  0.00  0.00    +0.000 C 
ATOM     16  C   UNL     1      -4.568  12.435  24.731  0.00  0.00    +0.000 C 
ATOM     17  O   UNL     1      -3.541  13.431  24.616  0.00  0.00    +0.000 OA
ATOM     18  H   UNL     1      -5.344  12.491  22.136  0.00  0.00    +0.000 HD
ENDBRANCH   8  12
ENDBRANCH   3   5
BRANCH   2  19
ATOM     19  C   UNL     1       1.537   8.776  19.367  0.00  0.00    +0.000 A 
ATOM     20  C   UNL     1       1.801   9.363  18.113  0.00  0.00    +0.000 A 
ATOM     21  N   UNL     1       2.603   8.621  17.350  0.00  0.00    +0.000 NA
ATOM     22  N   UNL     1       2.850   7.514  18.092  0.00  0.00    +0.000 N 
ATOM     23  C   UNL     1       2.222   7.580  19.318  0.00  0.00    +0.000 A 
BRANCH  22  24
ATOM     24  C   UNL     1       3.655   6.457  17.588  0.00  0.00    +0.000 A 
ATOM     25  C   UNL     1       4.770   6.729  16.783  0.00  0.00    +0.000 A 
ATOM     26  C   UNL     1       5.544   5.681  16.292  0.00  0.00    +0.000 A 
ATOM     27  C   UNL     1       5.211   4.365  16.604  0.00  0.00    +0.000 A 
ATOM     28  C   UNL     1       4.114   4.081  17.421  0.00  0.00    +0.000 A 
ATOM     29  C   UNL     1       3.325   5.127  17.903  0.00  0.00    +0.000 A 
BRANCH  28  30
ATOM     30  O   UNL     1       3.899   2.752  17.644  0.00  0.00    +0.000 OA
BRANCH  30  31
ATOM     31  C   UNL     1       3.453   2.407  18.945  0.00  0.00    +0.000 C 
ATOM     32  F   UNL     1       2.567   1.385  18.848  0.00  0.00    +0.000 F 
ATOM     33  F   UNL     1       4.529   1.927  19.620  0.00  0.00    +0.000 F 
ENDBRANCH  30  31
ENDBRANCH  28  30
ENDBRANCH  22  24
ENDBRANCH   2  19
TORSDOF 6
ENDMDL
MODEL 8
REMARK VINA RESULT:      -8.3      8.082      9.291
REMARK  Name = 
REMARK  6 active torsions:
REMARK  status: ('A' for Active; 'I' for Inactive)
REMARK    1  A    between atoms: C_2  and  C_17
REMARK    2  A    between atoms: N_3  and  C_4
REMARK    3  A    between atoms: C_7  and  C_8
REMARK    4  A    between atoms: N_20  and  C_21
REMARK    5  A    between atoms: C_25  and  O_26
REMARK    6  A    between atoms: O_26  and  C_27
REMARK                            x       y       z     vdW  Elec       q    Type
REMARK                         _______ _______ _______ _____ _____    ______ ____
ROOT
ATOM      1  O   UNL     1      -0.467  10.424  18.858  0.00  0.00    +0.000 OA
ATOM      2  C   UNL     1       0.491  10.058  19.528  0.00  0.00    +0.000 C 
ATOM      3  N   UNL     1       0.831  10.541  20.776  0.00  0.00    +0.000 N 
ATOM      4  H   UNL     1       1.735  10.292  21.157  0.00  0.00    +0.000 HD
ENDROOT
BRANCH   3   5
ATOM      5  C   UNL     1       0.082  11.445  21.558  0.00  0.00    +0.000 A 
ATOM      6  C   UNL     1      -0.857  11.051  22.505  0.00  0.00    +0.000 A 
ATOM      7  C   UNL     1      -1.523  12.006  23.277  0.00  0.00    +0.000 A 
ATOM      8  C   UNL     1      -1.291  13.380  23.107  0.00  0.00    +0.000 A 
ATOM      9  C   UNL     1      -0.345  13.769  22.147  0.00  0.00    +0.000 A 
ATOM     10  C   UNL     1       0.333  12.808  21.393  0.00  0.00    +0.000 A 
ATOM     11  F   UNL     1       1.249  13.211  20.499  0.00  0.00    +0.000 F 
BRANCH   8  12
ATOM     12  C   UNL     1      -1.961  14.388  24.038  0.00  0.00    +0.000 C 
ATOM     13  C   UNL     1      -2.083  15.839  23.506  0.00  0.00    +0.000 C 
ATOM     14  N   UNL     1      -3.072  15.965  22.417  0.00  0.00    +0.000 NA
ATOM     15  C   UNL     1      -4.367  15.503  22.944  0.00  0.00    +0.000 C 
ATOM     16  C   UNL     1      -4.295  14.088  23.537  0.00  0.00    +0.000 C 
ATOM     17  O   UNL     1      -3.251  13.940  24.510  0.00  0.00    +0.000 OA
ATOM     18  H   UNL     1      -2.795  15.338  21.660  0.00  0.00    +0.000 HD
ENDBRANCH   8  12
ENDBRANCH   3   5
BRANCH   2  19
ATOM     19  C   UNL     1       1.399   9.054  19.010  0.00  0.00    +0.000 A 
ATOM     20  C   UNL     1       2.122   9.120  17.801  0.00  0.00    +0.000 A 
ATOM     21  N   UNL     1       2.877   8.043  17.588  0.00  0.00    +0.000 NA
ATOM     22  N   UNL     1       2.630   7.238  18.650  0.00  0.00    +0.000 N 
ATOM     23  C   UNL     1       1.742   7.824  19.529  0.00  0.00    +0.000 A 
BRANCH  22  24
ATOM     24  C   UNL     1       3.239   5.960  18.761  0.00  0.00    +0.000 A 
ATOM     25  C   UNL     1       2.459   4.795  18.784  0.00  0.00    +0.000 A 
ATOM     26  C   UNL     1       3.073   3.551  18.900  0.00  0.00    +0.000 A 
ATOM     27  C   UNL     1       4.460   3.465  18.989  0.00  0.00    +0.000 A 
ATOM     28  C   UNL     1       5.250   4.616  18.948  0.00  0.00    +0.000 A 
ATOM     29  C   UNL     1       4.639   5.868  18.848  0.00  0.00    +0.000 A 
BRANCH  28  30
ATOM     30  O   UNL     1       6.593   4.390  19.049  0.00  0.00    +0.000 OA
BRANCH  30  31
ATOM     31  C   UNL     1       7.410   5.100  18.134  0.00  0.00    +0.000 C 
ATOM     32  F   UNL     1       8.204   5.953  18.825  0.00  0.00    +0.000 F 
ATOM     33  F   UNL     1       8.232   4.191  17.547  0.00  0.00    +0.000 F 
ENDBRANCH  30  31
ENDBRANCH  28  30
ENDBRANCH  22  24
ENDBRANCH   2  19
TORSDOF 6
ENDMDL
MODEL 9
REMARK VINA RESULT:      -8.2      7.996      9.904
REMARK  Name = 
REMARK  6 active torsions:
REMARK  status: ('A' for Active; 'I' for Inactive)
REMARK    1  A    between atoms: C_2  and  C_17
REMARK    2  A    between atoms: N_3  and  C_4
REMARK    3  A    between atoms: C_7  and  C_8
REMARK    4  A    between atoms: N_20  and  C_21
REMARK    5  A    between atoms: C_25  and  O_26
REMARK    6  A    between atoms: O_26  and  C_27
REMARK                            x       y       z     vdW  Elec       q    Type
REMARK                         _______ _______ _______ _____ _____    ______ ____
ROOT
ATOM      1  O   UNL     1       1.389  11.854  19.675  0.00  0.00    +0.000 OA
ATOM      2  C   UNL     1       0.869  10.747  19.735  0.00  0.00    +0.000 C 
ATOM      3  N   UNL     1      -0.299  10.443  20.406  0.00  0.00    +0.000 N 
ATOM      4  H   UNL     1      -0.540   9.467  20.532  0.00  0.00    +0.000 HD
ENDROOT
BRANCH   3   5
ATOM      5  C   UNL     1      -1.167  11.358  21.035  0.00  0.00    +0.000 A 
ATOM      6  C   UNL     1      -2.046  12.186  20.346  0.00  0.00    +0.000 A 
ATOM      7  C   UNL     1      -2.912  13.032  21.043  0.00  0.00    +0.000 A 
ATOM      8  C   UNL     1      -2.907  13.094  22.446  0.00  0.00    +0.000 A 
ATOM      9  C   UNL     1      -2.014  12.259  23.134  0.00  0.00    +0.000 A 
ATOM     10  C   UNL     1      -1.166  11.400  22.430  0.00  0.00    +0.000 A 
ATOM     11  F   UNL     1      -0.340  10.596  23.117  0.00  0.00    +0.000 F 
BRANCH   8  12
ATOM     12  C   UNL     1      -3.937  13.954  23.176  0.00  0.00    +0.000 C 
ATOM     13  C   UNL     1      -5.360  13.989  22.563  0.00  0.00    +0.000 C 
ATOM     14  N   UNL     1      -6.085  12.714  22.735  0.00  0.00    +0.000 NA
ATOM     15  C   UNL     1      -6.157  12.441  24.180  0.00  0.00    +0.000 C 
ATOM     16  C   UNL     1      -4.776  12.449  24.854  0.00  0.00    +0.000 C 
ATOM     17  O   UNL     1      -4.027  13.642  24.583  0.00  0.00    +0.000 OA
ATOM     18  H   UNL     1      -5.535  11.973  22.298  0.00  0.00    +0.000 HD
ENDBRANCH   8  12
ENDBRANCH   3   5
BRANCH   2  19
ATOM     19  C   UNL     1       1.500   9.612  19.092  0.00  0.00    +0.000 A 
ATOM     20  C   UNL     1       1.901   9.527  17.743  0.00  0.00    +0.000 A 
ATOM     21  N   UNL     1       2.454   8.352  17.439  0.00  0.00    +0.000 NA
ATOM     22  N   UNL     1       2.391   7.638  18.589  0.00  0.00    +0.000 N 
ATOM     23  C   UNL     1       1.822   8.375  19.607  0.00  0.00    +0.000 A 
BRANCH  22  24
ATOM     24  C   UNL     1       2.861   6.299  18.648  0.00  0.00    +0.000 A 
ATOM     25  C   UNL     1       3.607   5.755  17.592  0.00  0.00    +0.000 A 
ATOM     26  C   UNL     1       4.054   4.439  17.664  0.00  0.00    +0.000 A 
ATOM     27  C   UNL     1       3.764   3.666  18.785  0.00  0.00    +0.000 A 
ATOM     28  C   UNL     1       3.039   4.201  19.852  0.00  0.00    +0.000 A 
ATOM     29  C   UNL     1       2.574   5.516  19.779  0.00  0.00    +0.000 A 
BRANCH  28  30
ATOM     30  O   UNL     1       2.822   3.335  20.885  0.00  0.00    +0.000 OA
BRANCH  30  31
ATOM     31  C   UNL     1       1.568   2.675  20.886  0.00  0.00    +0.000 C 
ATOM     32  F   UNL     1       0.593   3.584  20.643  0.00  0.00    +0.000 F 
ATOM     33  F   UNL     1       1.570   1.815  19.835  0.00  0.00    +0.000 F 
ENDBRANCH  30  31
ENDBRANCH  28  30
ENDBRANCH  22  24
ENDBRANCH   2  19
TORSDOF 6
ENDMDL
