MODEL 1
REMARK VINA RESULT:      -8.9      0.000      0.000
REMARK  Name = 
REMARK  5 active torsions:
REMARK  status: ('A' for Active; 'I' for Inactive)
REMARK    1  A    between atoms: C_1  and  C_2
REMARK    2  A    between atoms: C_6  and  C_7
REMARK    3  A    between atoms: C_9  and  N_10
REMARK    4  A    between atoms: C_11  and  C_13
REMARK    5  A    between atoms: C_18  and  O_19
REMARK                            x       y       z     vdW  Elec       q    Type
REMARK                         _______ _______ _______ _____ _____    ______ ____
ROOT
ATOM      1  C   UNL     1       6.121   4.121  14.281  0.00  0.00    +0.000 A 
ATOM      2  C   UNL     1       5.399   3.816  15.380  0.00  0.00    +0.000 A 
ATOM      3  C   UNL     1       5.683   4.407  16.682  0.00  0.00    +0.000 A 
ATOM      4  C   UNL     1       6.661   5.326  16.751  0.00  0.00    +0.000 A 
ATOM      5  N   UNL     1       7.398   5.673  15.647  0.00  0.00    +0.000 N 
ATOM      6  C   UNL     1       7.233   5.120  14.401  0.00  0.00    +0.000 A 
ATOM      7  O   UNL     1       7.953   5.435  13.460  0.00  0.00    +0.000 OA
ATOM      8  H   UNL     1       8.146   6.349  15.736  0.00  0.00    +0.000 HD
ENDROOT
BRANCH   1  14
ATOM      9  C   UNL     1       3.106   3.553  10.338  0.00  0.00    +0.000 C 
ATOM     10  C   UNL     1       4.371   3.200  11.062  0.00  0.00    +0.000 A 
ATOM     11  C   UNL     1       5.281   2.284  10.521  0.00  0.00    +0.000 A 
ATOM     12  C   UNL     1       6.447   1.955  11.212  0.00  0.00    +0.000 A 
ATOM     13  C   UNL     1       6.723   2.544  12.448  0.00  0.00    +0.000 A 
ATOM     14  C   UNL     1       5.830   3.470  12.997  0.00  0.00    +0.000 A 
ATOM     15  C   UNL     1       4.654   3.789  12.303  0.00  0.00    +0.000 A 
ENDBRANCH   1  14
BRANCH   3  16
ATOM     16  N   UNL     1       4.936   3.962  17.755  0.00  0.00    +0.000 N 
ATOM     17  C   UNL     1       3.675   4.390  18.141  0.00  0.00    +0.000 C 
ATOM     18  O   UNL     1       3.007   5.226  17.535  0.00  0.00    +0.000 OA
ATOM     19  H   UNL     1       5.362   3.272  18.370  0.00  0.00    +0.000 HD
BRANCH  17  20
ATOM     20  C   UNL     1       3.084   3.789  19.383  0.00  0.00    +0.000 A 
ATOM     21  C   UNL     1       1.795   4.225  19.742  0.00  0.00    +0.000 A 
ATOM     22  C   UNL     1       1.148   3.722  20.871  0.00  0.00    +0.000 A 
ATOM     23  C   UNL     1       1.786   2.778  21.669  0.00  0.00    +0.000 A 
ATOM     24  C   UNL     1       3.069   2.338  21.337  0.00  0.00    +0.000 A 
ATOM     25  C   UNL     1       3.714   2.837  20.196  0.00  0.00    +0.000 A 
BRANCH  25  26
ATOM     26  O   UNL     1       4.966   2.370  19.892  0.00  0.00    +0.000 OA
ATOM     27  H   UNL     1       5.159   1.611  20.472  0.00  0.00    +0.000 HD
ENDBRANCH  25  26
ENDBRANCH  17  20
ENDBRANCH   3  16
TORSDOF 4
ENDMDL
MODEL 2
REMARK VINA RESULT:      -8.6      0.555      1.448
REMARK  Name = 
REMARK  5 active torsions:
REMARK  status: ('A' for Active; 'I' for Inactive)
REMARK    1  A    between atoms: C_1  and  C_2
REMARK    2  A    between atoms: C_6  and  C_7
REMARK    3  A    between atoms: C_9  and  N_10
REMARK    4  A    between atoms: C_11  and  C_13
REMARK    5  A    between atoms: C_18  and  O_19
REMARK                            x       y       z     vdW  Elec       q    Type
REMARK                         _______ _______ _______ _____ _____    ______ ____
ROOT
ATOM      1  C   UNL     1       6.007   4.296  14.456  0.00  0.00    +0.000 A 
ATOM      2  C   UNL     1       5.305   4.028  15.577  0.00  0.00    +0.000 A 
ATOM      3  C   UNL     1       5.676   4.580  16.874  0.00  0.00    +0.000 A 
ATOM      4  C   UNL     1       6.719   5.427  16.917  0.00  0.00    +0.000 A 
ATOM      5  N   UNL     1       7.440   5.736  15.790  0.00  0.00    +0.000 N 
ATOM      6  C   UNL     1       7.191   5.212  14.545  0.00  0.00    +0.000 A 
ATOM      7  O   UNL     1       7.898   5.488  13.582  0.00  0.00    +0.000 OA
ATOM      8  H   UNL     1       8.236   6.356  15.859  0.00  0.00    +0.000 HD
ENDROOT
BRANCH   1  14
ATOM      9  C   UNL     1       6.934   0.990  10.826  0.00  0.00    +0.000 C 
ATOM     10  C   UNL     1       6.063   2.062  11.409  0.00  0.00    +0.000 A 
ATOM     11  C   UNL     1       4.887   2.466  10.766  0.00  0.00    +0.000 A 
ATOM     12  C   UNL     1       4.093   3.474  11.313  0.00  0.00    +0.000 A 
ATOM     13  C   UNL     1       4.459   4.084  12.514  0.00  0.00    +0.000 A 
ATOM     14  C   UNL     1       5.625   3.684  13.176  0.00  0.00    +0.000 A 
ATOM     15  C   UNL     1       6.425   2.678  12.616  0.00  0.00    +0.000 A 
ENDBRANCH   1  14
BRANCH   3  16
ATOM     16  N   UNL     1       4.938   4.175  17.968  0.00  0.00    +0.000 N 
ATOM     17  C   UNL     1       3.622   3.741  17.985  0.00  0.00    +0.000 C 
ATOM     18  O   UNL     1       2.917   3.614  16.985  0.00  0.00    +0.000 OA
ATOM     19  H   UNL     1       5.382   4.237  18.882  0.00  0.00    +0.000 HD
BRANCH  17  20
ATOM     20  C   UNL     1       3.016   3.401  19.315  0.00  0.00    +0.000 A 
ATOM     21  C   UNL     1       1.727   3.907  19.568  0.00  0.00    +0.000 A 
ATOM     22  C   UNL     1       1.067   3.641  20.768  0.00  0.00    +0.000 A 
ATOM     23  C   UNL     1       1.691   2.869  21.743  0.00  0.00    +0.000 A 
ATOM     24  C   UNL     1       2.973   2.365  21.517  0.00  0.00    +0.000 A 
ATOM     25  C   UNL     1       3.631   2.625  20.307  0.00  0.00    +0.000 A 
BRANCH  25  26
ATOM     26  O   UNL     1       4.883   2.100  20.113  0.00  0.00    +0.000 OA
ATOM     27  H   UNL     1       4.789   1.250  19.645  0.00  0.00    +0.000 HD
ENDBRANCH  25  26
ENDBRANCH  17  20
ENDBRANCH   3  16
TORSDOF 4
ENDMDL
MODEL 3
REMARK VINA RESULT:      -8.6      0.727      1.586
REMARK  Name = 
REMARK  5 active torsions:
REMARK  status: ('A' for Active; 'I' for Inactive)
REMARK    1  A    between atoms: C_1  and  C_2
REMARK    2  A    between atoms: C_6  and  C_7
REMARK    3  A    between atoms: C_9  and  N_10
REMARK    4  A    between atoms: C_11  and  C_13
REMARK    5  A    between atoms: C_18  and  O_19
REMARK                            x       y       z     vdW  Elec       q    Type
REMARK                         _______ _______ _______ _____ _____    ______ ____
ROOT
ATOM      1  C   UNL     1       6.050   4.375  14.294  0.00  0.00    +0.000 A 
ATOM      2  C   UNL     1       5.165   4.246  15.306  0.00  0.00    +0.000 A 
ATOM      3  C   UNL     1       5.337   4.939  16.576  0.00  0.00    +0.000 A 
ATOM      4  C   UNL     1       6.386   5.771  16.698  0.00  0.00    +0.000 A 
ATOM      5  N   UNL     1       7.290   5.939  15.679  0.00  0.00    +0.000 N 
ATOM      6  C   UNL     1       7.231   5.280  14.476  0.00  0.00    +0.000 A 
ATOM      7  O   UNL     1       8.094   5.434  13.619  0.00  0.00    +0.000 OA
ATOM      8  H   UNL     1       8.083   6.553  15.810  0.00  0.00    +0.000 HD
ENDROOT
BRANCH   1  14
ATOM      9  C   UNL     1       3.145   3.131  10.424  0.00  0.00    +0.000 C 
ATOM     10  C   UNL     1       4.456   3.027  11.145  0.00  0.00    +0.000 A 
ATOM     11  C   UNL     1       5.502   2.250  10.632  0.00  0.00    +0.000 A 
ATOM     12  C   UNL     1       6.711   2.153  11.320  0.00  0.00    +0.000 A 
ATOM     13  C   UNL     1       6.893   2.836  12.524  0.00  0.00    +0.000 A 
ATOM     14  C   UNL     1       5.862   3.626  13.044  0.00  0.00    +0.000 A 
ATOM     15  C   UNL     1       4.645   3.712  12.353  0.00  0.00    +0.000 A 
ENDBRANCH   1  14
BRANCH   3  16
ATOM     16  N   UNL     1       4.418   4.672  17.572  0.00  0.00    +0.000 N 
ATOM     17  C   UNL     1       4.663   4.126  18.823  0.00  0.00    +0.000 C 
ATOM     18  O   UNL     1       5.779   3.831  19.249  0.00  0.00    +0.000 OA
ATOM     19  H   UNL     1       3.438   4.848  17.364  0.00  0.00    +0.000 HD
BRANCH  17  20
ATOM     20  C   UNL     1       3.485   3.879  19.718  0.00  0.00    +0.000 A 
ATOM     21  C   UNL     1       3.540   2.730  20.530  0.00  0.00    +0.000 A 
ATOM     22  C   UNL     1       2.504   2.412  21.408  0.00  0.00    +0.000 A 
ATOM     23  C   UNL     1       1.386   3.237  21.484  0.00  0.00    +0.000 A 
ATOM     24  C   UNL     1       1.306   4.378  20.683  0.00  0.00    +0.000 A 
ATOM     25  C   UNL     1       2.352   4.701  19.807  0.00  0.00    +0.000 A 
BRANCH  25  26
ATOM     26  O   UNL     1       2.247   5.837  19.047  0.00  0.00    +0.000 OA
ATOM     27  H   UNL     1       3.036   5.898  18.478  0.00  0.00    +0.000 HD
ENDBRANCH  25  26
ENDBRANCH  17  20
ENDBRANCH   3  16
TORSDOF 4
ENDMDL
MODEL 4
REMARK VINA RESULT:      -8.4      3.807      6.365
REMARK  Name = 
REMARK  5 active torsions:
REMARK  status: ('A' for Active; 'I' for Inactive)
REMARK    1  A    between atoms: C_1  and  C_2
REMARK    2  A    between atoms: C_6  and  C_7
REMARK    3  A    between atoms: C_9  and  N_10
REMARK    4  A    between atoms: C_11  and  C_13
REMARK    5  A    between atoms: C_18  and  O_19
REMARK                            x       y       z     vdW  Elec       q    Type
REMARK                         _______ _______ _______ _____ _____    ______ ____
ROOT
ATOM      1  C   UNL     1       4.054   4.293  19.158  0.00  0.00    +0.000 A 
ATOM      2  C   UNL     1       3.417   5.396  19.608  0.00  0.00    +0.000 A 
ATOM      3  C   UNL     1       2.313   5.319  20.556  0.00  0.00    +0.000 A 
ATOM      4  C   UNL     1       1.977   4.106  21.028  0.00  0.00    +0.000 A 
ATOM      5  N   UNL     1       2.620   2.969  20.606  0.00  0.00    +0.000 N 
ATOM      6  C   UNL     1       3.627   2.951  19.672  0.00  0.00    +0.000 A 
ATOM      7  O   UNL     1       4.134   1.899  19.299  0.00  0.00    +0.000 OA
ATOM      8  H   UNL     1       2.327   2.068  20.959  0.00  0.00    +0.000 HD
ENDROOT
BRANCH   1  14
ATOM      9  C   UNL     1       5.542   4.201  14.390  0.00  0.00    +0.000 C 
ATOM     10  C   UNL     1       5.864   4.383  15.843  0.00  0.00    +0.000 A 
ATOM     11  C   UNL     1       7.165   4.686  16.262  0.00  0.00    +0.000 A 
ATOM     12  C   UNL     1       7.452   4.839  17.618  0.00  0.00    +0.000 A 
ATOM     13  C   UNL     1       6.441   4.702  18.572  0.00  0.00    +0.000 A 
ATOM     14  C   UNL     1       5.134   4.411  18.169  0.00  0.00    +0.000 A 
ATOM     15  C   UNL     1       4.853   4.247  16.805  0.00  0.00    +0.000 A 
ENDBRANCH   1  14
BRANCH   3  16
ATOM     16  N   UNL     1       1.679   6.501  20.886  0.00  0.00    +0.000 N 
ATOM     17  C   UNL     1       1.717   7.701  20.192  0.00  0.00    +0.000 C 
ATOM     18  O   UNL     1       2.309   7.873  19.127  0.00  0.00    +0.000 OA
ATOM     19  H   UNL     1       1.156   6.525  21.758  0.00  0.00    +0.000 HD
BRANCH  17  20
ATOM     20  C   UNL     1       0.984   8.870  20.781  0.00  0.00    +0.000 A 
ATOM     21  C   UNL     1       0.706   8.810  22.159  0.00  0.00    +0.000 A 
ATOM     22  C   UNL     1       0.039   9.849  22.810  0.00  0.00    +0.000 A 
ATOM     23  C   UNL     1      -0.370  10.966  22.088  0.00  0.00    +0.000 A 
ATOM     24  C   UNL     1      -0.113  11.042  20.718  0.00  0.00    +0.000 A 
ATOM     25  C   UNL     1       0.565  10.002  20.067  0.00  0.00    +0.000 A 
BRANCH  25  26
ATOM     26  O   UNL     1       0.814  10.119  18.724  0.00  0.00    +0.000 OA
ATOM     27  H   UNL     1       0.074  10.604  18.317  0.00  0.00    +0.000 HD
ENDBRANCH  25  26
ENDBRANCH  17  20
ENDBRANCH   3  16
TORSDOF 4
ENDMDL
MODEL 5
REMARK VINA RESULT:      -8.3      0.999      1.037
REMARK  Name = 
REMARK  5 active torsions:
REMARK  status: ('A' for Active; 'I' for Inactive)
REMARK    1  A    between atoms: C_1  and  C_2
REMARK    2  A    between atoms: C_6  and  C_7
REMARK    3  A    between atoms: C_9  and  N_10
REMARK    4  A    between atoms: C_11  and  C_13
REMARK    5  A    between atoms: C_18  and  O_19
REMARK                            x       y       z     vdW  Elec       q    Type
REMARK                         _______ _______ _______ _____ _____    ______ ____
ROOT
ATOM      1  C   UNL     1       6.072   4.276  14.314  0.00  0.00    +0.000 A 
ATOM      2  C   UNL     1       5.316   4.073  15.414  0.00  0.00    +0.000 A 
ATOM      3  C   UNL     1       5.598   4.737  16.680  0.00  0.00    +0.000 A 
ATOM      4  C   UNL     1       6.611   5.620  16.712  0.00  0.00    +0.000 A 
ATOM      5  N   UNL     1       7.383   5.864  15.604  0.00  0.00    +0.000 N 
ATOM      6  C   UNL     1       7.220   5.237  14.393  0.00  0.00    +0.000 A 
ATOM      7  O   UNL     1       7.971   5.461  13.450  0.00  0.00    +0.000 OA
ATOM      8  H   UNL     1       8.155   6.515  15.665  0.00  0.00    +0.000 HD
ENDROOT
BRANCH   1  14
ATOM      9  C   UNL     1       3.084   3.527  10.380  0.00  0.00    +0.000 C 
ATOM     10  C   UNL     1       4.335   3.195  11.138  0.00  0.00    +0.000 A 
ATOM     11  C   UNL     1       5.231   2.229  10.664  0.00  0.00    +0.000 A 
ATOM     12  C   UNL     1       6.384   1.921  11.386  0.00  0.00    +0.000 A 
ATOM     13  C   UNL     1       6.659   2.579  12.587  0.00  0.00    +0.000 A 
ATOM     14  C   UNL     1       5.780   3.554  13.068  0.00  0.00    +0.000 A 
ATOM     15  C   UNL     1       4.618   3.852  12.344  0.00  0.00    +0.000 A 
ENDBRANCH   1  14
BRANCH   3  16
ATOM     16  N   UNL     1       4.813   4.393  17.763  0.00  0.00    +0.000 N 
ATOM     17  C   UNL     1       3.522   3.887  17.743  0.00  0.00    +0.000 C 
ATOM     18  O   UNL     1       2.890   3.628  16.720  0.00  0.00    +0.000 OA
ATOM     19  H   UNL     1       5.192   4.565  18.692  0.00  0.00    +0.000 HD
BRANCH  17  20
ATOM     20  C   UNL     1       2.850   3.638  19.061  0.00  0.00    +0.000 A 
ATOM     21  C   UNL     1       2.921   4.675  20.011  0.00  0.00    +0.000 A 
ATOM     22  C   UNL     1       2.320   4.553  21.264  0.00  0.00    +0.000 A 
ATOM     23  C   UNL     1       1.643   3.383  21.594  0.00  0.00    +0.000 A 
ATOM     24  C   UNL     1       1.567   2.338  20.671  0.00  0.00    +0.000 A 
ATOM     25  C   UNL     1       2.163   2.466  19.408  0.00  0.00    +0.000 A 
BRANCH  25  26
ATOM     26  O   UNL     1       2.055   1.426  18.522  0.00  0.00    +0.000 OA
ATOM     27  H   UNL     1       2.135   1.784  17.619  0.00  0.00    +0.000 HD
ENDBRANCH  25  26
ENDBRANCH  17  20
ENDBRANCH   3  16
TORSDOF 4
ENDMDL
MODEL 6
REMARK VINA RESULT:      -8.3      1.066      1.307
REMARK  Name = 
REMARK  5 active torsions:
REMARK  status: ('A' for Active; 'I' for Inactive)
REMARK    1  A    between atoms: C_1  and  C_2
REMARK    2  A    between atoms: C_6  and  C_7
REMARK    3  A    between atoms: C_9  and  N_10
REMARK    4  A    between atoms: C_11  and  C_13
REMARK    5  A    between atoms: C_18  and  O_19
REMARK                            x       y       z     vdW  Elec       q    Type
REMARK                         _______ _______ _______ _____ _____    ______ ____
ROOT
ATOM      1  C   UNL     1       6.119   4.204  14.208  0.00  0.00    +0.000 A 
ATOM      2  C   UNL     1       5.373   3.975  15.310  0.00  0.00    +0.000 A 
ATOM      3  C   UNL     1       5.667   4.610  16.589  0.00  0.00    +0.000 A 
ATOM      4  C   UNL     1       6.681   5.492  16.631  0.00  0.00    +0.000 A 
ATOM      5  N   UNL     1       7.443   5.761  15.522  0.00  0.00    +0.000 N 
ATOM      6  C   UNL     1       7.269   5.162  14.299  0.00  0.00    +0.000 A 
ATOM      7  O   UNL     1       8.011   5.408  13.354  0.00  0.00    +0.000 OA
ATOM      8  H   UNL     1       8.216   6.410  15.591  0.00  0.00    +0.000 HD
ENDROOT
BRANCH   1  14
ATOM      9  C   UNL     1       3.085   3.534  10.295  0.00  0.00    +0.000 C 
ATOM     10  C   UNL     1       4.347   3.191  11.029  0.00  0.00    +0.000 A 
ATOM     11  C   UNL     1       5.243   2.243  10.519  0.00  0.00    +0.000 A 
ATOM     12  C   UNL     1       6.407   1.924  11.219  0.00  0.00    +0.000 A 
ATOM     13  C   UNL     1       6.694   2.554  12.431  0.00  0.00    +0.000 A 
ATOM     14  C   UNL     1       5.815   3.511  12.949  0.00  0.00    +0.000 A 
ATOM     15  C   UNL     1       4.641   3.820  12.246  0.00  0.00    +0.000 A 
ENDBRANCH   1  14
BRANCH   3  16
ATOM     16  N   UNL     1       4.891   4.241  17.670  0.00  0.00    +0.000 N 
ATOM     17  C   UNL     1       3.697   4.811  18.086  0.00  0.00    +0.000 C 
ATOM     18  O   UNL     1       3.123   5.729  17.503  0.00  0.00    +0.000 OA
ATOM     19  H   UNL     1       5.243   3.497  18.268  0.00  0.00    +0.000 HD
BRANCH  17  20
ATOM     20  C   UNL     1       3.061   4.267  19.331  0.00  0.00    +0.000 A 
ATOM     21  C   UNL     1       2.910   2.869  19.403  0.00  0.00    +0.000 A 
ATOM     22  C   UNL     1       2.343   2.258  20.521  0.00  0.00    +0.000 A 
ATOM     23  C   UNL     1       1.906   3.038  21.587  0.00  0.00    +0.000 A 
ATOM     24  C   UNL     1       2.039   4.426  21.534  0.00  0.00    +0.000 A 
ATOM     25  C   UNL     1       2.618   5.039  20.414  0.00  0.00    +0.000 A 
BRANCH  25  26
ATOM     26  O   UNL     1       2.746   6.404  20.404  0.00  0.00    +0.000 OA
ATOM     27  H   UNL     1       2.316   6.758  21.203  0.00  0.00    +0.000 HD
ENDBRANCH  25  26
ENDBRANCH  17  20
ENDBRANCH   3  16
TORSDOF 4
ENDMDL
MODEL 7
REMARK VINA RESULT:      -8.1      3.993      6.374
REMARK  Name = 
REMARK  5 active torsions:
REMARK  status: ('A' for Active; 'I' for Inactive)
REMARK    1  A    between atoms: C_1  and  C_2
REMARK    2  A    between atoms: C_6  and  C_7
REMARK    3  A    between atoms: C_9  and  N_10
REMARK    4  A    between atoms: C_11  and  C_13
REMARK    5  A    between atoms: C_18  and  O_19
REMARK                            x       y       z     vdW  Elec       q    Type
REMARK                         _______ _______ _______ _____ _____    ______ ____
ROOT
ATOM      1  C   UNL     1       4.110   4.508  19.169  0.00  0.00    +0.000 A 
ATOM      2  C   UNL     1       3.457   5.638  19.513  0.00  0.00    +0.000 A 
ATOM      3  C   UNL     1       2.357   5.635  20.470  0.00  0.00    +0.000 A 
ATOM      4  C   UNL     1       2.043   4.469  21.059  0.00  0.00    +0.000 A 
ATOM      5  N   UNL     1       2.703   3.307  20.745  0.00  0.00    +0.000 N 
ATOM      6  C   UNL     1       3.707   3.215  19.813  0.00  0.00    +0.000 A 
ATOM      7  O   UNL     1       4.230   2.140  19.541  0.00  0.00    +0.000 OA
ATOM      8  H   UNL     1       2.427   2.439  21.186  0.00  0.00    +0.000 HD
ENDROOT
BRANCH   1  14
ATOM      9  C   UNL     1       5.540   4.255  14.389  0.00  0.00    +0.000 C 
ATOM     10  C   UNL     1       5.887   4.441  15.836  0.00  0.00    +0.000 A 
ATOM     11  C   UNL     1       7.209   4.672  16.238  0.00  0.00    +0.000 A 
ATOM     12  C   UNL     1       7.518   4.829  17.589  0.00  0.00    +0.000 A 
ATOM     13  C   UNL     1       6.511   4.766  18.554  0.00  0.00    +0.000 A 
ATOM     14  C   UNL     1       5.185   4.547  18.168  0.00  0.00    +0.000 A 
ATOM     15  C   UNL     1       4.881   4.379  16.810  0.00  0.00    +0.000 A 
ENDBRANCH   1  14
BRANCH   3  16
ATOM     16  N   UNL     1       1.705   6.833  20.687  0.00  0.00    +0.000 N 
ATOM     17  C   UNL     1       1.699   7.952  19.867  0.00  0.00    +0.000 C 
ATOM     18  O   UNL     1       2.262   8.019  18.775  0.00  0.00    +0.000 OA
ATOM     19  H   UNL     1       1.202   6.942  21.565  0.00  0.00    +0.000 HD
BRANCH  17  20
ATOM     20  C   UNL     1       0.954   9.163  20.345  0.00  0.00    +0.000 A 
ATOM     21  C   UNL     1       0.120   9.801  19.408  0.00  0.00    +0.000 A 
ATOM     22  C   UNL     1      -0.627  10.928  19.750  0.00  0.00    +0.000 A 
ATOM     23  C   UNL     1      -0.546  11.444  21.040  0.00  0.00    +0.000 A 
ATOM     24  C   UNL     1       0.281  10.833  21.984  0.00  0.00    +0.000 A 
ATOM     25  C   UNL     1       1.024   9.694  21.641  0.00  0.00    +0.000 A 
BRANCH  25  26
ATOM     26  O   UNL     1       1.814   9.111  22.598  0.00  0.00    +0.000 OA
ATOM     27  H   UNL     1       1.243   8.836  23.339  0.00  0.00    +0.000 HD
ENDBRANCH  25  26
ENDBRANCH  17  20
ENDBRANCH   3  16
TORSDOF 4
ENDMDL
MODEL 8
REMARK VINA RESULT:      -8.1      2.775      8.090
REMARK  Name = 
REMARK  5 active torsions:
REMARK  status: ('A' for Active; 'I' for Inactive)
REMARK    1  A    between atoms: C_1  and  C_2
REMARK    2  A    between atoms: C_6  and  C_7
REMARK    3  A    between atoms: C_9  and  N_10
REMARK    4  A    between atoms: C_11  and  C_13
REMARK    5  A    between atoms: C_18  and  O_19
REMARK                            x       y       z     vdW  Elec       q    Type
REMARK                         _______ _______ _______ _____ _____    ______ ____
ROOT
ATOM      1  C   UNL     1       2.773   5.428  19.075  0.00  0.00    +0.000 A 
ATOM      2  C   UNL     1       3.310   5.272  17.846  0.00  0.00    +0.000 A 
ATOM      3  C   UNL     1       3.917   4.017  17.421  0.00  0.00    +0.000 A 
ATOM      4  C   UNL     1       3.876   2.981  18.276  0.00  0.00    +0.000 A 
ATOM      5  N   UNL     1       3.318   3.103  19.523  0.00  0.00    +0.000 N 
ATOM      6  C   UNL     1       2.779   4.264  20.020  0.00  0.00    +0.000 A 
ATOM      7  O   UNL     1       2.336   4.326  21.162  0.00  0.00    +0.000 OA
ATOM      8  H   UNL     1       3.324   2.312  20.154  0.00  0.00    +0.000 HD
ENDROOT
BRANCH   1  14
ATOM      9  C   UNL     1       1.666  10.171  17.961  0.00  0.00    +0.000 C 
ATOM     10  C   UNL     1       1.651   9.033  18.937  0.00  0.00    +0.000 A 
ATOM     11  C   UNL     1       1.089   9.182  20.211  0.00  0.00    +0.000 A 
ATOM     12  C   UNL     1       1.094   8.119  21.114  0.00  0.00    +0.000 A 
ATOM     13  C   UNL     1       1.653   6.892  20.752  0.00  0.00    +0.000 A 
ATOM     14  C   UNL     1       2.208   6.723  19.480  0.00  0.00    +0.000 A 
ATOM     15  C   UNL     1       2.210   7.798  18.581  0.00  0.00    +0.000 A 
ENDBRANCH   1  14
BRANCH   3  16
ATOM     16  N   UNL     1       4.511   3.993  16.174  0.00  0.00    +0.000 N 
ATOM     17  C   UNL     1       5.853   4.168  15.874  0.00  0.00    +0.000 C 
ATOM     18  O   UNL     1       6.738   4.335  16.712  0.00  0.00    +0.000 OA
ATOM     19  H   UNL     1       3.902   3.879  15.367  0.00  0.00    +0.000 HD
BRANCH  17  20
ATOM     20  C   UNL     1       6.253   4.151  14.428  0.00  0.00    +0.000 A 
ATOM     21  C   UNL     1       5.493   3.330  13.574  0.00  0.00    +0.000 A 
ATOM     22  C   UNL     1       5.771   3.249  12.209  0.00  0.00    +0.000 A 
ATOM     23  C   UNL     1       6.824   3.985  11.675  0.00  0.00    +0.000 A 
ATOM     24  C   UNL     1       7.596   4.800  12.504  0.00  0.00    +0.000 A 
ATOM     25  C   UNL     1       7.310   4.887  13.874  0.00  0.00    +0.000 A 
BRANCH  25  26
ATOM     26  O   UNL     1       8.079   5.710  14.656  0.00  0.00    +0.000 OA
ATOM     27  H   UNL     1       7.759   6.624  14.546  0.00  0.00    +0.000 HD
ENDBRANCH  25  26
ENDBRANCH  17  20
ENDBRANCH   3  16
TORSDOF 4
ENDMDL
MODEL 9
REMARK VINA RESULT:      -8.1      2.932      8.277
REMARK  Name = 
REMARK  5 active torsions:
REMARK  status: ('A' for Active; 'I' for Inactive)
REMARK    1  A    between atoms: C_1  and  C_2
REMARK    2  A    between atoms: C_6  and  C_7
REMARK    3  A    between atoms: C_9  and  N_10
REMARK    4  A    between atoms: C_11  and  C_13
REMARK    5  A    between atoms: C_18  and  O_19
REMARK                            x       y       z     vdW  Elec       q    Type
REMARK                         _______ _______ _______ _____ _____    ______ ____
ROOT
ATOM      1  C   UNL     1       2.759   5.954  18.920  0.00  0.00    +0.000 A 
ATOM      2  C   UNL     1       3.295   5.694  17.708  0.00  0.00    +0.000 A 
ATOM      3  C   UNL     1       3.947   4.426  17.407  0.00  0.00    +0.000 A 
ATOM      4  C   UNL     1       3.949   3.480  18.362  0.00  0.00    +0.000 A 
ATOM      5  N   UNL     1       3.394   3.708  19.597  0.00  0.00    +0.000 N 
ATOM      6  C   UNL     1       2.815   4.894  19.978  0.00  0.00    +0.000 A 
ATOM      7  O   UNL     1       2.376   5.056  21.112  0.00  0.00    +0.000 OA
ATOM      8  H   UNL     1       3.433   2.987  20.305  0.00  0.00    +0.000 HD
ENDROOT
BRANCH   1  14
ATOM      9  C   UNL     1       0.645   9.109  22.167  0.00  0.00    +0.000 C 
ATOM     10  C   UNL     1       1.132   8.812  20.780  0.00  0.00    +0.000 A 
ATOM     11  C   UNL     1       1.034   9.767  19.761  0.00  0.00    +0.000 A 
ATOM     12  C   UNL     1       1.479   9.472  18.472  0.00  0.00    +0.000 A 
ATOM     13  C   UNL     1       2.034   8.223  18.187  0.00  0.00    +0.000 A 
ATOM     14  C   UNL     1       2.149   7.262  19.197  0.00  0.00    +0.000 A 
ATOM     15  C   UNL     1       1.691   7.560  20.488  0.00  0.00    +0.000 A 
ENDBRANCH   1  14
BRANCH   3  16
ATOM     16  N   UNL     1       4.533   4.296  16.163  0.00  0.00    +0.000 N 
ATOM     17  C   UNL     1       5.881   4.389  15.851  0.00  0.00    +0.000 C 
ATOM     18  O   UNL     1       6.777   4.565  16.676  0.00  0.00    +0.000 OA
ATOM     19  H   UNL     1       3.916   4.161  15.365  0.00  0.00    +0.000 HD
BRANCH  17  20
ATOM     20  C   UNL     1       6.274   4.263  14.409  0.00  0.00    +0.000 A 
ATOM     21  C   UNL     1       5.465   3.438  13.605  0.00  0.00    +0.000 A 
ATOM     22  C   UNL     1       5.733   3.261  12.247  0.00  0.00    +0.000 A 
ATOM     23  C   UNL     1       6.825   3.902  11.670  0.00  0.00    +0.000 A 
ATOM     24  C   UNL     1       7.646   4.719  12.450  0.00  0.00    +0.000 A 
ATOM     25  C   UNL     1       7.369   4.903  13.812  0.00  0.00    +0.000 A 
BRANCH  25  26
ATOM     26  O   UNL     1       8.188   5.725  14.544  0.00  0.00    +0.000 OA
ATOM     27  H   UNL     1       8.464   5.245  15.346  0.00  0.00    +0.000 HD
ENDBRANCH  25  26
ENDBRANCH  17  20
ENDBRANCH   3  16
TORSDOF 4
ENDMDL
