MODEL 1
REMARK VINA RESULT:      -7.8      0.000      0.000
REMARK  Name = 
REMARK  4 active torsions:
REMARK  status: ('A' for Active; 'I' for Inactive)
REMARK    1  A    between atoms: C_2  and  C_3
REMARK    2  A    between atoms: C_12  and  O_13
REMARK    3  A    between atoms: C_18  and  N_19
REMARK    4  A    between atoms: C_24  and  O_25
REMARK                            x       y       z     vdW  Elec       q    Type
REMARK                         _______ _______ _______ _____ _____    ______ ____
ROOT
ATOM      1  C   UNL     1      -0.043  10.223  21.811  0.00  0.00    +0.000 A 
ATOM      2  C   UNL     1      -0.038   8.889  22.205  0.00  0.00    +0.000 A 
ATOM      3  C   UNL     1       0.686   7.968  21.475  0.00  0.00    +0.000 A 
ATOM      4  C   UNL     1       1.422   8.375  20.366  0.00  0.00    +0.000 A 
ATOM      5  N   UNL     1       2.132   7.445  19.645  0.00  0.00    +0.000 N 
ATOM      6  C   UNL     1       2.896   7.778  18.441  0.00  0.00    +0.000 C 
ATOM      7  C   UNL     1       3.220   6.387  17.874  0.00  0.00    +0.000 C 
ATOM      8  C   UNL     1       4.429   6.230  16.964  0.00  0.00    +0.000 C 
ATOM      9  C   UNL     1       4.623   4.738  16.622  0.00  0.00    +0.000 C 
ATOM     10  C   UNL     1       4.667   3.821  17.858  0.00  0.00    +0.000 C 
ATOM     11  C   UNL     1       3.504   4.079  18.828  0.00  0.00    +0.000 C 
ATOM     12  C   UNL     1       3.419   5.565  19.147  0.00  0.00    +0.000 C 
ATOM     13  C   UNL     1       2.255   6.030  20.007  0.00  0.00    +0.000 C 
ATOM     14  N   UNL     1       1.429   9.686  19.996  0.00  0.00    +0.000 NA
ATOM     15  C   UNL     1       0.696  10.619  20.684  0.00  0.00    +0.000 A 
ENDROOT
BRANCH  15  16
ATOM     16  N   UNL     1       0.738  11.922  20.233  0.00  0.00    +0.000 N 
ATOM     17  C   UNL     1      -0.439  12.778  20.031  0.00  0.00    +0.000 C 
ATOM     18  C   UNL     1       0.073  13.890  19.126  0.00  0.00    +0.000 C 
ATOM     19  C   UNL     1      -0.645  15.226  19.227  0.00  0.00    +0.000 C 
ATOM     20  C   UNL     1       0.085  16.263  18.364  0.00  0.00    +0.000 C 
ATOM     21  C   UNL     1       1.592  16.342  18.663  0.00  0.00    +0.000 C 
ATOM     22  C   UNL     1       2.281  14.960  18.662  0.00  0.00    +0.000 C 
ATOM     23  C   UNL     1       1.528  14.005  19.578  0.00  0.00    +0.000 C 
ATOM     24  C   UNL     1       1.941  12.528  19.646  0.00  0.00    +0.000 C 
BRANCH  21  25
ATOM     25  O   UNL     1       1.802  16.987  19.918  0.00  0.00    +0.000 OA
ATOM     26  H   UNL     1       1.906  16.315  20.610  0.00  0.00    +0.000 HD
ENDBRANCH  21  25
ENDBRANCH  15  16
BRANCH   1  28
ATOM     27  N   UNL     1      -1.372  11.852  23.324  0.00  0.00    +0.000 NA
ATOM     28  C   UNL     1      -0.800  11.114  22.637  0.00  0.00    +0.000 C 
ENDBRANCH   1  28
BRANCH  10  29
ATOM     29  O   UNL     1       5.908   3.983  18.542  0.00  0.00    +0.000 OA
ATOM     30  H   UNL     1       6.636   3.899  17.903  0.00  0.00    +0.000 HD
ENDBRANCH  10  29
TORSDOF 4
ENDMDL
MODEL 2
REMARK VINA RESULT:      -7.8      2.726      4.275
REMARK  Name = 
REMARK  4 active torsions:
REMARK  status: ('A' for Active; 'I' for Inactive)
REMARK    1  A    between atoms: C_2  and  C_3
REMARK    2  A    between atoms: C_12  and  O_13
REMARK    3  A    between atoms: C_18  and  N_19
REMARK    4  A    between atoms: C_24  and  O_25
REMARK                            x       y       z     vdW  Elec       q    Type
REMARK                         _______ _______ _______ _____ _____    ______ ____
ROOT
ATOM      1  C   UNL     1       1.337  11.080  18.722  0.00  0.00    +0.000 A 
ATOM      2  C   UNL     1       2.289  10.390  17.978  0.00  0.00    +0.000 A 
ATOM      3  C   UNL     1       2.516   9.053  18.238  0.00  0.00    +0.000 A 
ATOM      4  C   UNL     1       1.783   8.397  19.223  0.00  0.00    +0.000 A 
ATOM      5  N   UNL     1       2.026   7.068  19.475  0.00  0.00    +0.000 N 
ATOM      6  C   UNL     1       1.333   6.312  20.521  0.00  0.00    +0.000 C 
ATOM      7  C   UNL     1       2.167   5.022  20.587  0.00  0.00    +0.000 C 
ATOM      8  C   UNL     1       1.515   3.756  21.122  0.00  0.00    +0.000 C 
ATOM      9  C   UNL     1       2.497   2.575  20.979  0.00  0.00    +0.000 C 
ATOM     10  C   UNL     1       3.068   2.414  19.559  0.00  0.00    +0.000 C 
ATOM     11  C   UNL     1       3.610   3.732  18.986  0.00  0.00    +0.000 C 
ATOM     12  C   UNL     1       2.561   4.825  19.125  0.00  0.00    +0.000 C 
ATOM     13  C   UNL     1       2.959   6.233  18.713  0.00  0.00    +0.000 C 
ATOM     14  N   UNL     1       0.839   9.073  19.935  0.00  0.00    +0.000 NA
ATOM     15  C   UNL     1       0.611  10.408  19.719  0.00  0.00    +0.000 A 
ENDROOT
BRANCH  15  16
ATOM     16  N   UNL     1      -0.346  11.026  20.496  0.00  0.00    +0.000 N 
ATOM     17  C   UNL     1      -1.631  11.535  19.998  0.00  0.00    +0.000 C 
ATOM     18  C   UNL     1      -2.088  12.493  21.088  0.00  0.00    +0.000 C 
ATOM     19  C   UNL     1      -3.589  12.700  21.218  0.00  0.00    +0.000 C 
ATOM     20  C   UNL     1      -3.878  13.572  22.446  0.00  0.00    +0.000 C 
ATOM     21  C   UNL     1      -3.209  13.049  23.728  0.00  0.00    +0.000 C 
ATOM     22  C   UNL     1      -1.707  12.742  23.543  0.00  0.00    +0.000 C 
ATOM     23  C   UNL     1      -1.507  11.834  22.337  0.00  0.00    +0.000 C 
ATOM     24  C   UNL     1      -0.087  11.491  21.866  0.00  0.00    +0.000 C 
BRANCH  21  25
ATOM     25  O   UNL     1      -3.889  11.880  24.185  0.00  0.00    +0.000 OA
ATOM     26  H   UNL     1      -3.896  11.872  25.155  0.00  0.00    +0.000 HD
ENDBRANCH  21  25
ENDBRANCH  15  16
BRANCH   1  28
ATOM     27  N   UNL     1       1.007  13.580  18.130  0.00  0.00    +0.000 NA
ATOM     28  C   UNL     1       1.149  12.454  18.370  0.00  0.00    +0.000 C 
ENDBRANCH   1  28
BRANCH  10  29
ATOM     29  O   UNL     1       2.069   1.887  18.688  0.00  0.00    +0.000 OA
ATOM     30  H   UNL     1       2.372   1.971  17.769  0.00  0.00    +0.000 HD
ENDBRANCH  10  29
TORSDOF 4
ENDMDL
MODEL 3
REMARK VINA RESULT:      -7.7      2.201      8.856
REMARK  Name = 
REMARK  4 active torsions:
REMARK  status: ('A' for Active; 'I' for Inactive)
REMARK    1  A    between atoms: C_2  and  C_3
REMARK    2  A    between atoms: C_12  and  O_13
REMARK    3  A    between atoms: C_18  and  N_19
REMARK    4  A    between atoms: C_24  and  O_25
REMARK                            x       y       z     vdW  Elec       q    Type
REMARK                         _______ _______ _______ _____ _____    ______ ____
ROOT
ATOM      1  C   UNL     1       2.400   5.294  20.290  0.00  0.00    +0.000 A 
ATOM      2  C   UNL     1       1.464   5.780  21.196  0.00  0.00    +0.000 A 
ATOM      3  C   UNL     1       1.041   7.091  21.097  0.00  0.00    +0.000 A 
ATOM      4  C   UNL     1       1.532   7.911  20.086  0.00  0.00    +0.000 A 
ATOM      5  N   UNL     1       1.107   9.216  20.004  0.00  0.00    +0.000 N 
ATOM      6  C   UNL     1       1.605  10.159  19.001  0.00  0.00    +0.000 C 
ATOM      7  C   UNL     1       1.068  11.499  19.530  0.00  0.00    +0.000 C 
ATOM      8  C   UNL     1       0.872  12.647  18.551  0.00  0.00    +0.000 C 
ATOM      9  C   UNL     1       0.215  13.837  19.281  0.00  0.00    +0.000 C 
ATOM     10  C   UNL     1      -1.066  13.461  20.046  0.00  0.00    +0.000 C 
ATOM     11  C   UNL     1      -0.884  12.224  20.937  0.00  0.00    +0.000 C 
ATOM     12  C   UNL     1      -0.278  11.088  20.124  0.00  0.00    +0.000 C 
ATOM     13  C   UNL     1       0.082   9.811  20.866  0.00  0.00    +0.000 C 
ATOM     14  N   UNL     1       2.435   7.423  19.189  0.00  0.00    +0.000 NA
ATOM     15  C   UNL     1       2.896   6.135  19.280  0.00  0.00    +0.000 A 
ENDROOT
BRANCH  15  16
ATOM     16  N   UNL     1       3.825   5.722  18.348  0.00  0.00    +0.000 N 
ATOM     17  C   UNL     1       3.500   5.157  17.032  0.00  0.00    +0.000 C 
ATOM     18  C   UNL     1       4.786   4.464  16.608  0.00  0.00    +0.000 C 
ATOM     19  C   UNL     1       5.020   4.332  15.110  0.00  0.00    +0.000 C 
ATOM     20  C   UNL     1       6.416   3.748  14.863  0.00  0.00    +0.000 C 
ATOM     21  C   UNL     1       7.528   4.511  15.601  0.00  0.00    +0.000 C 
ATOM     22  C   UNL     1       7.220   4.728  17.098  0.00  0.00    +0.000 C 
ATOM     23  C   UNL     1       5.842   5.355  17.259  0.00  0.00    +0.000 C 
ATOM     24  C   UNL     1       5.251   5.550  18.661  0.00  0.00    +0.000 C 
BRANCH  21  25
ATOM     25  O   UNL     1       7.755   5.769  14.965  0.00  0.00    +0.000 OA
ATOM     26  H   UNL     1       8.462   6.241  15.432  0.00  0.00    +0.000 HD
ENDBRANCH  21  25
ENDBRANCH  15  16
BRANCH   1  28
ATOM     27  N   UNL     1       3.077   2.805  20.536  0.00  0.00    +0.000 NA
ATOM     28  C   UNL     1       2.765   3.919  20.451  0.00  0.00    +0.000 C 
ENDBRANCH   1  28
BRANCH  10  29
ATOM     29  O   UNL     1      -2.135  13.239  19.128  0.00  0.00    +0.000 OA
ATOM     30  H   UNL     1      -2.814  12.692  19.558  0.00  0.00    +0.000 HD
ENDBRANCH  10  29
TORSDOF 4
ENDMDL
MODEL 4
REMARK VINA RESULT:      -7.4      0.814      1.181
REMARK  Name = 
REMARK  4 active torsions:
REMARK  status: ('A' for Active; 'I' for Inactive)
REMARK    1  A    between atoms: C_2  and  C_3
REMARK    2  A    between atoms: C_12  and  O_13
REMARK    3  A    between atoms: C_18  and  N_19
REMARK    4  A    between atoms: C_24  and  O_25
REMARK                            x       y       z     vdW  Elec       q    Type
REMARK                         _______ _______ _______ _____ _____    ______ ____
ROOT
ATOM      1  C   UNL     1      -0.142  10.160  21.780  0.00  0.00    +0.000 A 
ATOM      2  C   UNL     1      -0.205   8.800  22.063  0.00  0.00    +0.000 A 
ATOM      3  C   UNL     1       0.558   7.916  21.327  0.00  0.00    +0.000 A 
ATOM      4  C   UNL     1       1.399   8.386  20.322  0.00  0.00    +0.000 A 
ATOM      5  N   UNL     1       2.147   7.493  19.592  0.00  0.00    +0.000 N 
ATOM      6  C   UNL     1       3.023   7.896  18.490  0.00  0.00    +0.000 C 
ATOM      7  C   UNL     1       3.362   6.544  17.841  0.00  0.00    +0.000 C 
ATOM      8  C   UNL     1       4.642   6.421  17.030  0.00  0.00    +0.000 C 
ATOM      9  C   UNL     1       4.829   4.956  16.585  0.00  0.00    +0.000 C 
ATOM     10  C   UNL     1       4.740   3.943  17.741  0.00  0.00    +0.000 C 
ATOM     11  C   UNL     1       3.503   4.161  18.625  0.00  0.00    +0.000 C 
ATOM     12  C   UNL     1       3.426   5.619  19.055  0.00  0.00    +0.000 C 
ATOM     13  C   UNL     1       2.202   6.051  19.847  0.00  0.00    +0.000 C 
ATOM     14  N   UNL     1       1.471   9.721  20.061  0.00  0.00    +0.000 NA
ATOM     15  C   UNL     1       0.703  10.620  20.757  0.00  0.00    +0.000 A 
ENDROOT
BRANCH  15  16
ATOM     16  N   UNL     1       0.817  11.952  20.419  0.00  0.00    +0.000 N 
ATOM     17  C   UNL     1       1.553  12.956  21.199  0.00  0.00    +0.000 C 
ATOM     18  C   UNL     1       1.008  14.282  20.689  0.00  0.00    +0.000 C 
ATOM     19  C   UNL     1       1.940  15.480  20.794  0.00  0.00    +0.000 C 
ATOM     20  C   UNL     1       1.293  16.689  20.108  0.00  0.00    +0.000 C 
ATOM     21  C   UNL     1       0.823  16.389  18.675  0.00  0.00    +0.000 C 
ATOM     22  C   UNL     1      -0.032  15.108  18.575  0.00  0.00    +0.000 C 
ATOM     23  C   UNL     1       0.697  13.945  19.232  0.00  0.00    +0.000 C 
ATOM     24  C   UNL     1      -0.005  12.588  19.379  0.00  0.00    +0.000 C 
BRANCH  21  25
ATOM     25  O   UNL     1       1.953  16.286  17.808  0.00  0.00    +0.000 OA
ATOM     26  H   UNL     1       1.800  15.575  17.166  0.00  0.00    +0.000 HD
ENDBRANCH  21  25
ENDBRANCH  15  16
BRANCH   1  28
ATOM     27  N   UNL     1      -1.633  11.691  23.244  0.00  0.00    +0.000 NA
ATOM     28  C   UNL     1      -0.947  11.006  22.607  0.00  0.00    +0.000 C 
ENDBRANCH   1  28
BRANCH  10  29
ATOM     29  O   UNL     1       5.920   4.011  18.541  0.00  0.00    +0.000 OA
ATOM     30  H   UNL     1       6.352   3.140  18.544  0.00  0.00    +0.000 HD
ENDBRANCH  10  29
TORSDOF 4
ENDMDL
MODEL 5
REMARK VINA RESULT:      -7.4      2.229      8.883
REMARK  Name = 
REMARK  4 active torsions:
REMARK  status: ('A' for Active; 'I' for Inactive)
REMARK    1  A    between atoms: C_2  and  C_3
REMARK    2  A    between atoms: C_12  and  O_13
REMARK    3  A    between atoms: C_18  and  N_19
REMARK    4  A    between atoms: C_24  and  O_25
REMARK                            x       y       z     vdW  Elec       q    Type
REMARK                         _______ _______ _______ _____ _____    ______ ____
ROOT
ATOM      1  C   UNL     1       2.463   5.331  20.230  0.00  0.00    +0.000 A 
ATOM      2  C   UNL     1       1.495   5.762  21.132  0.00  0.00    +0.000 A 
ATOM      3  C   UNL     1       1.030   7.060  21.060  0.00  0.00    +0.000 A 
ATOM      4  C   UNL     1       1.512   7.923  20.080  0.00  0.00    +0.000 A 
ATOM      5  N   UNL     1       1.045   9.215  20.025  0.00  0.00    +0.000 N 
ATOM      6  C   UNL     1       1.529  10.201  19.056  0.00  0.00    +0.000 C 
ATOM      7  C   UNL     1       0.939  11.508  19.610  0.00  0.00    +0.000 C 
ATOM      8  C   UNL     1       0.722  12.675  18.659  0.00  0.00    +0.000 C 
ATOM      9  C   UNL     1       0.014  13.822  19.408  0.00  0.00    +0.000 C 
ATOM     10  C   UNL     1      -1.268  13.385  20.139  0.00  0.00    +0.000 C 
ATOM     11  C   UNL     1      -1.060  12.130  21.000  0.00  0.00    +0.000 C 
ATOM     12  C   UNL     1      -0.403  11.037  20.169  0.00  0.00    +0.000 C 
ATOM     13  C   UNL     1      -0.014   9.753  20.883  0.00  0.00    +0.000 C 
ATOM     14  N   UNL     1       2.446   7.489  19.187  0.00  0.00    +0.000 NA
ATOM     15  C   UNL     1       2.947   6.214  19.252  0.00  0.00    +0.000 A 
ENDROOT
BRANCH  15  16
ATOM     16  N   UNL     1       3.906   5.858  18.326  0.00  0.00    +0.000 N 
ATOM     17  C   UNL     1       5.259   5.390  18.658  0.00  0.00    +0.000 C 
ATOM     18  C   UNL     1       6.032   5.574  17.360  0.00  0.00    +0.000 C 
ATOM     19  C   UNL     1       7.220   4.648  17.146  0.00  0.00    +0.000 C 
ATOM     20  C   UNL     1       7.790   4.868  15.740  0.00  0.00    +0.000 C 
ATOM     21  C   UNL     1       6.723   4.776  14.636  0.00  0.00    +0.000 C 
ATOM     22  C   UNL     1       5.477   5.641  14.926  0.00  0.00    +0.000 C 
ATOM     23  C   UNL     1       4.943   5.330  16.317  0.00  0.00    +0.000 C 
ATOM     24  C   UNL     1       3.784   6.155  16.892  0.00  0.00    +0.000 C 
BRANCH  21  25
ATOM     25  O   UNL     1       6.336   3.414  14.452  0.00  0.00    +0.000 OA
ATOM     26  H   UNL     1       7.049   2.937  14.001  0.00  0.00    +0.000 HD
ENDBRANCH  21  25
ENDBRANCH  15  16
BRANCH   1  28
ATOM     27  N   UNL     1       3.184   2.850  20.422  0.00  0.00    +0.000 NA
ATOM     28  C   UNL     1       2.870   3.965  20.361  0.00  0.00    +0.000 C 
ENDBRANCH   1  28
BRANCH  10  29
ATOM     29  O   UNL     1      -2.313  13.152  19.196  0.00  0.00    +0.000 OA
ATOM     30  H   UNL     1      -2.845  13.960  19.107  0.00  0.00    +0.000 HD
ENDBRANCH  10  29
TORSDOF 4
ENDMDL
MODEL 6
REMARK VINA RESULT:      -7.4      2.435      4.239
REMARK  Name = 
REMARK  4 active torsions:
REMARK  status: ('A' for Active; 'I' for Inactive)
REMARK    1  A    between atoms: C_2  and  C_3
REMARK    2  A    between atoms: C_12  and  O_13
REMARK    3  A    between atoms: C_18  and  N_19
REMARK    4  A    between atoms: C_24  and  O_25
REMARK                            x       y       z     vdW  Elec       q    Type
REMARK                         _______ _______ _______ _____ _____    ______ ____
ROOT
ATOM      1  C   UNL     1       1.447  11.108  18.675  0.00  0.00    +0.000 A 
ATOM      2  C   UNL     1       2.383  10.398  17.930  0.00  0.00    +0.000 A 
ATOM      3  C   UNL     1       2.577   9.055  18.186  0.00  0.00    +0.000 A 
ATOM      4  C   UNL     1       1.827   8.413  19.167  0.00  0.00    +0.000 A 
ATOM      5  N   UNL     1       2.037   7.078  19.415  0.00  0.00    +0.000 N 
ATOM      6  C   UNL     1       1.324   6.335  20.457  0.00  0.00    +0.000 C 
ATOM      7  C   UNL     1       2.125   5.025  20.519  0.00  0.00    +0.000 C 
ATOM      8  C   UNL     1       1.442   3.773  21.048  0.00  0.00    +0.000 C 
ATOM      9  C   UNL     1       2.395   2.569  20.902  0.00  0.00    +0.000 C 
ATOM     10  C   UNL     1       2.965   2.400  19.483  0.00  0.00    +0.000 C 
ATOM     11  C   UNL     1       3.540   3.706  18.916  0.00  0.00    +0.000 C 
ATOM     12  C   UNL     1       2.517   4.824  19.056  0.00  0.00    +0.000 C 
ATOM     13  C   UNL     1       2.950   6.224  18.651  0.00  0.00    +0.000 C 
ATOM     14  N   UNL     1       0.898   9.110  19.880  0.00  0.00    +0.000 NA
ATOM     15  C   UNL     1       0.703  10.451  19.669  0.00  0.00    +0.000 A 
ENDROOT
BRANCH  15  16
ATOM     16  N   UNL     1      -0.240  11.089  20.446  0.00  0.00    +0.000 N 
ATOM     17  C   UNL     1      -0.209  11.160  21.913  0.00  0.00    +0.000 C 
ATOM     18  C   UNL     1      -1.636  11.537  22.287  0.00  0.00    +0.000 C 
ATOM     19  C   UNL     1      -1.813  12.290  23.597  0.00  0.00    +0.000 C 
ATOM     20  C   UNL     1      -3.279  12.715  23.744  0.00  0.00    +0.000 C 
ATOM     21  C   UNL     1      -3.815  13.469  22.516  0.00  0.00    +0.000 C 
ATOM     22  C   UNL     1      -3.528  12.738  21.186  0.00  0.00    +0.000 C 
ATOM     23  C   UNL     1      -2.048  12.395  21.092  0.00  0.00    +0.000 C 
ATOM     24  C   UNL     1      -1.534  11.548  19.920  0.00  0.00    +0.000 C 
BRANCH  21  25
ATOM     25  O   UNL     1      -3.260  14.783  22.476  0.00  0.00    +0.000 OA
ATOM     26  H   UNL     1      -2.922  15.015  23.355  0.00  0.00    +0.000 HD
ENDBRANCH  21  25
ENDBRANCH  15  16
BRANCH   1  28
ATOM     27  N   UNL     1       1.146  13.613  18.088  0.00  0.00    +0.000 NA
ATOM     28  C   UNL     1       1.294  12.488  18.328  0.00  0.00    +0.000 C 
ENDBRANCH   1  28
BRANCH  10  29
ATOM     29  O   UNL     1       1.955   1.900  18.608  0.00  0.00    +0.000 OA
ATOM     30  H   UNL     1       1.172   2.472  18.668  0.00  0.00    +0.000 HD
ENDBRANCH  10  29
TORSDOF 4
ENDMDL
MODEL 7
REMARK VINA RESULT:      -7.3      2.836      4.438
REMARK  Name = 
REMARK  4 active torsions:
REMARK  status: ('A' for Active; 'I' for Inactive)
REMARK    1  A    between atoms: C_2  and  C_3
REMARK    2  A    between atoms: C_12  and  O_13
REMARK    3  A    between atoms: C_18  and  N_19
REMARK    4  A    between atoms: C_24  and  O_25
REMARK                            x       y       z     vdW  Elec       q    Type
REMARK                         _______ _______ _______ _____ _____    ______ ____
ROOT
ATOM      1  C   UNL     1       0.648  12.469  18.965  0.00  0.00    +0.000 A 
ATOM      2  C   UNL     1       1.679  12.027  18.144  0.00  0.00    +0.000 A 
ATOM      3  C   UNL     1       2.072  10.705  18.200  0.00  0.00    +0.000 A 
ATOM      4  C   UNL     1       1.427   9.818  19.056  0.00  0.00    +0.000 A 
ATOM      5  N   UNL     1       1.834   8.506  19.106  0.00  0.00    +0.000 N 
ATOM      6  C   UNL     1       1.241   7.517  20.009  0.00  0.00    +0.000 C 
ATOM      7  C   UNL     1       2.230   6.346  19.893  0.00  0.00    +0.000 C 
ATOM      8  C   UNL     1       1.743   4.941  20.212  0.00  0.00    +0.000 C 
ATOM      9  C   UNL     1       2.865   3.927  19.909  0.00  0.00    +0.000 C 
ATOM     10  C   UNL     1       3.454   4.061  18.494  0.00  0.00    +0.000 C 
ATOM     11  C   UNL     1       3.827   5.509  18.142  0.00  0.00    +0.000 C 
ATOM     12  C   UNL     1       2.648   6.429  18.425  0.00  0.00    +0.000 C 
ATOM     13  C   UNL     1       2.866   7.922  18.244  0.00  0.00    +0.000 C 
ATOM     14  N   UNL     1       0.404  10.252  19.845  0.00  0.00    +0.000 NA
ATOM     15  C   UNL     1       0.011  11.566  19.832  0.00  0.00    +0.000 A 
ENDROOT
BRANCH  15  16
ATOM     16  N   UNL     1      -1.018  11.932  20.675  0.00  0.00    +0.000 N 
ATOM     17  C   UNL     1      -2.413  12.133  20.259  0.00  0.00    +0.000 C 
ATOM     18  C   UNL     1      -3.016  12.943  21.398  0.00  0.00    +0.000 C 
ATOM     19  C   UNL     1      -4.514  12.791  21.613  0.00  0.00    +0.000 C 
ATOM     20  C   UNL     1      -4.926  13.554  22.877  0.00  0.00    +0.000 C 
ATOM     21  C   UNL     1      -4.081  13.184  24.107  0.00  0.00    +0.000 C 
ATOM     22  C   UNL     1      -2.562  13.240  23.835  0.00  0.00    +0.000 C 
ATOM     23  C   UNL     1      -2.227  12.421  22.597  0.00  0.00    +0.000 C 
ATOM     24  C   UNL     1      -0.795  12.426  22.042  0.00  0.00    +0.000 C 
BRANCH  21  25
ATOM     25  O   UNL     1      -4.442  11.883  24.568  0.00  0.00    +0.000 OA
ATOM     26  H   UNL     1      -4.261  11.234  23.870  0.00  0.00    +0.000 HD
ENDBRANCH  21  25
ENDBRANCH  15  16
BRANCH   1  28
ATOM     27  N   UNL     1      -0.036  14.952  18.683  0.00  0.00    +0.000 NA
ATOM     28  C   UNL     1       0.289  13.848  18.826  0.00  0.00    +0.000 C 
ENDBRANCH   1  28
BRANCH  10  29
ATOM     29  O   UNL     1       2.530   3.556  17.531  0.00  0.00    +0.000 OA
ATOM     30  H   UNL     1       2.355   4.244  16.867  0.00  0.00    +0.000 HD
ENDBRANCH  10  29
TORSDOF 4
ENDMDL
MODEL 8
REMARK VINA RESULT:      -7.2      2.534      8.803
REMARK  Name = 
REMARK  4 active torsions:
REMARK  status: ('A' for Active; 'I' for Inactive)
REMARK    1  A    between atoms: C_2  and  C_3
REMARK    2  A    between atoms: C_12  and  O_13
REMARK    3  A    between atoms: C_18  and  N_19
REMARK    4  A    between atoms: C_24  and  O_25
REMARK                            x       y       z     vdW  Elec       q    Type
REMARK                         _______ _______ _______ _____ _____    ______ ____
ROOT
ATOM      1  C   UNL     1      -0.520  11.439  18.435  0.00  0.00    +0.000 A 
ATOM      2  C   UNL     1      -0.912  12.774  18.429  0.00  0.00    +0.000 A 
ATOM      3  C   UNL     1      -0.062  13.733  18.944  0.00  0.00    +0.000 A 
ATOM      4  C   UNL     1       1.184  13.368  19.446  0.00  0.00    +0.000 A 
ATOM      5  N   UNL     1       2.016  14.333  19.962  0.00  0.00    +0.000 N 
ATOM      6  C   UNL     1       3.324  14.032  20.549  0.00  0.00    +0.000 C 
ATOM      7  C   UNL     1       3.682  15.364  21.228  0.00  0.00    +0.000 C 
ATOM      8  C   UNL     1       5.147  15.686  21.482  0.00  0.00    +0.000 C 
ATOM      9  C   UNL     1       5.266  17.113  22.055  0.00  0.00    +0.000 C 
ATOM     10  C   UNL     1       4.543  18.180  21.213  0.00  0.00    +0.000 C 
ATOM     11  C   UNL     1       3.102  17.781  20.861  0.00  0.00    +0.000 C 
ATOM     12  C   UNL     1       3.086  16.383  20.259  0.00  0.00    +0.000 C 
ATOM     13  C   UNL     1       1.730  15.770  19.950  0.00  0.00    +0.000 C 
ATOM     14  N   UNL     1       1.570  12.061  19.431  0.00  0.00    +0.000 NA
ATOM     15  C   UNL     1       0.736  11.083  18.952  0.00  0.00    +0.000 A 
ENDROOT
BRANCH  15  16
ATOM     16  N   UNL     1       1.191   9.782  18.991  0.00  0.00    +0.000 N 
ATOM     17  C   UNL     1       1.033   8.872  20.134  0.00  0.00    +0.000 C 
ATOM     18  C   UNL     1       2.062   7.781  19.872  0.00  0.00    +0.000 C 
ATOM     19  C   UNL     1       1.760   6.413  20.465  0.00  0.00    +0.000 C 
ATOM     20  C   UNL     1       2.815   5.408  19.986  0.00  0.00    +0.000 C 
ATOM     21  C   UNL     1       2.990   5.399  18.459  0.00  0.00    +0.000 C 
ATOM     22  C   UNL     1       3.187   6.811  17.865  0.00  0.00    +0.000 C 
ATOM     23  C   UNL     1       2.076   7.735  18.345  0.00  0.00    +0.000 C 
ATOM     24  C   UNL     1       2.123   9.229  17.998  0.00  0.00    +0.000 C 
BRANCH  21  25
ATOM     25  O   UNL     1       1.864   4.769  17.847  0.00  0.00    +0.000 OA
ATOM     26  H   UNL     1       1.581   5.293  17.082  0.00  0.00    +0.000 HD
ENDBRANCH  21  25
ENDBRANCH  15  16
BRANCH   1  28
ATOM     27  N   UNL     1      -2.240   9.791  17.417  0.00  0.00    +0.000 NA
ATOM     28  C   UNL     1      -1.451  10.516  17.860  0.00  0.00    +0.000 C 
ENDBRANCH   1  28
BRANCH  10  29
ATOM     29  O   UNL     1       5.276  18.435  20.016  0.00  0.00    +0.000 OA
ATOM     30  H   UNL     1       4.685  18.326  19.252  0.00  0.00    +0.000 HD
ENDBRANCH  10  29
TORSDOF 4
ENDMDL
MODEL 9
REMARK VINA RESULT:      -7.2      1.029      1.340
REMARK  Name = 
REMARK  4 active torsions:
REMARK  status: ('A' for Active; 'I' for Inactive)
REMARK    1  A    between atoms: C_2  and  C_3
REMARK    2  A    between atoms: C_12  and  O_13
REMARK    3  A    between atoms: C_18  and  N_19
REMARK    4  A    between atoms: C_24  and  O_25
REMARK                            x       y       z     vdW  Elec       q    Type
REMARK                         _______ _______ _______ _____ _____    ______ ____
ROOT
ATOM      1  C   UNL     1      -0.100  10.206  21.781  0.00  0.00    +0.000 A 
ATOM      2  C   UNL     1      -0.330   8.900  22.201  0.00  0.00    +0.000 A 
ATOM      3  C   UNL     1       0.328   7.860  21.575  0.00  0.00    +0.000 A 
ATOM      4  C   UNL     1       1.229   8.119  20.547  0.00  0.00    +0.000 A 
ATOM      5  N   UNL     1       1.871   7.072  19.929  0.00  0.00    +0.000 N 
ATOM      6  C   UNL     1       2.801   7.251  18.811  0.00  0.00    +0.000 C 
ATOM      7  C   UNL     1       2.980   5.808  18.312  0.00  0.00    +0.000 C 
ATOM      8  C   UNL     1       4.244   5.450  17.546  0.00  0.00    +0.000 C 
ATOM      9  C   UNL     1       4.256   3.934  17.258  0.00  0.00    +0.000 C 
ATOM     10  C   UNL     1       4.035   3.065  18.509  0.00  0.00    +0.000 C 
ATOM     11  C   UNL     1       2.824   3.519  19.338  0.00  0.00    +0.000 C 
ATOM     12  C   UNL     1       2.920   5.013  19.615  0.00  0.00    +0.000 C 
ATOM     13  C   UNL     1       1.750   5.668  20.331  0.00  0.00    +0.000 C 
ATOM     14  N   UNL     1       1.465   9.402  20.153  0.00  0.00    +0.000 NA
ATOM     15  C   UNL     1       0.805  10.453  20.736  0.00  0.00    +0.000 A 
ENDROOT
BRANCH  15  16
ATOM     16  N   UNL     1       1.082  11.720  20.266  0.00  0.00    +0.000 N 
ATOM     17  C   UNL     1       1.668  12.018  18.952  0.00  0.00    +0.000 C 
ATOM     18  C   UNL     1       2.184  13.442  19.101  0.00  0.00    +0.000 C 
ATOM     19  C   UNL     1       2.266  14.267  17.826  0.00  0.00    +0.000 C 
ATOM     20  C   UNL     1       2.662  15.706  18.175  0.00  0.00    +0.000 C 
ATOM     21  C   UNL     1       1.772  16.329  19.264  0.00  0.00    +0.000 C 
ATOM     22  C   UNL     1       1.615  15.426  20.506  0.00  0.00    +0.000 C 
ATOM     23  C   UNL     1       1.173  14.033  20.082  0.00  0.00    +0.000 C 
ATOM     24  C   UNL     1       1.074  12.912  21.126  0.00  0.00    +0.000 C 
BRANCH  21  25
ATOM     25  O   UNL     1       0.487  16.634  18.721  0.00  0.00    +0.000 OA
ATOM     26  H   UNL     1      -0.193  16.457  19.390  0.00  0.00    +0.000 HD
ENDBRANCH  21  25
ENDBRANCH  15  16
BRANCH   1  28
ATOM     27  N   UNL     1      -1.413  12.018  23.087  0.00  0.00    +0.000 NA
ATOM     28  C   UNL     1      -0.805  11.223  22.499  0.00  0.00    +0.000 C 
ENDBRANCH   1  28
BRANCH  10  29
ATOM     29  O   UNL     1       5.206   3.075  19.324  0.00  0.00    +0.000 OA
ATOM     30  H   UNL     1       5.352   2.182  19.680  0.00  0.00    +0.000 HD
ENDBRANCH  10  29
TORSDOF 4
ENDMDL
