MODEL 1
REMARK VINA RESULT:      -8.5      0.000      0.000
REMARK  Name = 
REMARK  7 active torsions:
REMARK  status: ('A' for Active; 'I' for Inactive)
REMARK    1  A    between atoms: C_1  and  O_2
REMARK    2  A    between atoms: O_2  and  C_3
REMARK    3  A    between atoms: C_6  and  C_7
REMARK    4  A    between atoms: C_9  and  C_10
REMARK    5  A    between atoms: C_10  and  C_11
REMARK    6  A    between atoms: C_11  and  N_12
REMARK    7  A    between atoms: C_13  and  C_15
REMARK                            x       y       z     vdW  Elec       q    Type
REMARK                         _______ _______ _______ _____ _____    ______ ____
ROOT
ATOM      1  C   UNL     1       8.260   8.498  18.185  0.00  0.00    +0.000 A 
ATOM      2  N   UNL     1       7.592   8.083  17.126  0.00  0.00    +0.000 NA
ATOM      3  C   UNL     1       7.440   6.736  17.336  0.00  0.00    +0.000 A 
ATOM      4  N   UNL     1       7.979   6.288  18.475  0.00  0.00    +0.000 NA
ATOM      5  N   UNL     1       8.447   7.424  19.011  0.00  0.00    +0.000 N 
ATOM      6  H   UNL     1       8.872   7.402  19.929  0.00  0.00    +0.000 HD
ENDROOT
BRANCH   1  10
ATOM      7  C   UNL     1       9.584  12.470  19.077  0.00  0.00    +0.000 A 
ATOM      8  C   UNL     1       8.882  12.202  17.901  0.00  0.00    +0.000 A 
ATOM      9  C   UNL     1       8.451  10.903  17.609  0.00  0.00    +0.000 A 
ATOM     10  C   UNL     1       8.722   9.850  18.489  0.00  0.00    +0.000 A 
ATOM     11  C   UNL     1       9.455  10.123  19.654  0.00  0.00    +0.000 A 
ATOM     12  C   UNL     1       9.884  11.423  19.946  0.00  0.00    +0.000 A 
BRANCH   7  14
ATOM     13  C   UNL     1       9.556  14.372  20.481  0.00  0.00    +0.000 C 
ATOM     14  O   UNL     1       9.959  13.772  19.254  0.00  0.00    +0.000 OA
ENDBRANCH   7  14
ENDBRANCH   1  10
BRANCH   3  15
ATOM     15  C   UNL     1       6.769   5.844  16.351  0.00  0.00    +0.000 C 
BRANCH  15  16
ATOM     16  C   UNL     1       6.646   4.405  16.852  0.00  0.00    +0.000 C 
BRANCH  16  17
ATOM     17  N   UNL     1       5.295   4.059  17.263  0.00  0.00    +0.000 N 
ATOM     18  C   UNL     1       4.982   3.885  18.594  0.00  0.00    +0.000 C 
ATOM     19  O   UNL     1       5.791   4.042  19.502  0.00  0.00    +0.000 OA
ATOM     20  H   UNL     1       4.564   4.086  16.566  0.00  0.00    +0.000 HD
BRANCH  18  21
ATOM     21  C   UNL     1       3.579   3.512  18.908  0.00  0.00    +0.000 A 
ATOM     22  C   UNL     1       2.631   3.593  17.877  0.00  0.00    +0.000 A 
ATOM     23  C   UNL     1       1.293   3.283  18.124  0.00  0.00    +0.000 A 
ATOM     24  C   UNL     1       0.895   2.903  19.405  0.00  0.00    +0.000 A 
ATOM     25  C   UNL     1       1.836   2.837  20.432  0.00  0.00    +0.000 A 
ATOM     26 CL   UNL     1       1.332   2.390  22.017  0.00  0.00    +0.000 Cl
ATOM     27  C   UNL     1       3.178   3.140  20.195  0.00  0.00    +0.000 A 
ENDBRANCH  18  21
ENDBRANCH  16  17
ENDBRANCH  15  16
ENDBRANCH   3  15
TORSDOF 6
ENDMDL
MODEL 2
REMARK VINA RESULT:      -8.1      1.022      1.034
REMARK  Name = 
REMARK  7 active torsions:
REMARK  status: ('A' for Active; 'I' for Inactive)
REMARK    1  A    between atoms: C_1  and  O_2
REMARK    2  A    between atoms: O_2  and  C_3
REMARK    3  A    between atoms: C_6  and  C_7
REMARK    4  A    between atoms: C_9  and  C_10
REMARK    5  A    between atoms: C_10  and  C_11
REMARK    6  A    between atoms: C_11  and  N_12
REMARK    7  A    between atoms: C_13  and  C_15
REMARK                            x       y       z     vdW  Elec       q    Type
REMARK                         _______ _______ _______ _____ _____    ______ ____
ROOT
ATOM      1  C   UNL     1       8.332   8.618  18.294  0.00  0.00    +0.000 A 
ATOM      2  N   UNL     1       7.666   8.185  17.241  0.00  0.00    +0.000 NA
ATOM      3  C   UNL     1       7.510   6.842  17.477  0.00  0.00    +0.000 A 
ATOM      4  N   UNL     1       8.045   6.415  18.626  0.00  0.00    +0.000 NA
ATOM      5  N   UNL     1       8.516   7.560  19.141  0.00  0.00    +0.000 N 
ATOM      6  H   UNL     1       8.938   7.554  20.060  0.00  0.00    +0.000 HD
ENDROOT
BRANCH   1  10
ATOM      7  C   UNL     1       9.664  12.604  19.111  0.00  0.00    +0.000 A 
ATOM      8  C   UNL     1       8.969  12.313  17.936  0.00  0.00    +0.000 A 
ATOM      9  C   UNL     1       8.535  11.010  17.669  0.00  0.00    +0.000 A 
ATOM     10  C   UNL     1       8.797   9.975  18.573  0.00  0.00    +0.000 A 
ATOM     11  C   UNL     1       9.523  10.270  19.736  0.00  0.00    +0.000 A 
ATOM     12  C   UNL     1       9.955  11.574  20.004  0.00  0.00    +0.000 A 
BRANCH   7  14
ATOM     13  C   UNL     1       8.993  14.830  19.539  0.00  0.00    +0.000 C 
ATOM     14  O   UNL     1      10.043  13.908  19.263  0.00  0.00    +0.000 OA
ENDBRANCH   7  14
ENDBRANCH   1  10
BRANCH   3  15
ATOM     15  C   UNL     1       6.840   5.932  16.508  0.00  0.00    +0.000 C 
BRANCH  15  16
ATOM     16  C   UNL     1       6.915   4.465  16.932  0.00  0.00    +0.000 C 
BRANCH  16  17
ATOM     17  N   UNL     1       5.784   4.051  17.747  0.00  0.00    +0.000 N 
ATOM     18  C   UNL     1       4.558   3.786  17.176  0.00  0.00    +0.000 C 
ATOM     19  O   UNL     1       4.351   3.843  15.969  0.00  0.00    +0.000 OA
ATOM     20  H   UNL     1       5.953   3.829  18.718  0.00  0.00    +0.000 HD
BRANCH  18  21
ATOM     21  C   UNL     1       3.462   3.392  18.097  0.00  0.00    +0.000 A 
ATOM     22  C   UNL     1       2.362   2.711  17.555  0.00  0.00    +0.000 A 
ATOM     23  C   UNL     1       1.289   2.343  18.369  0.00  0.00    +0.000 A 
ATOM     24  C   UNL     1       1.307   2.667  19.725  0.00  0.00    +0.000 A 
ATOM     25  C   UNL     1       2.395   3.357  20.260  0.00  0.00    +0.000 A 
ATOM     26 CL   UNL     1       2.397   3.773  21.930  0.00  0.00    +0.000 Cl
ATOM     27  C   UNL     1       3.474   3.725  19.456  0.00  0.00    +0.000 A 
ENDBRANCH  18  21
ENDBRANCH  16  17
ENDBRANCH  15  16
ENDBRANCH   3  15
TORSDOF 6
ENDMDL
MODEL 3
REMARK VINA RESULT:      -8.1      1.371      1.738
REMARK  Name = 
REMARK  7 active torsions:
REMARK  status: ('A' for Active; 'I' for Inactive)
REMARK    1  A    between atoms: C_1  and  O_2
REMARK    2  A    between atoms: O_2  and  C_3
REMARK    3  A    between atoms: C_6  and  C_7
REMARK    4  A    between atoms: C_9  and  C_10
REMARK    5  A    between atoms: C_10  and  C_11
REMARK    6  A    between atoms: C_11  and  N_12
REMARK    7  A    between atoms: C_13  and  C_15
REMARK                            x       y       z     vdW  Elec       q    Type
REMARK                         _______ _______ _______ _____ _____    ______ ____
ROOT
ATOM      1  C   UNL     1       8.111   8.336  18.019  0.00  0.00    +0.000 A 
ATOM      2  N   UNL     1       7.466   7.932  16.943  0.00  0.00    +0.000 NA
ATOM      3  C   UNL     1       7.300   6.584  17.142  0.00  0.00    +0.000 A 
ATOM      4  N   UNL     1       7.810   6.127  18.291  0.00  0.00    +0.000 NA
ATOM      5  N   UNL     1       8.273   7.257  18.844  0.00  0.00    +0.000 N 
ATOM      6  H   UNL     1       8.676   7.227  19.771  0.00  0.00    +0.000 HD
ENDROOT
BRANCH   1  10
ATOM      7  C   UNL     1       9.498  12.276  18.960  0.00  0.00    +0.000 A 
ATOM      8  C   UNL     1       9.827  11.192  19.776  0.00  0.00    +0.000 A 
ATOM      9  C   UNL     1       9.373   9.905  19.469  0.00  0.00    +0.000 A 
ATOM     10  C   UNL     1       8.574   9.684  18.341  0.00  0.00    +0.000 A 
ATOM     11  C   UNL     1       8.223  10.784  17.544  0.00  0.00    +0.000 A 
ATOM     12  C   UNL     1       8.680  12.070  17.851  0.00  0.00    +0.000 A 
BRANCH   7  14
ATOM     13  C   UNL     1      11.154  13.437  20.185  0.00  0.00    +0.000 C 
ATOM     14  O   UNL     1       9.993  13.485  19.361  0.00  0.00    +0.000 OA
ENDBRANCH   7  14
ENDBRANCH   1  10
BRANCH   3  15
ATOM     15  C   UNL     1       6.647   5.701  16.137  0.00  0.00    +0.000 C 
BRANCH  15  16
ATOM     16  C   UNL     1       6.181   4.375  16.737  0.00  0.00    +0.000 C 
BRANCH  16  17
ATOM     17  N   UNL     1       4.916   4.485  17.446  0.00  0.00    +0.000 N 
ATOM     18  C   UNL     1       4.831   4.199  18.792  0.00  0.00    +0.000 C 
ATOM     19  O   UNL     1       5.798   3.877  19.475  0.00  0.00    +0.000 OA
ATOM     20  H   UNL     1       4.135   4.906  16.964  0.00  0.00    +0.000 HD
BRANCH  18  21
ATOM     21  C   UNL     1       3.490   4.320  19.418  0.00  0.00    +0.000 A 
ATOM     22  C   UNL     1       2.674   3.179  19.449  0.00  0.00    +0.000 A 
ATOM     23  C   UNL     1       1.393   3.243  19.998  0.00  0.00    +0.000 A 
ATOM     24  C   UNL     1       0.917   4.451  20.507  0.00  0.00    +0.000 A 
ATOM     25  C   UNL     1       1.724   5.589  20.462  0.00  0.00    +0.000 A 
ATOM     26 CL   UNL     1       1.119   7.081  21.070  0.00  0.00    +0.000 Cl
ATOM     27  C   UNL     1       3.008   5.534  19.920  0.00  0.00    +0.000 A 
ENDBRANCH  18  21
ENDBRANCH  16  17
ENDBRANCH  15  16
ENDBRANCH   3  15
TORSDOF 6
ENDMDL
MODEL 4
REMARK VINA RESULT:      -8.1      3.511      5.574
REMARK  Name = 
REMARK  7 active torsions:
REMARK  status: ('A' for Active; 'I' for Inactive)
REMARK    1  A    between atoms: C_1  and  O_2
REMARK    2  A    between atoms: O_2  and  C_3
REMARK    3  A    between atoms: C_6  and  C_7
REMARK    4  A    between atoms: C_9  and  C_10
REMARK    5  A    between atoms: C_10  and  C_11
REMARK    6  A    between atoms: C_11  and  N_12
REMARK    7  A    between atoms: C_13  and  C_15
REMARK                            x       y       z     vdW  Elec       q    Type
REMARK                         _______ _______ _______ _____ _____    ______ ____
ROOT
ATOM      1  C   UNL     1       5.040   4.007  18.778  0.00  0.00    +0.000 A 
ATOM      2  N   UNL     1       3.821   3.701  18.377  0.00  0.00    +0.000 NA
ATOM      3  C   UNL     1       3.543   2.526  19.029  0.00  0.00    +0.000 A 
ATOM      4  N   UNL     1       4.528   2.083  19.818  0.00  0.00    +0.000 NA
ATOM      5  N   UNL     1       5.439   3.056  19.676  0.00  0.00    +0.000 N 
ATOM      6  H   UNL     1       6.294   3.018  20.216  0.00  0.00    +0.000 HD
ENDROOT
BRANCH   1  10
ATOM      7  C   UNL     1       7.415   7.383  17.642  0.00  0.00    +0.000 A 
ATOM      8  C   UNL     1       6.177   7.151  17.043  0.00  0.00    +0.000 A 
ATOM      9  C   UNL     1       5.401   6.047  17.413  0.00  0.00    +0.000 A 
ATOM     10  C   UNL     1       5.858   5.152  18.387  0.00  0.00    +0.000 A 
ATOM     11  C   UNL     1       7.119   5.376  18.962  0.00  0.00    +0.000 A 
ATOM     12  C   UNL     1       7.892   6.482  18.593  0.00  0.00    +0.000 A 
BRANCH   7  14
ATOM     13  C   UNL     1       8.462   9.429  18.199  0.00  0.00    +0.000 C 
ATOM     14  O   UNL     1       8.086   8.488  17.198  0.00  0.00    +0.000 OA
ENDBRANCH   7  14
ENDBRANCH   1  10
BRANCH   3  15
ATOM     15  C   UNL     1       2.266   1.786  18.833  0.00  0.00    +0.000 C 
BRANCH  15  16
ATOM     16  C   UNL     1       1.082   2.470  19.516  0.00  0.00    +0.000 C 
BRANCH  16  17
ATOM     17  N   UNL     1       1.140   3.921  19.438  0.00  0.00    +0.000 N 
ATOM     18  C   UNL     1       1.594   4.670  20.501  0.00  0.00    +0.000 C 
ATOM     19  O   UNL     1       2.006   4.177  21.546  0.00  0.00    +0.000 OA
ATOM     20  H   UNL     1       0.971   4.356  18.542  0.00  0.00    +0.000 HD
BRANCH  18  21
ATOM     21  C   UNL     1       1.593   6.145  20.329  0.00  0.00    +0.000 A 
ATOM     22  C   UNL     1       1.009   6.924  21.339  0.00  0.00    +0.000 A 
ATOM     23  C   UNL     1       0.953   8.313  21.216  0.00  0.00    +0.000 A 
ATOM     24  C   UNL     1       1.469   8.928  20.076  0.00  0.00    +0.000 A 
ATOM     25  C   UNL     1       2.036   8.151  19.065  0.00  0.00    +0.000 A 
ATOM     26 CL   UNL     1       2.649   8.917  17.650  0.00  0.00    +0.000 Cl
ATOM     27  C   UNL     1       2.102   6.762  19.181  0.00  0.00    +0.000 A 
ENDBRANCH  18  21
ENDBRANCH  16  17
ENDBRANCH  15  16
ENDBRANCH   3  15
TORSDOF 6
ENDMDL
MODEL 5
REMARK VINA RESULT:      -8.1      5.261      6.934
REMARK  Name = 
REMARK  7 active torsions:
REMARK  status: ('A' for Active; 'I' for Inactive)
REMARK    1  A    between atoms: C_1  and  O_2
REMARK    2  A    between atoms: O_2  and  C_3
REMARK    3  A    between atoms: C_6  and  C_7
REMARK    4  A    between atoms: C_9  and  C_10
REMARK    5  A    between atoms: C_10  and  C_11
REMARK    6  A    between atoms: C_11  and  N_12
REMARK    7  A    between atoms: C_13  and  C_15
REMARK                            x       y       z     vdW  Elec       q    Type
REMARK                         _______ _______ _______ _____ _____    ______ ____
ROOT
ATOM      1  C   UNL     1       4.659   3.367  18.035  0.00  0.00    +0.000 A 
ATOM      2  N   UNL     1       3.377   3.054  18.031  0.00  0.00    +0.000 NA
ATOM      3  C   UNL     1       3.162   2.525  19.278  0.00  0.00    +0.000 A 
ATOM      4  N   UNL     1       4.245   2.491  20.062  0.00  0.00    +0.000 NA
ATOM      5  N   UNL     1       5.161   3.069  19.272  0.00  0.00    +0.000 N 
ATOM      6  H   UNL     1       6.092   3.234  19.630  0.00  0.00    +0.000 HD
ENDROOT
BRANCH   1  10
ATOM      7  C   UNL     1       6.997   5.055  14.871  0.00  0.00    +0.000 A 
ATOM      8  C   UNL     1       7.515   4.957  16.163  0.00  0.00    +0.000 A 
ATOM      9  C   UNL     1       6.749   4.407  17.197  0.00  0.00    +0.000 A 
ATOM     10  C   UNL     1       5.449   3.951  16.954  0.00  0.00    +0.000 A 
ATOM     11  C   UNL     1       4.926   4.082  15.659  0.00  0.00    +0.000 A 
ATOM     12  C   UNL     1       5.692   4.630  14.625  0.00  0.00    +0.000 A 
BRANCH   7  14
ATOM     13  C   UNL     1       7.724   5.097  12.621  0.00  0.00    +0.000 C 
ATOM     14  O   UNL     1       7.831   5.614  13.944  0.00  0.00    +0.000 OA
ENDBRANCH   7  14
ENDBRANCH   1  10
BRANCH   3  15
ATOM     15  C   UNL     1       1.838   1.989  19.701  0.00  0.00    +0.000 C 
BRANCH  15  16
ATOM     16  C   UNL     1       0.964   3.049  20.371  0.00  0.00    +0.000 C 
BRANCH  16  17
ATOM     17  N   UNL     1       1.102   4.365  19.767  0.00  0.00    +0.000 N 
ATOM     18  C   UNL     1       1.861   5.345  20.370  0.00  0.00    +0.000 C 
ATOM     19  O   UNL     1       2.487   5.168  21.410  0.00  0.00    +0.000 OA
ATOM     20  H   UNL     1       0.744   4.500  18.833  0.00  0.00    +0.000 HD
BRANCH  18  21
ATOM     21  C   UNL     1       1.921   6.661  19.685  0.00  0.00    +0.000 A 
ATOM     22  C   UNL     1       2.574   6.727  18.445  0.00  0.00    +0.000 A 
ATOM     23  C   UNL     1       2.685   7.944  17.771  0.00  0.00    +0.000 A 
ATOM     24  C   UNL     1       2.157   9.102  18.340  0.00  0.00    +0.000 A 
ATOM     25  C   UNL     1       1.521   9.038  19.581  0.00  0.00    +0.000 A 
ATOM     26 CL   UNL     1       0.893  10.476  20.287  0.00  0.00    +0.000 Cl
ATOM     27  C   UNL     1       1.399   7.825  20.260  0.00  0.00    +0.000 A 
ENDBRANCH  18  21
ENDBRANCH  16  17
ENDBRANCH  15  16
ENDBRANCH   3  15
TORSDOF 6
ENDMDL
MODEL 6
REMARK VINA RESULT:      -8.0      1.473      1.816
REMARK  Name = 
REMARK  7 active torsions:
REMARK  status: ('A' for Active; 'I' for Inactive)
REMARK    1  A    between atoms: C_1  and  O_2
REMARK    2  A    between atoms: O_2  and  C_3
REMARK    3  A    between atoms: C_6  and  C_7
REMARK    4  A    between atoms: C_9  and  C_10
REMARK    5  A    between atoms: C_10  and  C_11
REMARK    6  A    between atoms: C_11  and  N_12
REMARK    7  A    between atoms: C_13  and  C_15
REMARK                            x       y       z     vdW  Elec       q    Type
REMARK                         _______ _______ _______ _____ _____    ______ ____
ROOT
ATOM      1  C   UNL     1       8.451   8.880  18.389  0.00  0.00    +0.000 A 
ATOM      2  N   UNL     1       7.592   8.630  17.421  0.00  0.00    +0.000 NA
ATOM      3  C   UNL     1       7.335   7.288  17.544  0.00  0.00    +0.000 A 
ATOM      4  N   UNL     1       7.991   6.686  18.542  0.00  0.00    +0.000 NA
ATOM      5  N   UNL     1       8.650   7.719  19.085  0.00  0.00    +0.000 N 
ATOM      6  H   UNL     1       9.204   7.572  19.919  0.00  0.00    +0.000 HD
ENDROOT
BRANCH   1  10
ATOM      7  C   UNL     1      10.351  12.586  19.379  0.00  0.00    +0.000 A 
ATOM      8  C   UNL     1      10.075  11.643  20.369  0.00  0.00    +0.000 A 
ATOM      9  C   UNL     1       9.453  10.432  20.045  0.00  0.00    +0.000 A 
ATOM     10  C   UNL     1       9.091  10.150  18.723  0.00  0.00    +0.000 A 
ATOM     11  C   UNL     1       9.345  11.118  17.740  0.00  0.00    +0.000 A 
ATOM     12  C   UNL     1       9.969  12.327  18.064  0.00  0.00    +0.000 A 
BRANCH   7  14
ATOM     13  C   UNL     1      11.854  14.346  18.892  0.00  0.00    +0.000 C 
ATOM     14  O   UNL     1      10.956  13.733  19.812  0.00  0.00    +0.000 OA
ENDBRANCH   7  14
ENDBRANCH   1  10
BRANCH   3  15
ATOM     15  C   UNL     1       6.434   6.557  16.610  0.00  0.00    +0.000 C 
BRANCH  15  16
ATOM     16  C   UNL     1       4.962   6.914  16.814  0.00  0.00    +0.000 C 
BRANCH  16  17
ATOM     17  N   UNL     1       4.172   5.802  17.317  0.00  0.00    +0.000 N 
ATOM     18  C   UNL     1       3.200   5.999  18.275  0.00  0.00    +0.000 C 
ATOM     19  O   UNL     1       2.916   7.102  18.730  0.00  0.00    +0.000 OA
ATOM     20  H   UNL     1       4.255   4.910  16.851  0.00  0.00    +0.000 HD
BRANCH  18  21
ATOM     21  C   UNL     1       2.464   4.795  18.738  0.00  0.00    +0.000 A 
ATOM     22  C   UNL     1       1.740   4.062  17.787  0.00  0.00    +0.000 A 
ATOM     23  C   UNL     1       1.005   2.939  18.172  0.00  0.00    +0.000 A 
ATOM     24  C   UNL     1       0.981   2.553  19.512  0.00  0.00    +0.000 A 
ATOM     25  C   UNL     1       1.691   3.293  20.459  0.00  0.00    +0.000 A 
ATOM     26 CL   UNL     1       1.636   2.823  22.115  0.00  0.00    +0.000 Cl
ATOM     27  C   UNL     1       2.432   4.413  20.084  0.00  0.00    +0.000 A 
ENDBRANCH  18  21
ENDBRANCH  16  17
ENDBRANCH  15  16
ENDBRANCH   3  15
TORSDOF 6
ENDMDL
MODEL 7
REMARK VINA RESULT:      -8.0      1.022      1.099
REMARK  Name = 
REMARK  7 active torsions:
REMARK  status: ('A' for Active; 'I' for Inactive)
REMARK    1  A    between atoms: C_1  and  O_2
REMARK    2  A    between atoms: O_2  and  C_3
REMARK    3  A    between atoms: C_6  and  C_7
REMARK    4  A    between atoms: C_9  and  C_10
REMARK    5  A    between atoms: C_10  and  C_11
REMARK    6  A    between atoms: C_11  and  N_12
REMARK    7  A    between atoms: C_13  and  C_15
REMARK                            x       y       z     vdW  Elec       q    Type
REMARK                         _______ _______ _______ _____ _____    ______ ____
ROOT
ATOM      1  C   UNL     1       8.415   8.830  18.383  0.00  0.00    +0.000 A 
ATOM      2  N   UNL     1       7.595   8.543  17.390  0.00  0.00    +0.000 NA
ATOM      3  C   UNL     1       7.383   7.193  17.515  0.00  0.00    +0.000 A 
ATOM      4  N   UNL     1       8.029   6.622  18.537  0.00  0.00    +0.000 NA
ATOM      5  N   UNL     1       8.634   7.681  19.093  0.00  0.00    +0.000 N 
ATOM      6  H   UNL     1       9.167   7.558  19.944  0.00  0.00    +0.000 HD
ENDROOT
BRANCH   1  10
ATOM      7  C   UNL     1      10.099  12.637  19.381  0.00  0.00    +0.000 A 
ATOM      8  C   UNL     1       9.786  12.323  18.058  0.00  0.00    +0.000 A 
ATOM      9  C   UNL     1       9.237  11.078  17.732  0.00  0.00    +0.000 A 
ATOM     10  C   UNL     1       8.998  10.124  18.727  0.00  0.00    +0.000 A 
ATOM     11  C   UNL     1       9.345  10.437  20.050  0.00  0.00    +0.000 A 
ATOM     12  C   UNL     1       9.892  11.683  20.376  0.00  0.00    +0.000 A 
BRANCH   7  14
ATOM     13  C   UNL     1      10.576  14.372  20.914  0.00  0.00    +0.000 C 
ATOM     14  O   UNL     1      10.635  13.878  19.580  0.00  0.00    +0.000 OA
ENDBRANCH   7  14
ENDBRANCH   1  10
BRANCH   3  15
ATOM     15  C   UNL     1       6.538   6.425  16.559  0.00  0.00    +0.000 C 
BRANCH  15  16
ATOM     16  C   UNL     1       5.057   6.790  16.661  0.00  0.00    +0.000 C 
BRANCH  16  17
ATOM     17  N   UNL     1       4.223   5.675  17.079  0.00  0.00    +0.000 N 
ATOM     18  C   UNL     1       4.167   5.290  18.401  0.00  0.00    +0.000 C 
ATOM     19  O   UNL     1       4.769   5.870  19.298  0.00  0.00    +0.000 OA
ATOM     20  H   UNL     1       3.585   5.278  16.404  0.00  0.00    +0.000 HD
BRANCH  18  21
ATOM     21  C   UNL     1       3.303   4.125  18.722  0.00  0.00    +0.000 A 
ATOM     22  C   UNL     1       2.973   3.245  17.681  0.00  0.00    +0.000 A 
ATOM     23  C   UNL     1       2.141   2.151  17.919  0.00  0.00    +0.000 A 
ATOM     24  C   UNL     1       1.624   1.939  19.197  0.00  0.00    +0.000 A 
ATOM     25  C   UNL     1       1.941   2.823  20.228  0.00  0.00    +0.000 A 
ATOM     26 CL   UNL     1       1.280   2.567  21.797  0.00  0.00    +0.000 Cl
ATOM     27  C   UNL     1       2.777   3.917  20.002  0.00  0.00    +0.000 A 
ENDBRANCH  18  21
ENDBRANCH  16  17
ENDBRANCH  15  16
ENDBRANCH   3  15
TORSDOF 6
ENDMDL
MODEL 8
REMARK VINA RESULT:      -8.0      2.818      3.022
REMARK  Name = 
REMARK  7 active torsions:
REMARK  status: ('A' for Active; 'I' for Inactive)
REMARK    1  A    between atoms: C_1  and  O_2
REMARK    2  A    between atoms: O_2  and  C_3
REMARK    3  A    between atoms: C_6  and  C_7
REMARK    4  A    between atoms: C_9  and  C_10
REMARK    5  A    between atoms: C_10  and  C_11
REMARK    6  A    between atoms: C_11  and  N_12
REMARK    7  A    between atoms: C_13  and  C_15
REMARK                            x       y       z     vdW  Elec       q    Type
REMARK                         _______ _______ _______ _____ _____    ______ ____
ROOT
ATOM      1  C   UNL     1       7.962   8.392  17.976  0.00  0.00    +0.000 A 
ATOM      2  N   UNL     1       8.199   7.208  18.509  0.00  0.00    +0.000 NA
ATOM      3  C   UNL     1       7.404   6.355  17.787  0.00  0.00    +0.000 A 
ATOM      4  N   UNL     1       6.682   6.946  16.828  0.00  0.00    +0.000 NA
ATOM      5  N   UNL     1       7.087   8.219  16.939  0.00  0.00    +0.000 N 
ATOM      6  H   UNL     1       6.740   8.909  16.286  0.00  0.00    +0.000 HD
ENDROOT
BRANCH   1  10
ATOM      7  C   UNL     1       9.572  12.193  19.110  0.00  0.00    +0.000 A 
ATOM      8  C   UNL     1       8.871  12.046  17.912  0.00  0.00    +0.000 A 
ATOM      9  C   UNL     1       8.347  10.803  17.541  0.00  0.00    +0.000 A 
ATOM     10  C   UNL     1       8.521   9.684  18.363  0.00  0.00    +0.000 A 
ATOM     11  C   UNL     1       9.253   9.834  19.550  0.00  0.00    +0.000 A 
ATOM     12  C   UNL     1       9.776  11.078  19.922  0.00  0.00    +0.000 A 
BRANCH   7  14
ATOM     13  C   UNL     1       9.065  14.414  19.744  0.00  0.00    +0.000 C 
ATOM     14  O   UNL     1      10.043  13.450  19.366  0.00  0.00    +0.000 OA
ENDBRANCH   7  14
ENDBRANCH   1  10
BRANCH   3  15
ATOM     15  C   UNL     1       7.320   4.898  18.082  0.00  0.00    +0.000 C 
BRANCH  15  16
ATOM     16  C   UNL     1       5.962   4.492  18.655  0.00  0.00    +0.000 C 
BRANCH  16  17
ATOM     17  N   UNL     1       5.072   5.623  18.862  0.00  0.00    +0.000 N 
ATOM     18  C   UNL     1       3.775   5.598  18.397  0.00  0.00    +0.000 C 
ATOM     19  O   UNL     1       3.282   4.632  17.825  0.00  0.00    +0.000 OA
ATOM     20  H   UNL     1       5.381   6.367  19.471  0.00  0.00    +0.000 HD
BRANCH  18  21
ATOM     21  C   UNL     1       2.954   6.812  18.639  0.00  0.00    +0.000 A 
ATOM     22  C   UNL     1       2.894   7.779  17.624  0.00  0.00    +0.000 A 
ATOM     23  C   UNL     1       2.163   8.952  17.810  0.00  0.00    +0.000 A 
ATOM     24  C   UNL     1       1.498   9.170  19.017  0.00  0.00    +0.000 A 
ATOM     25  C   UNL     1       1.570   8.215  20.031  0.00  0.00    +0.000 A 
ATOM     26 CL   UNL     1       0.767   8.503  21.526  0.00  0.00    +0.000 Cl
ATOM     27  C   UNL     1       2.295   7.036  19.853  0.00  0.00    +0.000 A 
ENDBRANCH  18  21
ENDBRANCH  16  17
ENDBRANCH  15  16
ENDBRANCH   3  15
TORSDOF 6
ENDMDL
MODEL 9
REMARK VINA RESULT:      -7.9      4.759      6.706
REMARK  Name = 
REMARK  7 active torsions:
REMARK  status: ('A' for Active; 'I' for Inactive)
REMARK    1  A    between atoms: C_1  and  O_2
REMARK    2  A    between atoms: O_2  and  C_3
REMARK    3  A    between atoms: C_6  and  C_7
REMARK    4  A    between atoms: C_9  and  C_10
REMARK    5  A    between atoms: C_10  and  C_11
REMARK    6  A    between atoms: C_11  and  N_12
REMARK    7  A    between atoms: C_13  and  C_15
REMARK                            x       y       z     vdW  Elec       q    Type
REMARK                         _______ _______ _______ _____ _____    ______ ____
ROOT
ATOM      1  C   UNL     1       1.923   5.617  20.062  0.00  0.00    +0.000 A 
ATOM      2  N   UNL     1       1.714   4.564  19.296  0.00  0.00    +0.000 NA
ATOM      3  C   UNL     1       1.987   3.498  20.115  0.00  0.00    +0.000 A 
ATOM      4  N   UNL     1       2.355   3.832  21.357  0.00  0.00    +0.000 NA
ATOM      5  N   UNL     1       2.263   5.169  21.309  0.00  0.00    +0.000 N 
ATOM      6  H   UNL     1       2.435   5.708  22.148  0.00  0.00    +0.000 HD
ENDROOT
BRANCH   1  10
ATOM      7  C   UNL     1       1.562   9.749  19.002  0.00  0.00    +0.000 A 
ATOM      8  C   UNL     1       2.110   8.830  18.106  0.00  0.00    +0.000 A 
ATOM      9  C   UNL     1       2.229   7.480  18.454  0.00  0.00    +0.000 A 
ATOM     10  C   UNL     1       1.807   7.030  19.709  0.00  0.00    +0.000 A 
ATOM     11  C   UNL     1       1.285   7.966  20.615  0.00  0.00    +0.000 A 
ATOM     12  C   UNL     1       1.165   9.315  20.266  0.00  0.00    +0.000 A 
BRANCH   7  14
ATOM     13  C   UNL     1       0.770  11.945  19.379  0.00  0.00    +0.000 C 
ATOM     14  O   UNL     1       1.501  11.040  18.557  0.00  0.00    +0.000 OA
ENDBRANCH   7  14
ENDBRANCH   1  10
BRANCH   3  15
ATOM     15  C   UNL     1       1.921   2.088  19.641  0.00  0.00    +0.000 C 
BRANCH  15  16
ATOM     16  C   UNL     1       3.090   1.721  18.727  0.00  0.00    +0.000 C 
BRANCH  16  17
ATOM     17  N   UNL     1       3.717   2.881  18.113  0.00  0.00    +0.000 N 
ATOM     18  C   UNL     1       4.806   3.490  18.699  0.00  0.00    +0.000 C 
ATOM     19  O   UNL     1       5.331   3.084  19.730  0.00  0.00    +0.000 OA
ATOM     20  H   UNL     1       3.424   3.145  17.183  0.00  0.00    +0.000 HD
BRANCH  18  21
ATOM     21  C   UNL     1       5.359   4.681  18.005  0.00  0.00    +0.000 A 
ATOM     22  C   UNL     1       4.814   5.029  16.760  0.00  0.00    +0.000 A 
ATOM     23  C   UNL     1       5.317   6.120  16.051  0.00  0.00    +0.000 A 
ATOM     24  C   UNL     1       6.374   6.861  16.576  0.00  0.00    +0.000 A 
ATOM     25  C   UNL     1       6.925   6.505  17.808  0.00  0.00    +0.000 A 
ATOM     26 CL   UNL     1       8.246   7.411  18.439  0.00  0.00    +0.000 Cl
ATOM     27  C   UNL     1       6.427   5.419  18.528  0.00  0.00    +0.000 A 
ENDBRANCH  18  21
ENDBRANCH  16  17
ENDBRANCH  15  16
ENDBRANCH   3  15
TORSDOF 6
ENDMDL
