MODEL 1
REMARK VINA RESULT:      -7.6      0.000      0.000
REMARK  Name = 
REMARK  6 active torsions:
REMARK  status: ('A' for Active; 'I' for Inactive)
REMARK    1  A    between atoms: C_1  and  O_2
REMARK    2  A    between atoms: O_2  and  C_3
REMARK    3  A    between atoms: C_6  and  N_7
REMARK    4  A    between atoms: N_10  and  C_11
REMARK    5  A    between atoms: N_14  and  C_15
REMARK    6  A    between atoms: C_22  and  N_23
REMARK                            x       y       z     vdW  Elec       q    Type
REMARK                         _______ _______ _______ _____ _____    ______ ____
ROOT
ATOM      1  C   UNL     1       3.746   4.267  19.430  0.00  0.00    +0.000 A 
ATOM      2  C   UNL     1       2.599   4.400  20.239  0.00  0.00    +0.000 A 
ATOM      3  C   UNL     1       1.936   5.616  20.348  0.00  0.00    +0.000 A 
ATOM      4  C   UNL     1       2.419   6.705  19.646  0.00  0.00    +0.000 A 
ATOM      5  C   UNL     1       3.544   6.583  18.831  0.00  0.00    +0.000 A 
ATOM      6  C   UNL     1       4.237   5.366  18.677  0.00  0.00    +0.000 A 
ENDROOT
BRANCH   4   7
ATOM      7  N   UNL     1       1.840   7.982  19.801  0.00  0.00    +0.000 N 
ATOM      8  C   UNL     1       1.197   8.391  21.039  0.00  0.00    +0.000 C 
ATOM      9  C   UNL     1       0.168   9.462  20.652  0.00  0.00    +0.000 C 
ATOM     10  N   UNL     1       0.657  10.113  19.418  0.00  0.00    +0.000 NA
ATOM     11  S   UNL     1       1.568   8.995  18.508  0.00  0.00    +0.000 S 
ATOM     12  O   UNL     1       0.688   8.326  17.578  0.00  0.00    +0.000 OA
ATOM     13  O   UNL     1       2.792   9.631  18.098  0.00  0.00    +0.000 OA
BRANCH  10  14
ATOM     14  C   UNL     1      -0.245  11.029  18.671  0.00  0.00    +0.000 C 
ATOM     15  C   UNL     1      -0.769  12.204  19.514  0.00  0.00    +0.000 C 
ATOM     16  C   UNL     1      -2.254  12.338  19.195  0.00  0.00    +0.000 C 
ATOM     17  N   UNL     1      -2.475  11.511  17.995  0.00  0.00    +0.000 N 
ATOM     18  C   UNL     1      -1.507  10.389  18.073  0.00  0.00    +0.000 C 
BRANCH  17  19
ATOM     19  C   UNL     1      -3.620  11.469  17.304  0.00  0.00    +0.000 C 
ATOM     20  N   UNL     1      -4.602  11.436  16.694  0.00  0.00    +0.000 NA
ENDBRANCH  17  19
ENDBRANCH  10  14
ENDBRANCH   4   7
BRANCH   6  21
ATOM     21  N   UNL     1       5.310   5.297  17.804  0.00  0.00    +0.000 N 
ATOM     22  C   UNL     1       5.150   5.097  16.352  0.00  0.00    +0.000 C 
ATOM     23  C   UNL     1       6.223   4.112  15.847  0.00  0.00    +0.000 C 
ATOM     24  O   UNL     1       7.553   4.503  16.230  0.00  0.00    +0.000 OA
ATOM     25  C   UNL     1       7.647   4.629  17.662  0.00  0.00    +0.000 C 
ATOM     26  C   UNL     1       6.673   5.699  18.175  0.00  0.00    +0.000 C 
ENDBRANCH   6  21
BRANCH   1  28
ATOM     27  C   UNL     1       3.522   2.023  18.693  0.00  0.00    +0.000 C 
ATOM     28  O   UNL     1       4.347   3.034  19.268  0.00  0.00    +0.000 OA
ENDBRANCH   1  28
TORSDOF 5
ENDMDL
MODEL 2
REMARK VINA RESULT:      -7.4      0.470      1.051
REMARK  Name = 
REMARK  6 active torsions:
REMARK  status: ('A' for Active; 'I' for Inactive)
REMARK    1  A    between atoms: C_1  and  O_2
REMARK    2  A    between atoms: O_2  and  C_3
REMARK    3  A    between atoms: C_6  and  N_7
REMARK    4  A    between atoms: N_10  and  C_11
REMARK    5  A    between atoms: N_14  and  C_15
REMARK    6  A    between atoms: C_22  and  N_23
REMARK                            x       y       z     vdW  Elec       q    Type
REMARK                         _______ _______ _______ _____ _____    ______ ____
ROOT
ATOM      1  C   UNL     1       3.729   4.156  19.413  0.00  0.00    +0.000 A 
ATOM      2  C   UNL     1       2.616   4.305  20.266  0.00  0.00    +0.000 A 
ATOM      3  C   UNL     1       1.966   5.527  20.388  0.00  0.00    +0.000 A 
ATOM      4  C   UNL     1       2.427   6.605  19.655  0.00  0.00    +0.000 A 
ATOM      5  C   UNL     1       3.518   6.466  18.797  0.00  0.00    +0.000 A 
ATOM      6  C   UNL     1       4.196   5.243  18.629  0.00  0.00    +0.000 A 
ENDROOT
BRANCH   4   7
ATOM      7  N   UNL     1       1.863   7.887  19.819  0.00  0.00    +0.000 N 
ATOM      8  C   UNL     1       1.232   8.298  21.063  0.00  0.00    +0.000 C 
ATOM      9  C   UNL     1       0.213   9.382  20.687  0.00  0.00    +0.000 C 
ATOM     10  N   UNL     1       0.700  10.032  19.452  0.00  0.00    +0.000 NA
ATOM     11  S   UNL     1       1.593   8.908  18.532  0.00  0.00    +0.000 S 
ATOM     12  O   UNL     1       0.700   8.253  17.605  0.00  0.00    +0.000 OA
ATOM     13  O   UNL     1       2.821   9.533  18.116  0.00  0.00    +0.000 OA
BRANCH  10  14
ATOM     14  C   UNL     1      -0.197  10.961  18.715  0.00  0.00    +0.000 C 
ATOM     15  C   UNL     1      -0.618  12.194  19.532  0.00  0.00    +0.000 C 
ATOM     16  C   UNL     1      -2.111  12.388  19.287  0.00  0.00    +0.000 C 
ATOM     17  N   UNL     1      -2.435  11.525  18.137  0.00  0.00    +0.000 N 
ATOM     18  C   UNL     1      -1.518  10.360  18.212  0.00  0.00    +0.000 C 
BRANCH  17  19
ATOM     19  C   UNL     1      -3.617  11.512  17.510  0.00  0.00    +0.000 C 
ATOM     20  N   UNL     1      -4.645  11.505  16.979  0.00  0.00    +0.000 NA
ENDBRANCH  17  19
ENDBRANCH  10  14
ENDBRANCH   4   7
BRANCH   6  21
ATOM     21  N   UNL     1       5.234   5.158  17.715  0.00  0.00    +0.000 N 
ATOM     22  C   UNL     1       6.646   5.364  18.084  0.00  0.00    +0.000 C 
ATOM     23  C   UNL     1       7.349   6.190  16.988  0.00  0.00    +0.000 C 
ATOM     24  O   UNL     1       7.175   5.626  15.677  0.00  0.00    +0.000 OA
ATOM     25  C   UNL     1       5.774   5.501  15.366  0.00  0.00    +0.000 C 
ATOM     26  C   UNL     1       5.077   4.578  16.375  0.00  0.00    +0.000 C 
ENDBRANCH   6  21
BRANCH   1  28
ATOM     27  C   UNL     1       3.501   1.940  18.599  0.00  0.00    +0.000 C 
ATOM     28  O   UNL     1       4.316   2.918  19.241  0.00  0.00    +0.000 OA
ENDBRANCH   1  28
TORSDOF 5
ENDMDL
MODEL 3
REMARK VINA RESULT:      -7.4      2.390      2.832
REMARK  Name = 
REMARK  6 active torsions:
REMARK  status: ('A' for Active; 'I' for Inactive)
REMARK    1  A    between atoms: C_1  and  O_2
REMARK    2  A    between atoms: O_2  and  C_3
REMARK    3  A    between atoms: C_6  and  N_7
REMARK    4  A    between atoms: N_10  and  C_11
REMARK    5  A    between atoms: N_14  and  C_15
REMARK    6  A    between atoms: C_22  and  N_23
REMARK                            x       y       z     vdW  Elec       q    Type
REMARK                         _______ _______ _______ _____ _____    ______ ____
ROOT
ATOM      1  C   UNL     1       3.703   4.523  19.719  0.00  0.00    +0.000 A 
ATOM      2  C   UNL     1       2.553   4.642  20.526  0.00  0.00    +0.000 A 
ATOM      3  C   UNL     1       1.794   5.806  20.524  0.00  0.00    +0.000 A 
ATOM      4  C   UNL     1       2.184   6.856  19.712  0.00  0.00    +0.000 A 
ATOM      5  C   UNL     1       3.311   6.744  18.899  0.00  0.00    +0.000 A 
ATOM      6  C   UNL     1       4.099   5.577  18.856  0.00  0.00    +0.000 A 
ENDROOT
BRANCH   4   7
ATOM      7  N   UNL     1       1.505   8.091  19.749  0.00  0.00    +0.000 N 
ATOM      8  C   UNL     1       1.572   9.040  18.649  0.00  0.00    +0.000 C 
ATOM      9  C   UNL     1       1.320  10.424  19.262  0.00  0.00    +0.000 C 
ATOM     10  N   UNL     1       0.493  10.222  20.472  0.00  0.00    +0.000 NA
ATOM     11  S   UNL     1       0.839   8.696  21.149  0.00  0.00    +0.000 S 
ATOM     12  O   UNL     1       1.890   8.851  22.128  0.00  0.00    +0.000 OA
ATOM     13  O   UNL     1      -0.405   8.035  21.445  0.00  0.00    +0.000 OA
BRANCH  10  14
ATOM     14  C   UNL     1       0.286  11.357  21.410  0.00  0.00    +0.000 C 
ATOM     15  C   UNL     1      -0.808  11.100  22.461  0.00  0.00    +0.000 C 
ATOM     16  C   UNL     1      -1.636  12.377  22.545  0.00  0.00    +0.000 C 
ATOM     17  N   UNL     1      -0.851  13.403  21.836  0.00  0.00    +0.000 N 
ATOM     18  C   UNL     1      -0.103  12.697  20.766  0.00  0.00    +0.000 C 
BRANCH  17  19
ATOM     19  C   UNL     1      -1.159  14.705  21.803  0.00  0.00    +0.000 C 
ATOM     20  N   UNL     1      -1.417  15.833  21.786  0.00  0.00    +0.000 NA
ENDBRANCH  17  19
ENDBRANCH  10  14
ENDBRANCH   4   7
BRANCH   6  21
ATOM     21  N   UNL     1       5.171   5.509  17.980  0.00  0.00    +0.000 N 
ATOM     22  C   UNL     1       5.005   5.349  16.523  0.00  0.00    +0.000 C 
ATOM     23  C   UNL     1       6.057   4.356  15.992  0.00  0.00    +0.000 C 
ATOM     24  O   UNL     1       7.396   4.710  16.383  0.00  0.00    +0.000 OA
ATOM     25  C   UNL     1       7.493   4.797  17.818  0.00  0.00    +0.000 C 
ATOM     26  C   UNL     1       6.542   5.873  18.359  0.00  0.00    +0.000 C 
ENDBRANCH   6  21
BRANCH   1  28
ATOM     27  C   UNL     1       3.711   2.244  19.060  0.00  0.00    +0.000 C 
ATOM     28  O   UNL     1       4.401   3.332  19.671  0.00  0.00    +0.000 OA
ENDBRANCH   1  28
TORSDOF 5
ENDMDL
MODEL 4
REMARK VINA RESULT:      -7.3      2.542      3.191
REMARK  Name = 
REMARK  6 active torsions:
REMARK  status: ('A' for Active; 'I' for Inactive)
REMARK    1  A    between atoms: C_1  and  O_2
REMARK    2  A    between atoms: O_2  and  C_3
REMARK    3  A    between atoms: C_6  and  N_7
REMARK    4  A    between atoms: N_10  and  C_11
REMARK    5  A    between atoms: N_14  and  C_15
REMARK    6  A    between atoms: C_22  and  N_23
REMARK                            x       y       z     vdW  Elec       q    Type
REMARK                         _______ _______ _______ _____ _____    ______ ____
ROOT
ATOM      1  C   UNL     1       3.502   4.605  19.807  0.00  0.00    +0.000 A 
ATOM      2  C   UNL     1       2.390   4.713  20.668  0.00  0.00    +0.000 A 
ATOM      3  C   UNL     1       1.630   5.875  20.713  0.00  0.00    +0.000 A 
ATOM      4  C   UNL     1       1.979   6.934  19.895  0.00  0.00    +0.000 A 
ATOM      5  C   UNL     1       3.067   6.834  19.028  0.00  0.00    +0.000 A 
ATOM      6  C   UNL     1       3.855   5.670  18.937  0.00  0.00    +0.000 A 
ENDROOT
BRANCH   4   7
ATOM      7  N   UNL     1       1.299   8.167  19.975  0.00  0.00    +0.000 N 
ATOM      8  C   UNL     1       1.364   9.154  18.909  0.00  0.00    +0.000 C 
ATOM      9  C   UNL     1       1.112  10.515  19.570  0.00  0.00    +0.000 C 
ATOM     10  N   UNL     1       0.287  10.271  20.774  0.00  0.00    +0.000 NA
ATOM     11  S   UNL     1       0.636   8.723  21.397  0.00  0.00    +0.000 S 
ATOM     12  O   UNL     1       1.689   8.844  22.379  0.00  0.00    +0.000 OA
ATOM     13  O   UNL     1      -0.607   8.051  21.672  0.00  0.00    +0.000 OA
BRANCH  10  14
ATOM     14  C   UNL     1       0.081  11.373  21.751  0.00  0.00    +0.000 C 
ATOM     15  C   UNL     1      -1.014  11.082  22.791  0.00  0.00    +0.000 C 
ATOM     16  C   UNL     1      -1.840  12.357  22.919  0.00  0.00    +0.000 C 
ATOM     17  N   UNL     1      -1.051  13.405  22.248  0.00  0.00    +0.000 N 
ATOM     18  C   UNL     1      -0.303  12.735  21.155  0.00  0.00    +0.000 C 
BRANCH  17  19
ATOM     19  C   UNL     1      -1.357  14.708  22.261  0.00  0.00    +0.000 C 
ATOM     20  N   UNL     1      -1.621  15.834  22.257  0.00  0.00    +0.000 NA
ENDBRANCH  17  19
ENDBRANCH  10  14
ENDBRANCH   4   7
BRANCH   6  21
ATOM     21  N   UNL     1       4.884   5.613  18.011  0.00  0.00    +0.000 N 
ATOM     22  C   UNL     1       6.297   5.839  18.370  0.00  0.00    +0.000 C 
ATOM     23  C   UNL     1       6.975   6.690  17.278  0.00  0.00    +0.000 C 
ATOM     24  O   UNL     1       6.798   6.139  15.961  0.00  0.00    +0.000 OA
ATOM     25  C   UNL     1       5.396   5.994  15.662  0.00  0.00    +0.000 C 
ATOM     26  C   UNL     1       4.724   5.048  16.666  0.00  0.00    +0.000 C 
ENDBRANCH   6  21
BRANCH   1  28
ATOM     27  C   UNL     1       3.515   2.356  19.053  0.00  0.00    +0.000 C 
ATOM     28  O   UNL     1       4.200   3.417  19.715  0.00  0.00    +0.000 OA
ENDBRANCH   1  28
TORSDOF 5
ENDMDL
MODEL 5
REMARK VINA RESULT:      -7.2      1.277      1.299
REMARK  Name = 
REMARK  6 active torsions:
REMARK  status: ('A' for Active; 'I' for Inactive)
REMARK    1  A    between atoms: C_1  and  O_2
REMARK    2  A    between atoms: O_2  and  C_3
REMARK    3  A    between atoms: C_6  and  N_7
REMARK    4  A    between atoms: N_10  and  C_11
REMARK    5  A    between atoms: N_14  and  C_15
REMARK    6  A    between atoms: C_22  and  N_23
REMARK                            x       y       z     vdW  Elec       q    Type
REMARK                         _______ _______ _______ _____ _____    ______ ____
ROOT
ATOM      1  C   UNL     1       3.315   4.247  17.879  0.00  0.00    +0.000 A 
ATOM      2  C   UNL     1       2.038   4.375  18.463  0.00  0.00    +0.000 A 
ATOM      3  C   UNL     1       1.566   5.609  18.892  0.00  0.00    +0.000 A 
ATOM      4  C   UNL     1       2.373   6.723  18.738  0.00  0.00    +0.000 A 
ATOM      5  C   UNL     1       3.631   6.611  18.148  0.00  0.00    +0.000 A 
ATOM      6  C   UNL     1       4.143   5.384  17.683  0.00  0.00    +0.000 A 
ENDROOT
BRANCH   4   7
ATOM      7  N   UNL     1       1.980   7.978  19.246  0.00  0.00    +0.000 N 
ATOM      8  C   UNL     1       1.717   8.188  20.661  0.00  0.00    +0.000 C 
ATOM      9  C   UNL     1       0.733   9.363  20.742  0.00  0.00    +0.000 C 
ATOM     10  N   UNL     1       0.953  10.201  19.544  0.00  0.00    +0.000 NA
ATOM     11  S   UNL     1       1.488   9.221  18.255  0.00  0.00    +0.000 S 
ATOM     12  O   UNL     1       0.339   8.779  17.499  0.00  0.00    +0.000 OA
ATOM     13  O   UNL     1       2.623   9.857  17.640  0.00  0.00    +0.000 OA
BRANCH  10  14
ATOM     14  C   UNL     1      -0.016  11.283  19.225  0.00  0.00    +0.000 C 
ATOM     15  C   UNL     1       0.202  12.569  20.039  0.00  0.00    +0.000 C 
ATOM     16  C   UNL     1      -1.178  13.037  20.488  0.00  0.00    +0.000 C 
ATOM     17  N   UNL     1      -2.138  12.255  19.689  0.00  0.00    +0.000 N 
ATOM     18  C   UNL     1      -1.499  10.939  19.433  0.00  0.00    +0.000 C 
BRANCH  17  19
ATOM     19  C   UNL     1      -3.459  12.463  19.675  0.00  0.00    +0.000 C 
ATOM     20  N   UNL     1      -4.602  12.645  19.648  0.00  0.00    +0.000 NA
ENDBRANCH  17  19
ENDBRANCH  10  14
ENDBRANCH   4   7
BRANCH   6  21
ATOM     21  N   UNL     1       5.375   5.353  17.051  0.00  0.00    +0.000 N 
ATOM     22  C   UNL     1       5.525   5.402  15.585  0.00  0.00    +0.000 C 
ATOM     23  C   UNL     1       6.623   4.412  15.147  0.00  0.00    +0.000 C 
ATOM     24  O   UNL     1       7.858   4.609  15.857  0.00  0.00    +0.000 OA
ATOM     25  C   UNL     1       7.643   4.497  17.278  0.00  0.00    +0.000 C 
ATOM     26  C   UNL     1       6.645   5.559  17.758  0.00  0.00    +0.000 C 
ENDBRANCH   6  21
BRANCH   1  28
ATOM     27  C   UNL     1       3.312   1.888  18.126  0.00  0.00    +0.000 C 
ATOM     28  O   UNL     1       3.738   3.029  17.384  0.00  0.00    +0.000 OA
ENDBRANCH   1  28
TORSDOF 5
ENDMDL
MODEL 6
REMARK VINA RESULT:      -6.9      3.258      4.803
REMARK  Name = 
REMARK  6 active torsions:
REMARK  status: ('A' for Active; 'I' for Inactive)
REMARK    1  A    between atoms: C_1  and  O_2
REMARK    2  A    between atoms: O_2  and  C_3
REMARK    3  A    between atoms: C_6  and  N_7
REMARK    4  A    between atoms: N_10  and  C_11
REMARK    5  A    between atoms: N_14  and  C_15
REMARK    6  A    between atoms: C_22  and  N_23
REMARK                            x       y       z     vdW  Elec       q    Type
REMARK                         _______ _______ _______ _____ _____    ______ ____
ROOT
ATOM      1  C   UNL     1       3.207   6.896  18.054  0.00  0.00    +0.000 A 
ATOM      2  C   UNL     1       2.999   8.168  17.482  0.00  0.00    +0.000 A 
ATOM      3  C   UNL     1       2.141   9.088  18.073  0.00  0.00    +0.000 A 
ATOM      4  C   UNL     1       1.489   8.737  19.242  0.00  0.00    +0.000 A 
ATOM      5  C   UNL     1       1.699   7.488  19.825  0.00  0.00    +0.000 A 
ATOM      6  C   UNL     1       2.572   6.532  19.270  0.00  0.00    +0.000 A 
ENDROOT
BRANCH   4   7
ATOM      7  N   UNL     1       0.536   9.597  19.825  0.00  0.00    +0.000 N 
ATOM      8  C   UNL     1      -0.066  10.695  19.085  0.00  0.00    +0.000 C 
ATOM      9  C   UNL     1      -0.481  11.738  20.132  0.00  0.00    +0.000 C 
ATOM     10  N   UNL     1      -0.736  11.013  21.395  0.00  0.00    +0.000 NA
ATOM     11  S   UNL     1       0.256   9.627  21.465  0.00  0.00    +0.000 S 
ATOM     12  O   UNL     1       1.488   9.971  22.136  0.00  0.00    +0.000 OA
ATOM     13  O   UNL     1      -0.556   8.506  21.861  0.00  0.00    +0.000 OA
BRANCH  10  14
ATOM     14  C   UNL     1      -0.924  11.784  22.653  0.00  0.00    +0.000 C 
ATOM     15  C   UNL     1      -2.372  11.777  23.172  0.00  0.00    +0.000 C 
ATOM     16  C   UNL     1      -2.686  13.206  23.601  0.00  0.00    +0.000 C 
ATOM     17  N   UNL     1      -1.387  13.900  23.638  0.00  0.00    +0.000 N 
ATOM     18  C   UNL     1      -0.543  13.271  22.591  0.00  0.00    +0.000 C 
BRANCH  17  19
ATOM     19  C   UNL     1      -1.204  15.140  24.106  0.00  0.00    +0.000 C 
ATOM     20  N   UNL     1      -1.050  16.218  24.498  0.00  0.00    +0.000 NA
ENDBRANCH  17  19
ENDBRANCH  10  14
ENDBRANCH   4   7
BRANCH   6  21
ATOM     21  N   UNL     1       2.783   5.334  19.933  0.00  0.00    +0.000 N 
ATOM     22  C   UNL     1       4.088   4.649  19.953  0.00  0.00    +0.000 C 
ATOM     23  C   UNL     1       3.875   3.131  19.783  0.00  0.00    +0.000 C 
ATOM     24  O   UNL     1       2.932   2.598  20.729  0.00  0.00    +0.000 OA
ATOM     25  C   UNL     1       1.668   3.280  20.616  0.00  0.00    +0.000 C 
ATOM     26  C   UNL     1       1.835   4.778  20.907  0.00  0.00    +0.000 C 
ENDBRANCH   6  21
BRANCH   1  28
ATOM     27  C   UNL     1       5.296   6.629  16.961  0.00  0.00    +0.000 C 
ATOM     28  O   UNL     1       4.123   6.023  17.500  0.00  0.00    +0.000 OA
ENDBRANCH   1  28
TORSDOF 5
ENDMDL
MODEL 7
REMARK VINA RESULT:      -6.8      3.181      4.537
REMARK  Name = 
REMARK  6 active torsions:
REMARK  status: ('A' for Active; 'I' for Inactive)
REMARK    1  A    between atoms: C_1  and  O_2
REMARK    2  A    between atoms: O_2  and  C_3
REMARK    3  A    between atoms: C_6  and  N_7
REMARK    4  A    between atoms: N_10  and  C_11
REMARK    5  A    between atoms: N_14  and  C_15
REMARK    6  A    between atoms: C_22  and  N_23
REMARK                            x       y       z     vdW  Elec       q    Type
REMARK                         _______ _______ _______ _____ _____    ______ ____
ROOT
ATOM      1  C   UNL     1       2.510   6.928  18.350  0.00  0.00    +0.000 A 
ATOM      2  C   UNL     1       2.445   8.301  18.034  0.00  0.00    +0.000 A 
ATOM      3  C   UNL     1       1.976   9.227  18.958  0.00  0.00    +0.000 A 
ATOM      4  C   UNL     1       1.571   8.781  20.203  0.00  0.00    +0.000 A 
ATOM      5  C   UNL     1       1.645   7.428  20.532  0.00  0.00    +0.000 A 
ATOM      6  C   UNL     1       2.130   6.457  19.634  0.00  0.00    +0.000 A 
ENDROOT
BRANCH   4   7
ATOM      7  N   UNL     1       0.997   9.667  21.138  0.00  0.00    +0.000 N 
ATOM      8  C   UNL     1       0.606   9.234  22.470  0.00  0.00    +0.000 C 
ATOM      9  C   UNL     1      -0.512  10.185  22.918  0.00  0.00    +0.000 C 
ATOM     10  N   UNL     1      -0.304  11.468  22.211  0.00  0.00    +0.000 NA
ATOM     11  S   UNL     1       0.437  11.173  20.704  0.00  0.00    +0.000 S 
ATOM     12  O   UNL     1      -0.593  11.011  19.704  0.00  0.00    +0.000 OA
ATOM     13  O   UNL     1       1.532  12.094  20.547  0.00  0.00    +0.000 OA
BRANCH  10  14
ATOM     14  C   UNL     1      -1.367  12.507  22.261  0.00  0.00    +0.000 C 
ATOM     15  C   UNL     1      -1.000  13.727  23.122  0.00  0.00    +0.000 C 
ATOM     16  C   UNL     1      -2.236  14.060  23.950  0.00  0.00    +0.000 C 
ATOM     17  N   UNL     1      -3.336  13.289  23.344  0.00  0.00    +0.000 N 
ATOM     18  C   UNL     1      -2.730  12.047  22.801  0.00  0.00    +0.000 C 
BRANCH  17  19
ATOM     19  C   UNL     1      -4.624  13.408  23.686  0.00  0.00    +0.000 C 
ATOM     20  N   UNL     1      -5.741  13.510  23.968  0.00  0.00    +0.000 NA
ENDBRANCH  17  19
ENDBRANCH  10  14
ENDBRANCH   4   7
BRANCH   6  21
ATOM     21  N   UNL     1       2.235   5.138  20.045  0.00  0.00    +0.000 N 
ATOM     22  C   UNL     1       3.530   4.468  20.261  0.00  0.00    +0.000 C 
ATOM     23  C   UNL     1       3.464   3.031  19.707  0.00  0.00    +0.000 C 
ATOM     24  O   UNL     1       2.342   2.293  20.222  0.00  0.00    +0.000 OA
ATOM     25  C   UNL     1       1.111   2.982  19.930  0.00  0.00    +0.000 C 
ATOM     26  C   UNL     1       1.103   4.372  20.580  0.00  0.00    +0.000 C 
ENDBRANCH   6  21
BRANCH   1  28
ATOM     27  C   UNL     1       4.411   6.273  17.090  0.00  0.00    +0.000 C 
ATOM     28  O   UNL     1       3.053   6.030  17.451  0.00  0.00    +0.000 OA
ENDBRANCH   1  28
TORSDOF 5
ENDMDL
MODEL 8
REMARK VINA RESULT:      -6.7      1.720      3.219
REMARK  Name = 
REMARK  6 active torsions:
REMARK  status: ('A' for Active; 'I' for Inactive)
REMARK    1  A    between atoms: C_1  and  O_2
REMARK    2  A    between atoms: O_2  and  C_3
REMARK    3  A    between atoms: C_6  and  N_7
REMARK    4  A    between atoms: N_10  and  C_11
REMARK    5  A    between atoms: N_14  and  C_15
REMARK    6  A    between atoms: C_22  and  N_23
REMARK                            x       y       z     vdW  Elec       q    Type
REMARK                         _______ _______ _______ _____ _____    ______ ____
ROOT
ATOM      1  C   UNL     1       3.731   5.671  17.510  0.00  0.00    +0.000 A 
ATOM      2  C   UNL     1       4.031   7.002  17.155  0.00  0.00    +0.000 A 
ATOM      3  C   UNL     1       3.379   8.069  17.761  0.00  0.00    +0.000 A 
ATOM      4  C   UNL     1       2.424   7.807  18.727  0.00  0.00    +0.000 A 
ATOM      5  C   UNL     1       2.130   6.495  19.097  0.00  0.00    +0.000 A 
ATOM      6  C   UNL     1       2.777   5.384  18.522  0.00  0.00    +0.000 A 
ENDROOT
BRANCH   4   7
ATOM      7  N   UNL     1       1.667   8.850  19.300  0.00  0.00    +0.000 N 
ATOM      8  C   UNL     1       1.107   8.750  20.638  0.00  0.00    +0.000 C 
ATOM      9  C   UNL     1      -0.118   9.675  20.658  0.00  0.00    +0.000 C 
ATOM     10  N   UNL     1       0.120  10.738  19.659  0.00  0.00    +0.000 NA
ATOM     11  S   UNL     1       1.094  10.127  18.399  0.00  0.00    +0.000 S 
ATOM     12  O   UNL     1       0.236   9.608  17.359  0.00  0.00    +0.000 OA
ATOM     13  O   UNL     1       2.146  11.073  18.137  0.00  0.00    +0.000 OA
BRANCH  10  14
ATOM     14  C   UNL     1      -0.995  11.647  19.283  0.00  0.00    +0.000 C 
ATOM     15  C   UNL     1      -1.495  12.526  20.441  0.00  0.00    +0.000 C 
ATOM     16  C   UNL     1      -3.018  12.501  20.378  0.00  0.00    +0.000 C 
ATOM     17  N   UNL     1      -3.348  11.923  19.064  0.00  0.00    +0.000 N 
ATOM     18  C   UNL     1      -2.261  10.967  18.739  0.00  0.00    +0.000 C 
BRANCH  17  19
ATOM     19  C   UNL     1      -4.583  11.858  18.553  0.00  0.00    +0.000 C 
ATOM     20  N   UNL     1      -5.648  11.789  18.106  0.00  0.00    +0.000 NA
ENDBRANCH  17  19
ENDBRANCH  10  14
ENDBRANCH   4   7
BRANCH   6  21
ATOM     21  N   UNL     1       2.482   4.110  18.978  0.00  0.00    +0.000 N 
ATOM     22  C   UNL     1       1.819   3.093  18.141  0.00  0.00    +0.000 C 
ATOM     23  C   UNL     1       0.776   2.334  18.984  0.00  0.00    +0.000 C 
ATOM     24  O   UNL     1       1.331   1.803  20.200  0.00  0.00    +0.000 OA
ATOM     25  C   UNL     1       1.915   2.859  20.988  0.00  0.00    +0.000 C 
ATOM     26  C   UNL     1       3.045   3.549  20.213  0.00  0.00    +0.000 C 
ENDBRANCH   6  21
BRANCH   1  28
ATOM     27  C   UNL     1       5.762   4.447  17.467  0.00  0.00    +0.000 C 
ATOM     28  O   UNL     1       4.442   4.624  16.957  0.00  0.00    +0.000 OA
ENDBRANCH   1  28
TORSDOF 5
ENDMDL
MODEL 9
REMARK VINA RESULT:      -6.7      1.292      1.649
REMARK  Name = 
REMARK  6 active torsions:
REMARK  status: ('A' for Active; 'I' for Inactive)
REMARK    1  A    between atoms: C_1  and  O_2
REMARK    2  A    between atoms: O_2  and  C_3
REMARK    3  A    between atoms: C_6  and  N_7
REMARK    4  A    between atoms: N_10  and  C_11
REMARK    5  A    between atoms: N_14  and  C_15
REMARK    6  A    between atoms: C_22  and  N_23
REMARK                            x       y       z     vdW  Elec       q    Type
REMARK                         _______ _______ _______ _____ _____    ______ ____
ROOT
ATOM      1  C   UNL     1       3.277   3.740  18.023  0.00  0.00    +0.000 A 
ATOM      2  C   UNL     1       2.059   3.913  18.711  0.00  0.00    +0.000 A 
ATOM      3  C   UNL     1       1.630   5.176  19.101  0.00  0.00    +0.000 A 
ATOM      4  C   UNL     1       2.420   6.272  18.802  0.00  0.00    +0.000 A 
ATOM      5  C   UNL     1       3.619   6.114  18.108  0.00  0.00    +0.000 A 
ATOM      6  C   UNL     1       4.084   4.856  17.678  0.00  0.00    +0.000 A 
ENDROOT
BRANCH   4   7
ATOM      7  N   UNL     1       2.076   7.560  19.262  0.00  0.00    +0.000 N 
ATOM      8  C   UNL     1       1.803   7.829  20.665  0.00  0.00    +0.000 C 
ATOM      9  C   UNL     1       0.872   9.049  20.692  0.00  0.00    +0.000 C 
ATOM     10  N   UNL     1       1.145   9.835  19.469  0.00  0.00    +0.000 NA
ATOM     11  S   UNL     1       1.654   8.789  18.223  0.00  0.00    +0.000 S 
ATOM     12  O   UNL     1       0.497   8.373  17.465  0.00  0.00    +0.000 OA
ATOM     13  O   UNL     1       2.825   9.353  17.604  0.00  0.00    +0.000 OA
BRANCH  10  14
ATOM     14  C   UNL     1       0.230  10.947  19.099  0.00  0.00    +0.000 C 
ATOM     15  C   UNL     1       0.540  12.270  19.820  0.00  0.00    +0.000 C 
ATOM     16  C   UNL     1      -0.799  12.845  20.266  0.00  0.00    +0.000 C 
ATOM     17  N   UNL     1      -1.822  12.067  19.545  0.00  0.00    +0.000 N 
ATOM     18  C   UNL     1      -1.264  10.704  19.364  0.00  0.00    +0.000 C 
BRANCH  17  19
ATOM     19  C   UNL     1      -3.129  12.350  19.547  0.00  0.00    +0.000 C 
ATOM     20  N   UNL     1      -4.261  12.589  19.562  0.00  0.00    +0.000 NA
ENDBRANCH  17  19
ENDBRANCH  10  14
ENDBRANCH   4   7
BRANCH   6  21
ATOM     21  N   UNL     1       5.254   4.776  16.940  0.00  0.00    +0.000 N 
ATOM     22  C   UNL     1       6.593   4.868  17.549  0.00  0.00    +0.000 C 
ATOM     23  C   UNL     1       7.507   5.729  16.654  0.00  0.00    +0.000 C 
ATOM     24  O   UNL     1       7.527   5.275  15.289  0.00  0.00    +0.000 OA
ATOM     25  C   UNL     1       6.192   5.260  14.746  0.00  0.00    +0.000 C 
ATOM     26  C   UNL     1       5.294   4.309  15.548  0.00  0.00    +0.000 C 
ENDBRANCH   6  21
BRANCH   1  28
ATOM     27  C   UNL     1       3.634   1.455  18.553  0.00  0.00    +0.000 C 
ATOM     28  O   UNL     1       3.652   2.490  17.571  0.00  0.00    +0.000 OA
ENDBRANCH   1  28
TORSDOF 5
ENDMDL
