MODEL 1
REMARK VINA RESULT:      -7.2      0.000      0.000
REMARK  Name = 
REMARK  6 active torsions:
REMARK  status: ('A' for Active; 'I' for Inactive)
REMARK    1  A    between atoms: C_1  and  C_2
REMARK    2  A    between atoms: C_2  and  C_3
REMARK    3  A    between atoms: C_3  and  C_4
REMARK    4  A    between atoms: C_3  and  C_6
REMARK    5  A    between atoms: C_4  and  C_5
REMARK    6  A    between atoms: C_6  and  C_7
REMARK                            x       y       z     vdW  Elec       q    Type
REMARK                         _______ _______ _______ _____ _____    ______ ____
ROOT
ATOM      1  C   UNL     1       7.652   8.260  17.806  0.00  0.00    +0.000 A 
ATOM      2  C   UNL     1       6.294   8.110  17.495  0.00  0.00    +0.000 A 
ATOM      3  C   UNL     1       5.841   6.713  17.607  0.00  0.00    +0.000 A 
ATOM      4  C   UNL     1       6.991   5.992  17.889  0.00  0.00    +0.000 A 
ATOM      5  S   UNL     1       8.156   6.887  18.718  0.00  0.00    +0.000 S 
ATOM      6  C   UNL     1       7.317   4.695  17.256  0.00  0.00    +0.000 C 
ATOM      7  C   UNL     1       6.438   4.614  15.982  0.00  0.00    +0.000 C 
ATOM      8  N   UNL     1       5.008   4.736  16.313  0.00  0.00    +0.000 NA
ATOM      9  C   UNL     1       4.665   3.497  16.996  0.00  0.00    +0.000 C 
ATOM     10  C   UNL     1       3.777   3.547  18.213  0.00  0.00    +0.000 A 
ATOM     11  C   UNL     1       3.559   2.274  18.751  0.00  0.00    +0.000 A 
ATOM     12  C   UNL     1       2.271   1.787  18.692  0.00  0.00    +0.000 A 
ATOM     13  C   UNL     1       1.239   2.656  18.330  0.00  0.00    +0.000 A 
ATOM     14  C   UNL     1       1.475   4.036  18.150  0.00  0.00    +0.000 A 
ATOM     15  C   UNL     1       2.791   4.516  18.127  0.00  0.00    +0.000 A 
ATOM     16  C   UNL     1       3.257   5.932  17.814  0.00  0.00    +0.000 C 
ATOM     17  C   UNL     1       4.595   6.023  16.960  0.00  0.00    +0.000 C 
ENDROOT
BRANCH   1  18
ATOM     18  C   UNL     1       8.699   9.310  17.455  0.00  0.00    +0.000 C 
BRANCH  18  19
ATOM     19  C   UNL     1       8.695  10.537  18.443  0.00  0.00    +0.000 C 
BRANCH  19  21
ATOM     20  C   UNL     1       9.271  11.150  20.890  0.00  0.00    +0.000 C 
ATOM     21  C   UNL     1       9.598  10.284  19.675  0.00  0.00    +0.000 C 
ENDBRANCH  19  21
BRANCH  19  22
ATOM     22  C   UNL     1       8.992  11.882  17.736  0.00  0.00    +0.000 C 
ATOM     23  C   UNL     1      10.462  12.238  17.581  0.00  0.00    +0.000 C 
ENDBRANCH  19  22
ENDBRANCH  18  19
ENDBRANCH   1  18
TORSDOF 4
ENDMDL
MODEL 2
REMARK VINA RESULT:      -7.2      3.650      6.626
REMARK  Name = 
REMARK  6 active torsions:
REMARK  status: ('A' for Active; 'I' for Inactive)
REMARK    1  A    between atoms: C_1  and  C_2
REMARK    2  A    between atoms: C_2  and  C_3
REMARK    3  A    between atoms: C_3  and  C_4
REMARK    4  A    between atoms: C_3  and  C_6
REMARK    5  A    between atoms: C_4  and  C_5
REMARK    6  A    between atoms: C_6  and  C_7
REMARK                            x       y       z     vdW  Elec       q    Type
REMARK                         _______ _______ _______ _____ _____    ______ ____
ROOT
ATOM      1  C   UNL     1       6.039   4.199  13.967  0.00  0.00    +0.000 A 
ATOM      2  C   UNL     1       5.306   3.350  14.807  0.00  0.00    +0.000 A 
ATOM      3  C   UNL     1       4.871   4.019  16.045  0.00  0.00    +0.000 A 
ATOM      4  C   UNL     1       5.454   5.276  15.989  0.00  0.00    +0.000 A 
ATOM      5  S   UNL     1       5.702   5.829  14.415  0.00  0.00    +0.000 S 
ATOM      6  C   UNL     1       6.098   5.928  17.150  0.00  0.00    +0.000 C 
ATOM      7  C   UNL     1       6.390   4.793  18.165  0.00  0.00    +0.000 C 
ATOM      8  N   UNL     1       5.156   4.077  18.533  0.00  0.00    +0.000 NA
ATOM      9  C   UNL     1       4.395   5.018  19.342  0.00  0.00    +0.000 C 
ATOM     10  C   UNL     1       2.907   5.131  19.135  0.00  0.00    +0.000 A 
ATOM     11  C   UNL     1       2.335   6.086  19.983  0.00  0.00    +0.000 A 
ATOM     12  C   UNL     1       1.462   5.622  20.944  0.00  0.00    +0.000 A 
ATOM     13  C   UNL     1       1.022   4.298  20.869  0.00  0.00    +0.000 A 
ATOM     14  C   UNL     1       1.353   3.479  19.768  0.00  0.00    +0.000 A 
ATOM     15  C   UNL     1       2.305   3.920  18.838  0.00  0.00    +0.000 A 
ATOM     16  C   UNL     1       2.892   3.139  17.671  0.00  0.00    +0.000 C 
ATOM     17  C   UNL     1       4.441   3.389  17.411  0.00  0.00    +0.000 C 
ENDROOT
BRANCH   1  18
ATOM     18  C   UNL     1       7.051   3.957  12.854  0.00  0.00    +0.000 C 
BRANCH  18  19
ATOM     19  C   UNL     1       6.426   3.237  11.601  0.00  0.00    +0.000 C 
BRANCH  19  21
ATOM     20  C   UNL     1       6.402   0.703  11.079  0.00  0.00    +0.000 C 
ATOM     21  C   UNL     1       7.234   1.977  11.201  0.00  0.00    +0.000 C 
ENDBRANCH  19  21
BRANCH  19  22
ATOM     22  C   UNL     1       4.910   2.964  11.754  0.00  0.00    +0.000 C 
ATOM     23  C   UNL     1       4.005   3.692  10.773  0.00  0.00    +0.000 C 
ENDBRANCH  19  22
ENDBRANCH  18  19
ENDBRANCH   1  18
TORSDOF 4
ENDMDL
MODEL 3
REMARK VINA RESULT:      -7.1      3.828      6.033
REMARK  Name = 
REMARK  6 active torsions:
REMARK  status: ('A' for Active; 'I' for Inactive)
REMARK    1  A    between atoms: C_1  and  C_2
REMARK    2  A    between atoms: C_2  and  C_3
REMARK    3  A    between atoms: C_3  and  C_4
REMARK    4  A    between atoms: C_3  and  C_6
REMARK    5  A    between atoms: C_4  and  C_5
REMARK    6  A    between atoms: C_6  and  C_7
REMARK                            x       y       z     vdW  Elec       q    Type
REMARK                         _______ _______ _______ _____ _____    ______ ____
ROOT
ATOM      1  C   UNL     1       6.318   5.676  16.428  0.00  0.00    +0.000 A 
ATOM      2  C   UNL     1       5.138   6.399  16.203  0.00  0.00    +0.000 A 
ATOM      3  C   UNL     1       4.330   6.553  17.425  0.00  0.00    +0.000 A 
ATOM      4  C   UNL     1       4.997   5.807  18.385  0.00  0.00    +0.000 A 
ATOM      5  S   UNL     1       6.660   5.706  18.117  0.00  0.00    +0.000 S 
ATOM      6  C   UNL     1       4.312   4.918  19.348  0.00  0.00    +0.000 C 
ATOM      7  C   UNL     1       2.905   4.653  18.753  0.00  0.00    +0.000 C 
ATOM      8  N   UNL     1       2.175   5.914  18.532  0.00  0.00    +0.000 NA
ATOM      9  C   UNL     1       1.853   6.408  19.862  0.00  0.00    +0.000 C 
ATOM     10  C   UNL     1       2.002   7.879  20.158  0.00  0.00    +0.000 A 
ATOM     11  C   UNL     1       1.663   8.180  21.481  0.00  0.00    +0.000 A 
ATOM     12  C   UNL     1       0.547   8.967  21.674  0.00  0.00    +0.000 A 
ATOM     13  C   UNL     1      -0.028   9.601  20.569  0.00  0.00    +0.000 A 
ATOM     14  C   UNL     1       0.584   9.550  19.298  0.00  0.00    +0.000 A 
ATOM     15  C   UNL     1       1.666   8.686  19.084  0.00  0.00    +0.000 A 
ATOM     16  C   UNL     1       2.368   8.389  17.766  0.00  0.00    +0.000 C 
ATOM     17  C   UNL     1       2.805   6.873  17.568  0.00  0.00    +0.000 C 
ENDROOT
BRANCH   1  18
ATOM     18  C   UNL     1       7.248   4.878  15.522  0.00  0.00    +0.000 C 
BRANCH  18  19
ATOM     19  C   UNL     1       6.776   4.857  14.020  0.00  0.00    +0.000 C 
BRANCH  19  21
ATOM     20  C   UNL     1       8.036   6.094  12.129  0.00  0.00    +0.000 C 
ATOM     21  C   UNL     1       7.976   4.871  13.042  0.00  0.00    +0.000 C 
ENDBRANCH  19  21
BRANCH  19  22
ATOM     22  C   UNL     1       5.761   3.726  13.722  0.00  0.00    +0.000 C 
ATOM     23  C   UNL     1       5.568   3.381  12.254  0.00  0.00    +0.000 C 
ENDBRANCH  19  22
ENDBRANCH  18  19
ENDBRANCH   1  18
TORSDOF 4
ENDMDL
MODEL 4
REMARK VINA RESULT:      -6.6      3.725      6.134
REMARK  Name = 
REMARK  6 active torsions:
REMARK  status: ('A' for Active; 'I' for Inactive)
REMARK    1  A    between atoms: C_1  and  C_2
REMARK    2  A    between atoms: C_2  and  C_3
REMARK    3  A    between atoms: C_3  and  C_4
REMARK    4  A    between atoms: C_3  and  C_6
REMARK    5  A    between atoms: C_4  and  C_5
REMARK    6  A    between atoms: C_6  and  C_7
REMARK                            x       y       z     vdW  Elec       q    Type
REMARK                         _______ _______ _______ _____ _____    ______ ____
ROOT
ATOM      1  C   UNL     1       6.093   6.139  16.490  0.00  0.00    +0.000 A 
ATOM      2  C   UNL     1       4.870   6.799  16.303  0.00  0.00    +0.000 A 
ATOM      3  C   UNL     1       4.107   6.937  17.555  0.00  0.00    +0.000 A 
ATOM      4  C   UNL     1       4.850   6.243  18.498  0.00  0.00    +0.000 A 
ATOM      5  S   UNL     1       6.503   6.218  18.162  0.00  0.00    +0.000 S 
ATOM      6  C   UNL     1       4.250   5.341  19.505  0.00  0.00    +0.000 C 
ATOM      7  C   UNL     1       2.835   4.996  18.976  0.00  0.00    +0.000 C 
ATOM      8  N   UNL     1       2.035   6.215  18.763  0.00  0.00    +0.000 NA
ATOM      9  C   UNL     1       1.744   6.719  20.097  0.00  0.00    +0.000 C 
ATOM     10  C   UNL     1       1.832   8.201  20.361  0.00  0.00    +0.000 A 
ATOM     11  C   UNL     1       1.534   8.511  21.692  0.00  0.00    +0.000 A 
ATOM     12  C   UNL     1       0.389   9.247  21.918  0.00  0.00    +0.000 A 
ATOM     13  C   UNL     1      -0.261   9.830  20.828  0.00  0.00    +0.000 A 
ATOM     14  C   UNL     1       0.298   9.784  19.533  0.00  0.00    +0.000 A 
ATOM     15  C   UNL     1       1.412   8.969  19.288  0.00  0.00    +0.000 A 
ATOM     16  C   UNL     1       2.073   8.681  17.947  0.00  0.00    +0.000 C 
ATOM     17  C   UNL     1       2.576   7.184  17.757  0.00  0.00    +0.000 C 
ENDROOT
BRANCH   1  18
ATOM     18  C   UNL     1       7.023   5.369  15.560  0.00  0.00    +0.000 C 
BRANCH  18  19
ATOM     19  C   UNL     1       6.441   3.972  15.126  0.00  0.00    +0.000 C 
BRANCH  19  21
ATOM     20  C   UNL     1       4.172   3.319  16.185  0.00  0.00    +0.000 C 
ATOM     21  C   UNL     1       5.695   3.274  16.290  0.00  0.00    +0.000 C 
ENDBRANCH  19  21
BRANCH  19  22
ATOM     22  C   UNL     1       5.605   4.043  13.824  0.00  0.00    +0.000 C 
ATOM     23  C   UNL     1       6.315   3.594  12.557  0.00  0.00    +0.000 C 
ENDBRANCH  19  22
ENDBRANCH  18  19
ENDBRANCH   1  18
TORSDOF 4
ENDMDL
MODEL 5
REMARK VINA RESULT:      -6.4      4.213      6.172
REMARK  Name = 
REMARK  6 active torsions:
REMARK  status: ('A' for Active; 'I' for Inactive)
REMARK    1  A    between atoms: C_1  and  C_2
REMARK    2  A    between atoms: C_2  and  C_3
REMARK    3  A    between atoms: C_3  and  C_4
REMARK    4  A    between atoms: C_3  and  C_6
REMARK    5  A    between atoms: C_4  and  C_5
REMARK    6  A    between atoms: C_6  and  C_7
REMARK                            x       y       z     vdW  Elec       q    Type
REMARK                         _______ _______ _______ _____ _____    ______ ____
ROOT
ATOM      1  C   UNL     1       5.743   4.645  16.655  0.00  0.00    +0.000 A 
ATOM      2  C   UNL     1       4.646   5.482  16.407  0.00  0.00    +0.000 A 
ATOM      3  C   UNL     1       3.948   5.876  17.643  0.00  0.00    +0.000 A 
ATOM      4  C   UNL     1       4.584   5.166  18.649  0.00  0.00    +0.000 A 
ATOM      5  S   UNL     1       6.200   4.824  18.307  0.00  0.00    +0.000 S 
ATOM      6  C   UNL     1       3.865   4.487  19.748  0.00  0.00    +0.000 C 
ATOM      7  C   UNL     1       2.399   4.338  19.266  0.00  0.00    +0.000 C 
ATOM      8  N   UNL     1       1.812   5.648  18.932  0.00  0.00    +0.000 NA
ATOM      9  C   UNL     1       1.643   6.327  20.208  0.00  0.00    +0.000 C 
ATOM     10  C   UNL     1       1.987   7.791  20.314  0.00  0.00    +0.000 A 
ATOM     11  C   UNL     1       1.778   8.282  21.607  0.00  0.00    +0.000 A 
ATOM     12  C   UNL     1       0.781   9.222  21.762  0.00  0.00    +0.000 A 
ATOM     13  C   UNL     1       0.212   9.794  20.621  0.00  0.00    +0.000 A 
ATOM     14  C   UNL     1       0.725   9.521  19.334  0.00  0.00    +0.000 A 
ATOM     15  C   UNL     1       1.679   8.507  19.169  0.00  0.00    +0.000 A 
ATOM     16  C   UNL     1       2.249   7.974  17.862  0.00  0.00    +0.000 C 
ATOM     17  C   UNL     1       2.486   6.402  17.827  0.00  0.00    +0.000 C 
ENDROOT
BRANCH   1  18
ATOM     18  C   UNL     1       6.506   3.637  15.805  0.00  0.00    +0.000 C 
BRANCH  18  19
ATOM     19  C   UNL     1       6.648   4.081  14.301  0.00  0.00    +0.000 C 
BRANCH  19  21
ATOM     20  C   UNL     1       5.391   3.258  12.195  0.00  0.00    +0.000 C 
ATOM     21  C   UNL     1       5.303   3.973  13.542  0.00  0.00    +0.000 C 
ENDBRANCH  19  21
BRANCH  19  22
ATOM     22  C   UNL     1       7.328   5.463  14.141  0.00  0.00    +0.000 C 
ATOM     23  C   UNL     1       8.205   5.630  12.911  0.00  0.00    +0.000 C 
ENDBRANCH  19  22
ENDBRANCH  18  19
ENDBRANCH   1  18
TORSDOF 4
ENDMDL
MODEL 6
REMARK VINA RESULT:      -6.3      7.068      9.489
REMARK  Name = 
REMARK  6 active torsions:
REMARK  status: ('A' for Active; 'I' for Inactive)
REMARK    1  A    between atoms: C_1  and  C_2
REMARK    2  A    between atoms: C_2  and  C_3
REMARK    3  A    between atoms: C_3  and  C_4
REMARK    4  A    between atoms: C_3  and  C_6
REMARK    5  A    between atoms: C_4  and  C_5
REMARK    6  A    between atoms: C_6  and  C_7
REMARK                            x       y       z     vdW  Elec       q    Type
REMARK                         _______ _______ _______ _____ _____    ______ ____
ROOT
ATOM      1  C   UNL     1       1.895   8.203  19.072  0.00  0.00    +0.000 A 
ATOM      2  C   UNL     1       1.431   8.483  20.365  0.00  0.00    +0.000 A 
ATOM      3  C   UNL     1       0.744   9.783  20.448  0.00  0.00    +0.000 A 
ATOM      4  C   UNL     1       0.895  10.342  19.189  0.00  0.00    +0.000 A 
ATOM      5  S   UNL     1       1.031   9.196  17.959  0.00  0.00    +0.000 S 
ATOM      6  C   UNL     1       1.237  11.764  18.964  0.00  0.00    +0.000 C 
ATOM      7  C   UNL     1       1.826  12.274  20.304  0.00  0.00    +0.000 C 
ATOM      8  N   UNL     1       0.870  12.092  21.410  0.00  0.00    +0.000 NA
ATOM      9  C   UNL     1      -0.192  13.056  21.160  0.00  0.00    +0.000 C 
ATOM     10  C   UNL     1      -1.626  12.643  21.371  0.00  0.00    +0.000 A 
ATOM     11  C   UNL     1      -2.516  13.681  21.076  0.00  0.00    +0.000 A 
ATOM     12  C   UNL     1      -3.241  14.198  22.128  0.00  0.00    +0.000 A 
ATOM     13  C   UNL     1      -3.228  13.520  23.350  0.00  0.00    +0.000 A 
ATOM     14  C   UNL     1      -2.597  12.265  23.483  0.00  0.00    +0.000 A 
ATOM     15  C   UNL     1      -1.792  11.781  22.443  0.00  0.00    +0.000 A 
ATOM     16  C   UNL     1      -0.927  10.528  22.445  0.00  0.00    +0.000 C 
ATOM     17  C   UNL     1       0.471  10.678  21.702  0.00  0.00    +0.000 C 
ENDROOT
BRANCH   1  18
ATOM     18  C   UNL     1       2.985   7.292  18.523  0.00  0.00    +0.000 C 
BRANCH  18  19
ATOM     19  C   UNL     1       3.222   6.011  19.408  0.00  0.00    +0.000 C 
BRANCH  19  21
ATOM     20  C   UNL     1       1.335   4.625  20.509  0.00  0.00    +0.000 C 
ATOM     21  C   UNL     1       2.090   4.971  19.227  0.00  0.00    +0.000 C 
ENDBRANCH  19  21
BRANCH  19  22
ATOM     22  C   UNL     1       4.637   5.407  19.231  0.00  0.00    +0.000 C 
ATOM     23  C   UNL     1       4.698   3.896  19.092  0.00  0.00    +0.000 C 
ENDBRANCH  19  22
ENDBRANCH  18  19
ENDBRANCH   1  18
TORSDOF 4
ENDMDL
MODEL 7
REMARK VINA RESULT:      -6.3      3.654      5.834
REMARK  Name = 
REMARK  6 active torsions:
REMARK  status: ('A' for Active; 'I' for Inactive)
REMARK    1  A    between atoms: C_1  and  C_2
REMARK    2  A    between atoms: C_2  and  C_3
REMARK    3  A    between atoms: C_3  and  C_4
REMARK    4  A    between atoms: C_3  and  C_6
REMARK    5  A    between atoms: C_4  and  C_5
REMARK    6  A    between atoms: C_6  and  C_7
REMARK                            x       y       z     vdW  Elec       q    Type
REMARK                         _______ _______ _______ _____ _____    ______ ____
ROOT
ATOM      1  C   UNL     1       6.392   4.608  14.580  0.00  0.00    +0.000 A 
ATOM      2  C   UNL     1       5.937   3.545  15.371  0.00  0.00    +0.000 A 
ATOM      3  C   UNL     1       5.190   4.003  16.555  0.00  0.00    +0.000 A 
ATOM      4  C   UNL     1       5.294   5.385  16.524  0.00  0.00    +0.000 A 
ATOM      5  S   UNL     1       5.464   6.008  14.966  0.00  0.00    +0.000 S 
ATOM      6  C   UNL     1       5.565   6.209  17.723  0.00  0.00    +0.000 C 
ATOM      7  C   UNL     1       6.151   5.239  18.780  0.00  0.00    +0.000 C 
ATOM      8  N   UNL     1       5.223   4.129  19.057  0.00  0.00    +0.000 NA
ATOM      9  C   UNL     1       4.113   4.730  19.781  0.00  0.00    +0.000 C 
ATOM     10  C   UNL     1       2.703   4.312  19.448  0.00  0.00    +0.000 A 
ATOM     11  C   UNL     1       1.761   4.993  20.226  0.00  0.00    +0.000 A 
ATOM     12  C   UNL     1       1.030   4.239  21.119  0.00  0.00    +0.000 A 
ATOM     13  C   UNL     1       1.094   2.846  21.033  0.00  0.00    +0.000 A 
ATOM     14  C   UNL     1       1.786   2.210  19.980  0.00  0.00    +0.000 A 
ATOM     15  C   UNL     1       2.596   2.970  19.125  0.00  0.00    +0.000 A 
ATOM     16  C   UNL     1       3.519   2.461  18.026  0.00  0.00    +0.000 C 
ATOM     17  C   UNL     1       4.896   3.246  17.892  0.00  0.00    +0.000 C 
ENDROOT
BRANCH   1  18
ATOM     18  C   UNL     1       7.515   4.752  13.560  0.00  0.00    +0.000 C 
BRANCH  18  19
ATOM     19  C   UNL     1       7.177   4.086  12.174  0.00  0.00    +0.000 C 
BRANCH  19  21
ATOM     20  C   UNL     1       5.754   2.034  11.496  0.00  0.00    +0.000 C 
ATOM     21  C   UNL     1       5.793   3.392  12.193  0.00  0.00    +0.000 C 
ENDBRANCH  19  21
BRANCH  19  22
ATOM     22  C   UNL     1       7.356   5.054  10.979  0.00  0.00    +0.000 C 
ATOM     23  C   UNL     1       7.947   6.414  11.312  0.00  0.00    +0.000 C 
ENDBRANCH  19  22
ENDBRANCH  18  19
ENDBRANCH   1  18
TORSDOF 4
ENDMDL
MODEL 8
REMARK VINA RESULT:      -6.3      8.341     10.339
REMARK  Name = 
REMARK  6 active torsions:
REMARK  status: ('A' for Active; 'I' for Inactive)
REMARK    1  A    between atoms: C_1  and  C_2
REMARK    2  A    between atoms: C_2  and  C_3
REMARK    3  A    between atoms: C_3  and  C_4
REMARK    4  A    between atoms: C_3  and  C_6
REMARK    5  A    between atoms: C_4  and  C_5
REMARK    6  A    between atoms: C_6  and  C_7
REMARK                            x       y       z     vdW  Elec       q    Type
REMARK                         _______ _______ _______ _____ _____    ______ ____
ROOT
ATOM      1  C   UNL     1      -1.321  13.159  22.956  0.00  0.00    +0.000 A 
ATOM      2  C   UNL     1      -1.158  11.768  22.905  0.00  0.00    +0.000 A 
ATOM      3  C   UNL     1      -0.535  11.319  21.648  0.00  0.00    +0.000 A 
ATOM      4  C   UNL     1      -0.420  12.469  20.882  0.00  0.00    +0.000 A 
ATOM      5  S   UNL     1      -0.258  13.873  21.802  0.00  0.00    +0.000 S 
ATOM      6  C   UNL     1      -0.738  12.522  19.438  0.00  0.00    +0.000 C 
ATOM      7  C   UNL     1      -1.617  11.278  19.152  0.00  0.00    +0.000 C 
ATOM      8  N   UNL     1      -0.922  10.035  19.532  0.00  0.00    +0.000 NA
ATOM      9  C   UNL     1       0.147   9.881  18.555  0.00  0.00    +0.000 C 
ATOM     10  C   UNL     1       1.509   9.433  19.019  0.00  0.00    +0.000 A 
ATOM     11  C   UNL     1       2.418   9.348  17.958  0.00  0.00    +0.000 A 
ATOM     12  C   UNL     1       2.883   8.091  17.637  0.00  0.00    +0.000 A 
ATOM     13  C   UNL     1       2.620   7.033  18.511  0.00  0.00    +0.000 A 
ATOM     14  C   UNL     1       2.004   7.254  19.761  0.00  0.00    +0.000 A 
ATOM     15  C   UNL     1       1.457   8.512  20.051  0.00  0.00    +0.000 A 
ATOM     16  C   UNL     1       0.641   8.909  21.274  0.00  0.00    +0.000 C 
ATOM     17  C   UNL     1      -0.563   9.905  20.981  0.00  0.00    +0.000 C 
ENDROOT
BRANCH   1  18
ATOM     18  C   UNL     1      -2.244  14.079  23.746  0.00  0.00    +0.000 C 
BRANCH  18  19
ATOM     19  C   UNL     1      -3.658  14.256  23.075  0.00  0.00    +0.000 C 
BRANCH  19  21
ATOM     20  C   UNL     1      -4.516  12.815  21.105  0.00  0.00    +0.000 C 
ATOM     21  C   UNL     1      -3.613  13.961  21.556  0.00  0.00    +0.000 C 
ENDBRANCH  19  21
BRANCH  19  22
ATOM     22  C   UNL     1      -4.777  13.481  23.813  0.00  0.00    +0.000 C 
ATOM     23  C   UNL     1      -4.310  12.428  24.804  0.00  0.00    +0.000 C 
ENDBRANCH  19  22
ENDBRANCH  18  19
ENDBRANCH   1  18
TORSDOF 4
ENDMDL
MODEL 9
REMARK VINA RESULT:      -6.3      8.657     10.257
REMARK  Name = 
REMARK  6 active torsions:
REMARK  status: ('A' for Active; 'I' for Inactive)
REMARK    1  A    between atoms: C_1  and  C_2
REMARK    2  A    between atoms: C_2  and  C_3
REMARK    3  A    between atoms: C_3  and  C_4
REMARK    4  A    between atoms: C_3  and  C_6
REMARK    5  A    between atoms: C_4  and  C_5
REMARK    6  A    between atoms: C_6  and  C_7
REMARK                            x       y       z     vdW  Elec       q    Type
REMARK                         _______ _______ _______ _____ _____    ______ ____
ROOT
ATOM      1  C   UNL     1      -1.116  13.873  22.369  0.00  0.00    +0.000 A 
ATOM      2  C   UNL     1      -0.974  12.489  22.539  0.00  0.00    +0.000 A 
ATOM      3  C   UNL     1      -0.433  11.827  21.340  0.00  0.00    +0.000 A 
ATOM      4  C   UNL     1      -0.349  12.832  20.390  0.00  0.00    +0.000 A 
ATOM      5  S   UNL     1      -0.114  14.364  21.055  0.00  0.00    +0.000 S 
ATOM      6  C   UNL     1      -0.752  12.655  18.977  0.00  0.00    +0.000 C 
ATOM      7  C   UNL     1      -1.662  11.400  18.951  0.00  0.00    +0.000 C 
ATOM      8  N   UNL     1      -0.961  10.222  19.491  0.00  0.00    +0.000 NA
ATOM      9  C   UNL     1       0.044   9.886  18.494  0.00  0.00    +0.000 C 
ATOM     10  C   UNL     1       1.427   9.490  18.947  0.00  0.00    +0.000 A 
ATOM     11  C   UNL     1       2.269   9.212  17.865  0.00  0.00    +0.000 A 
ATOM     12  C   UNL     1       2.698   7.908  17.730  0.00  0.00    +0.000 A 
ATOM     13  C   UNL     1       2.474   7.014  18.780  0.00  0.00    +0.000 A 
ATOM     14  C   UNL     1       1.937   7.452  20.010  0.00  0.00    +0.000 A 
ATOM     15  C   UNL     1       1.424   8.752  20.119  0.00  0.00    +0.000 A 
ATOM     16  C   UNL     1       0.689   9.362  21.304  0.00  0.00    +0.000 C 
ATOM     17  C   UNL     1      -0.519  10.323  20.919  0.00  0.00    +0.000 C 
ENDROOT
BRANCH   1  18
ATOM     18  C   UNL     1      -1.978  14.931  23.047  0.00  0.00    +0.000 C 
BRANCH  18  19
ATOM     19  C   UNL     1      -2.638  14.423  24.384  0.00  0.00    +0.000 C 
BRANCH  19  21
ATOM     20  C   UNL     1      -1.132  15.715  26.045  0.00  0.00    +0.000 C 
ATOM     21  C   UNL     1      -2.543  15.483  25.509  0.00  0.00    +0.000 C 
ENDBRANCH  19  21
BRANCH  19  22
ATOM     22  C   UNL     1      -4.073  13.879  24.180  0.00  0.00    +0.000 C 
ATOM     23  C   UNL     1      -4.302  12.441  24.616  0.00  0.00    +0.000 C 
ENDBRANCH  19  22
ENDBRANCH  18  19
ENDBRANCH   1  18
TORSDOF 4
ENDMDL
