MODEL 1
REMARK VINA RESULT:      -7.4      0.000      0.000
REMARK  Name = 
REMARK  4 active torsions:
REMARK  status: ('A' for Active; 'I' for Inactive)
REMARK    1  A    between atoms: C_1  and  C_2
REMARK    2  A    between atoms: N_6  and  C_7
REMARK    3  A    between atoms: C_10  and  O_11
REMARK    4  A    between atoms: C_15  and  O_16
REMARK                            x       y       z     vdW  Elec       q    Type
REMARK                         _______ _______ _______ _____ _____    ______ ____
ROOT
ATOM      1  C   UNL     1       7.977   5.323  12.835  0.00  0.00    +0.000 C 
ATOM      2  C   UNL     1       7.307   4.988  14.123  0.00  0.00    +0.000 A 
ATOM      3  N   UNL     1       7.622   5.686  15.227  0.00  0.00    +0.000 NA
ATOM      4  N   UNL     1       7.005   5.361  16.408  0.00  0.00    +0.000 NA
ATOM      5  C   UNL     1       6.083   4.372  16.448  0.00  0.00    +0.000 A 
ATOM      6  N   UNL     1       5.491   4.077  17.681  0.00  0.00    +0.000 N 
ATOM      7  N   UNL     1       5.747   3.651  15.364  0.00  0.00    +0.000 NA
ATOM      8  C   UNL     1       6.377   3.983  14.234  0.00  0.00    +0.000 A 
ATOM      9  H   UNL     1       5.810   4.747  18.371  0.00  0.00    +0.000 HD
ENDROOT
BRANCH   6  10
ATOM     10  C   UNL     1       4.183   3.612  17.905  0.00  0.00    +0.000 A 
ATOM     11  C   UNL     1       3.103   4.459  17.624  0.00  0.00    +0.000 A 
ATOM     12  C   UNL     1       1.786   4.038  17.833  0.00  0.00    +0.000 A 
ATOM     13  C   UNL     1       1.547   2.752  18.305  0.00  0.00    +0.000 A 
ATOM     14  C   UNL     1       2.600   1.888  18.572  0.00  0.00    +0.000 A 
ATOM     15  C   UNL     1       3.912   2.319  18.374  0.00  0.00    +0.000 A 
BRANCH  13  16
ATOM     16  O   UNL     1       0.283   2.293  18.520  0.00  0.00    +0.000 OA
ATOM     17  H   UNL     1      -0.348   2.956  18.192  0.00  0.00    +0.000 HD
ENDBRANCH  13  16
ENDBRANCH   6  10
BRANCH   8  18
ATOM     18  O   UNL     1       6.010   3.216  13.174  0.00  0.00    +0.000 OA
ATOM     19  H   UNL     1       6.337   3.768  12.439  0.00  0.00    +0.000 HD
ENDBRANCH   8  18
TORSDOF 3
ENDMDL
MODEL 2
REMARK VINA RESULT:      -7.4      0.076      1.207
REMARK  Name = 
REMARK  4 active torsions:
REMARK  status: ('A' for Active; 'I' for Inactive)
REMARK    1  A    between atoms: C_1  and  C_2
REMARK    2  A    between atoms: N_6  and  C_7
REMARK    3  A    between atoms: C_10  and  O_11
REMARK    4  A    between atoms: C_15  and  O_16
REMARK                            x       y       z     vdW  Elec       q    Type
REMARK                         _______ _______ _______ _____ _____    ______ ____
ROOT
ATOM      1  C   UNL     1       7.969   5.309  12.759  0.00  0.00    +0.000 C 
ATOM      2  C   UNL     1       7.299   4.974  14.047  0.00  0.00    +0.000 A 
ATOM      3  N   UNL     1       7.638   5.649  15.157  0.00  0.00    +0.000 NA
ATOM      4  N   UNL     1       7.020   5.325  16.338  0.00  0.00    +0.000 NA
ATOM      5  C   UNL     1       6.073   4.359  16.371  0.00  0.00    +0.000 A 
ATOM      6  N   UNL     1       5.481   4.064  17.604  0.00  0.00    +0.000 N 
ATOM      7  N   UNL     1       5.711   3.662  15.280  0.00  0.00    +0.000 NA
ATOM      8  C   UNL     1       6.343   3.992  14.150  0.00  0.00    +0.000 A 
ATOM      9  H   UNL     1       5.821   4.716  18.300  0.00  0.00    +0.000 HD
ENDROOT
BRANCH   6  10
ATOM     10  C   UNL     1       4.162   3.630  17.830  0.00  0.00    +0.000 A 
ATOM     11  C   UNL     1       3.947   2.345  18.345  0.00  0.00    +0.000 A 
ATOM     12  C   UNL     1       2.652   1.874  18.583  0.00  0.00    +0.000 A 
ATOM     13  C   UNL     1       1.566   2.703  18.328  0.00  0.00    +0.000 A 
ATOM     14  C   UNL     1       1.755   3.987  17.837  0.00  0.00    +0.000 A 
ATOM     15  C   UNL     1       3.049   4.447  17.587  0.00  0.00    +0.000 A 
BRANCH  13  16
ATOM     16  O   UNL     1       0.286   2.293  18.549  0.00  0.00    +0.000 OA
ATOM     17  H   UNL     1       0.304   1.370  18.854  0.00  0.00    +0.000 HD
ENDBRANCH  13  16
ENDBRANCH   6  10
BRANCH   8  18
ATOM     18  O   UNL     1       5.950   3.249  13.083  0.00  0.00    +0.000 OA
ATOM     19  H   UNL     1       6.013   3.917  12.374  0.00  0.00    +0.000 HD
ENDBRANCH   8  18
TORSDOF 3
ENDMDL
MODEL 3
REMARK VINA RESULT:      -7.3      2.690      2.983
REMARK  Name = 
REMARK  4 active torsions:
REMARK  status: ('A' for Active; 'I' for Inactive)
REMARK    1  A    between atoms: C_1  and  C_2
REMARK    2  A    between atoms: N_6  and  C_7
REMARK    3  A    between atoms: C_10  and  O_11
REMARK    4  A    between atoms: C_15  and  O_16
REMARK                            x       y       z     vdW  Elec       q    Type
REMARK                         _______ _______ _______ _____ _____    ______ ____
ROOT
ATOM      1  C   UNL     1       8.050   8.272  17.557  0.00  0.00    +0.000 C 
ATOM      2  C   UNL     1       7.381   7.000  17.952  0.00  0.00    +0.000 A 
ATOM      3  N   UNL     1       7.855   6.309  19.002  0.00  0.00    +0.000 NA
ATOM      4  N   UNL     1       7.235   5.136  19.349  0.00  0.00    +0.000 NA
ATOM      5  C   UNL     1       6.156   4.702  18.658  0.00  0.00    +0.000 A 
ATOM      6  N   UNL     1       5.569   3.494  19.051  0.00  0.00    +0.000 N 
ATOM      7  N   UNL     1       5.658   5.366  17.601  0.00  0.00    +0.000 NA
ATOM      8  C   UNL     1       6.294   6.497  17.281  0.00  0.00    +0.000 A 
ATOM      9  H   UNL     1       6.026   3.160  19.891  0.00  0.00    +0.000 HD
ENDROOT
BRANCH   6  10
ATOM     10  C   UNL     1       4.209   3.147  18.971  0.00  0.00    +0.000 A 
ATOM     11  C   UNL     1       3.330   3.604  19.961  0.00  0.00    +0.000 A 
ATOM     12  C   UNL     1       1.970   3.281  19.920  0.00  0.00    +0.000 A 
ATOM     13  C   UNL     1       1.481   2.514  18.868  0.00  0.00    +0.000 A 
ATOM     14  C   UNL     1       2.329   2.066  17.865  0.00  0.00    +0.000 A 
ATOM     15  C   UNL     1       3.687   2.381  17.918  0.00  0.00    +0.000 A 
BRANCH  13  16
ATOM     16  O   UNL     1       0.164   2.177  18.781  0.00  0.00    +0.000 OA
ATOM     17  H   UNL     1      -0.125   1.831  19.641  0.00  0.00    +0.000 HD
ENDBRANCH  13  16
ENDBRANCH   6  10
BRANCH   8  18
ATOM     18  O   UNL     1       5.758   7.121  16.199  0.00  0.00    +0.000 OA
ATOM     19  H   UNL     1       5.845   8.052  16.476  0.00  0.00    +0.000 HD
ENDBRANCH   8  18
TORSDOF 3
ENDMDL
MODEL 4
REMARK VINA RESULT:      -7.3      2.667      2.998
REMARK  Name = 
REMARK  4 active torsions:
REMARK  status: ('A' for Active; 'I' for Inactive)
REMARK    1  A    between atoms: C_1  and  C_2
REMARK    2  A    between atoms: N_6  and  C_7
REMARK    3  A    between atoms: C_10  and  O_11
REMARK    4  A    between atoms: C_15  and  O_16
REMARK                            x       y       z     vdW  Elec       q    Type
REMARK                         _______ _______ _______ _____ _____    ______ ____
ROOT
ATOM      1  C   UNL     1       8.045   8.229  17.491  0.00  0.00    +0.000 C 
ATOM      2  C   UNL     1       7.368   6.970  17.910  0.00  0.00    +0.000 A 
ATOM      3  N   UNL     1       7.835   6.296  18.974  0.00  0.00    +0.000 NA
ATOM      4  N   UNL     1       7.208   5.134  19.343  0.00  0.00    +0.000 NA
ATOM      5  C   UNL     1       6.127   4.693  18.658  0.00  0.00    +0.000 A 
ATOM      6  N   UNL     1       5.532   3.497  19.073  0.00  0.00    +0.000 N 
ATOM      7  N   UNL     1       5.635   5.340  17.588  0.00  0.00    +0.000 NA
ATOM      8  C   UNL     1       6.278   6.461  17.246  0.00  0.00    +0.000 A 
ATOM      9  H   UNL     1       5.985   3.177  19.921  0.00  0.00    +0.000 HD
ENDROOT
BRANCH   6  10
ATOM     10  C   UNL     1       4.170   3.156  18.997  0.00  0.00    +0.000 A 
ATOM     11  C   UNL     1       3.697   2.491  17.858  0.00  0.00    +0.000 A 
ATOM     12  C   UNL     1       2.350   2.135  17.741  0.00  0.00    +0.000 A 
ATOM     13  C   UNL     1       1.473   2.425  18.781  0.00  0.00    +0.000 A 
ATOM     14  C   UNL     1       1.922   3.064  19.928  0.00  0.00    +0.000 A 
ATOM     15  C   UNL     1       3.265   3.430  20.033  0.00  0.00    +0.000 A 
BRANCH  13  16
ATOM     16  O   UNL     1       0.154   2.094  18.717  0.00  0.00    +0.000 OA
ATOM     17  H   UNL     1      -0.338   2.655  19.339  0.00  0.00    +0.000 HD
ENDBRANCH  13  16
ENDBRANCH   6  10
BRANCH   8  18
ATOM     18  O   UNL     1       5.747   7.067  16.152  0.00  0.00    +0.000 OA
ATOM     19  H   UNL     1       5.073   7.630  16.576  0.00  0.00    +0.000 HD
ENDBRANCH   8  18
TORSDOF 3
ENDMDL
MODEL 5
REMARK VINA RESULT:      -6.7      3.437      6.718
REMARK  Name = 
REMARK  4 active torsions:
REMARK  status: ('A' for Active; 'I' for Inactive)
REMARK    1  A    between atoms: C_1  and  C_2
REMARK    2  A    between atoms: N_6  and  C_7
REMARK    3  A    between atoms: C_10  and  O_11
REMARK    4  A    between atoms: C_15  and  O_16
REMARK                            x       y       z     vdW  Elec       q    Type
REMARK                         _______ _______ _______ _____ _____    ______ ____
ROOT
ATOM      1  C   UNL     1       0.748   2.922  20.386  0.00  0.00    +0.000 C 
ATOM      2  C   UNL     1       2.127   3.212  19.903  0.00  0.00    +0.000 A 
ATOM      3  N   UNL     1       2.715   2.359  19.049  0.00  0.00    +0.000 NA
ATOM      4  N   UNL     1       3.989   2.633  18.619  0.00  0.00    +0.000 NA
ATOM      5  C   UNL     1       4.624   3.754  19.033  0.00  0.00    +0.000 A 
ATOM      6  N   UNL     1       5.924   3.979  18.569  0.00  0.00    +0.000 N 
ATOM      7  N   UNL     1       4.066   4.627  19.889  0.00  0.00    +0.000 NA
ATOM      8  C   UNL     1       2.832   4.323  20.300  0.00  0.00    +0.000 A 
ATOM      9  H   UNL     1       6.165   3.264  17.894  0.00  0.00    +0.000 HD
ENDROOT
BRANCH   6  10
ATOM     10  C   UNL     1       6.532   5.222  18.318  0.00  0.00    +0.000 A 
ATOM     11  C   UNL     1       5.978   6.066  17.346  0.00  0.00    +0.000 A 
ATOM     12  C   UNL     1       6.551   7.310  17.063  0.00  0.00    +0.000 A 
ATOM     13  C   UNL     1       7.673   7.723  17.774  0.00  0.00    +0.000 A 
ATOM     14  C   UNL     1       8.227   6.913  18.755  0.00  0.00    +0.000 A 
ATOM     15  C   UNL     1       7.659   5.667  19.024  0.00  0.00    +0.000 A 
BRANCH  13  16
ATOM     16  O   UNL     1       8.264   8.927  17.540  0.00  0.00    +0.000 OA
ATOM     17  H   UNL     1       7.577   9.565  17.283  0.00  0.00    +0.000 HD
ENDBRANCH  13  16
ENDBRANCH   6  10
BRANCH   8  18
ATOM     18  O   UNL     1       2.322   5.231  21.172  0.00  0.00    +0.000 OA
ATOM     19  H   UNL     1       3.011   5.920  21.127  0.00  0.00    +0.000 HD
ENDBRANCH   8  18
TORSDOF 3
ENDMDL
MODEL 6
REMARK VINA RESULT:      -6.6      3.350      6.725
REMARK  Name = 
REMARK  4 active torsions:
REMARK  status: ('A' for Active; 'I' for Inactive)
REMARK    1  A    between atoms: C_1  and  C_2
REMARK    2  A    between atoms: N_6  and  C_7
REMARK    3  A    between atoms: C_10  and  O_11
REMARK    4  A    between atoms: C_15  and  O_16
REMARK                            x       y       z     vdW  Elec       q    Type
REMARK                         _______ _______ _______ _____ _____    ______ ____
ROOT
ATOM      1  C   UNL     1       0.721   2.808  20.059  0.00  0.00    +0.000 C 
ATOM      2  C   UNL     1       2.103   3.127  19.602  0.00  0.00    +0.000 A 
ATOM      3  N   UNL     1       2.685   2.345  18.678  0.00  0.00    +0.000 NA
ATOM      4  N   UNL     1       3.960   2.644  18.273  0.00  0.00    +0.000 NA
ATOM      5  C   UNL     1       4.604   3.720  18.781  0.00  0.00    +0.000 A 
ATOM      6  N   UNL     1       5.907   3.974  18.338  0.00  0.00    +0.000 N 
ATOM      7  N   UNL     1       4.054   4.522  19.709  0.00  0.00    +0.000 NA
ATOM      8  C   UNL     1       2.816   4.194  20.092  0.00  0.00    +0.000 A 
ATOM      9  H   UNL     1       6.143   3.317  17.604  0.00  0.00    +0.000 HD
ENDROOT
BRANCH   6  10
ATOM     10  C   UNL     1       6.525   5.228  18.194  0.00  0.00    +0.000 A 
ATOM     11  C   UNL     1       7.598   5.560  19.032  0.00  0.00    +0.000 A 
ATOM     12  C   UNL     1       8.240   6.797  18.923  0.00  0.00    +0.000 A 
ATOM     13  C   UNL     1       7.822   7.701  17.952  0.00  0.00    +0.000 A 
ATOM     14  C   UNL     1       6.775   7.387  17.097  0.00  0.00    +0.000 A 
ATOM     15  C   UNL     1       6.128   6.156  17.220  0.00  0.00    +0.000 A 
BRANCH  13  16
ATOM     16  O   UNL     1       8.418   8.916  17.803  0.00  0.00    +0.000 OA
ATOM     17  H   UNL     1       9.103   8.844  17.117  0.00  0.00    +0.000 HD
ENDBRANCH  13  16
ENDBRANCH   6  10
BRANCH   8  18
ATOM     18  O   UNL     1       2.313   5.028  21.039  0.00  0.00    +0.000 OA
ATOM     19  H   UNL     1       1.643   4.446  21.444  0.00  0.00    +0.000 HD
ENDBRANCH   8  18
TORSDOF 3
ENDMDL
MODEL 7
REMARK VINA RESULT:      -6.5      1.179      1.180
REMARK  Name = 
REMARK  4 active torsions:
REMARK  status: ('A' for Active; 'I' for Inactive)
REMARK    1  A    between atoms: C_1  and  C_2
REMARK    2  A    between atoms: N_6  and  C_7
REMARK    3  A    between atoms: C_10  and  O_11
REMARK    4  A    between atoms: C_15  and  O_16
REMARK                            x       y       z     vdW  Elec       q    Type
REMARK                         _______ _______ _______ _____ _____    ______ ____
ROOT
ATOM      1  C   UNL     1       7.458   5.205  13.039  0.00  0.00    +0.000 C 
ATOM      2  C   UNL     1       7.005   4.871  14.419  0.00  0.00    +0.000 A 
ATOM      3  N   UNL     1       7.760   5.245  15.465  0.00  0.00    +0.000 NA
ATOM      4  N   UNL     1       7.337   4.924  16.729  0.00  0.00    +0.000 NA
ATOM      5  C   UNL     1       6.170   4.263  16.912  0.00  0.00    +0.000 A 
ATOM      6  N   UNL     1       5.791   3.953  18.223  0.00  0.00    +0.000 N 
ATOM      7  N   UNL     1       5.392   3.871  15.888  0.00  0.00    +0.000 NA
ATOM      8  C   UNL     1       5.841   4.187  14.670  0.00  0.00    +0.000 A 
ATOM      9  H   UNL     1       6.452   4.370  18.867  0.00  0.00    +0.000 HD
ENDROOT
BRANCH   6  10
ATOM     10  C   UNL     1       4.482   3.870  18.730  0.00  0.00    +0.000 A 
ATOM     11  C   UNL     1       3.808   5.050  19.070  0.00  0.00    +0.000 A 
ATOM     12  C   UNL     1       2.506   5.013  19.579  0.00  0.00    +0.000 A 
ATOM     13  C   UNL     1       1.865   3.788  19.727  0.00  0.00    +0.000 A 
ATOM     14  C   UNL     1       2.505   2.607  19.378  0.00  0.00    +0.000 A 
ATOM     15  C   UNL     1       3.809   2.649  18.884  0.00  0.00    +0.000 A 
BRANCH  13  16
ATOM     16  O   UNL     1       0.596   3.700  20.213  0.00  0.00    +0.000 OA
ATOM     17  H   UNL     1      -0.028   3.804  19.475  0.00  0.00    +0.000 HD
ENDBRANCH  13  16
ENDBRANCH   6  10
BRANCH   8  18
ATOM     18  O   UNL     1       5.024   3.757  13.674  0.00  0.00    +0.000 OA
ATOM     19  H   UNL     1       5.664   3.696  12.939  0.00  0.00    +0.000 HD
ENDBRANCH   8  18
TORSDOF 3
ENDMDL
MODEL 8
REMARK VINA RESULT:      -6.4      1.648      1.710
REMARK  Name = 
REMARK  4 active torsions:
REMARK  status: ('A' for Active; 'I' for Inactive)
REMARK    1  A    between atoms: C_1  and  C_2
REMARK    2  A    between atoms: N_6  and  C_7
REMARK    3  A    between atoms: C_10  and  O_11
REMARK    4  A    between atoms: C_15  and  O_16
REMARK                            x       y       z     vdW  Elec       q    Type
REMARK                         _______ _______ _______ _____ _____    ______ ____
ROOT
ATOM      1  C   UNL     1       7.574   5.121  13.750  0.00  0.00    +0.000 C 
ATOM      2  C   UNL     1       7.047   5.081  15.143  0.00  0.00    +0.000 A 
ATOM      3  N   UNL     1       7.382   6.060  16.000  0.00  0.00    +0.000 NA
ATOM      4  N   UNL     1       6.897   6.006  17.281  0.00  0.00    +0.000 NA
ATOM      5  C   UNL     1       6.080   4.996  17.661  0.00  0.00    +0.000 A 
ATOM      6  N   UNL     1       5.622   4.987  18.983  0.00  0.00    +0.000 N 
ATOM      7  N   UNL     1       5.727   3.999  16.832  0.00  0.00    +0.000 NA
ATOM      8  C   UNL     1       6.229   4.074  15.596  0.00  0.00    +0.000 A 
ATOM      9  H   UNL     1       5.929   5.832  19.448  0.00  0.00    +0.000 HD
ENDROOT
BRANCH   6  10
ATOM     10  C   UNL     1       4.386   4.503  19.449  0.00  0.00    +0.000 A 
ATOM     11  C   UNL     1       3.339   5.408  19.667  0.00  0.00    +0.000 A 
ATOM     12  C   UNL     1       2.095   4.970  20.131  0.00  0.00    +0.000 A 
ATOM     13  C   UNL     1       1.889   3.614  20.357  0.00  0.00    +0.000 A 
ATOM     14  C   UNL     1       2.904   2.696  20.129  0.00  0.00    +0.000 A 
ATOM     15  C   UNL     1       4.148   3.140  19.679  0.00  0.00    +0.000 A 
BRANCH  13  16
ATOM     16  O   UNL     1       0.694   3.137  20.804  0.00  0.00    +0.000 OA
ATOM     17  H   UNL     1       0.206   2.766  20.049  0.00  0.00    +0.000 HD
ENDBRANCH  13  16
ENDBRANCH   6  10
BRANCH   8  18
ATOM     18  O   UNL     1       5.851   3.037  14.804  0.00  0.00    +0.000 OA
ATOM     19  H   UNL     1       5.477   2.435  15.475  0.00  0.00    +0.000 HD
ENDBRANCH   8  18
TORSDOF 3
ENDMDL
MODEL 9
REMARK VINA RESULT:      -6.3      4.984      6.597
REMARK  Name = 
REMARK  4 active torsions:
REMARK  status: ('A' for Active; 'I' for Inactive)
REMARK    1  A    between atoms: C_1  and  C_2
REMARK    2  A    between atoms: N_6  and  C_7
REMARK    3  A    between atoms: C_10  and  O_11
REMARK    4  A    between atoms: C_15  and  O_16
REMARK                            x       y       z     vdW  Elec       q    Type
REMARK                         _______ _______ _______ _____ _____    ______ ____
ROOT
ATOM      1  C   UNL     1       0.577  11.517  19.053  0.00  0.00    +0.000 C 
ATOM      2  C   UNL     1       0.996  10.165  19.518  0.00  0.00    +0.000 A 
ATOM      3  N   UNL     1       0.797   9.821  20.801  0.00  0.00    +0.000 NA
ATOM      4  N   UNL     1       1.195   8.577  21.218  0.00  0.00    +0.000 NA
ATOM      5  C   UNL     1       1.757   7.711  20.343  0.00  0.00    +0.000 A 
ATOM      6  N   UNL     1       2.153   6.458  20.825  0.00  0.00    +0.000 N 
ATOM      7  N   UNL     1       1.975   8.022  19.054  0.00  0.00    +0.000 NA
ATOM      8  C   UNL     1       1.588   9.247  18.684  0.00  0.00    +0.000 A 
ATOM      9  H   UNL     1       1.864   6.367  21.791  0.00  0.00    +0.000 HD
ENDROOT
BRANCH   6  10
ATOM     10  C   UNL     1       2.160   5.242  20.119  0.00  0.00    +0.000 A 
ATOM     11  C   UNL     1       1.084   4.357  20.278  0.00  0.00    +0.000 A 
ATOM     12  C   UNL     1       1.052   3.136  19.596  0.00  0.00    +0.000 A 
ATOM     13  C   UNL     1       2.090   2.808  18.732  0.00  0.00    +0.000 A 
ATOM     14  C   UNL     1       3.156   3.677  18.543  0.00  0.00    +0.000 A 
ATOM     15  C   UNL     1       3.190   4.888  19.236  0.00  0.00    +0.000 A 
BRANCH  13  16
ATOM     16  O   UNL     1       2.101   1.634  18.042  0.00  0.00    +0.000 OA
ATOM     17  H   UNL     1       1.271   1.161  18.220  0.00  0.00    +0.000 HD
ENDBRANCH  13  16
ENDBRANCH   6  10
BRANCH   8  18
ATOM     18  O   UNL     1       1.842   9.514  17.377  0.00  0.00    +0.000 OA
ATOM     19  H   UNL     1       1.656  10.471  17.356  0.00  0.00    +0.000 HD
ENDBRANCH   8  18
TORSDOF 3
ENDMDL
