MODEL 1
REMARK VINA RESULT:      -8.0      0.000      0.000
REMARK  Name = 
REMARK  9 active torsions:
REMARK  status: ('A' for Active; 'I' for Inactive)
REMARK    1  A    between atoms: C_2  and  C_3
REMARK    2  A    between atoms: C_3  and  S_4
REMARK    3  A    between atoms: S_4  and  C_5
REMARK    4  A    between atoms: N_7  and  C_8
REMARK    5  A    between atoms: C_8  and  C_9
REMARK    6  A    between atoms: C_9  and  N_10
REMARK    7  A    between atoms: C_11  and  C_13
REMARK    8  A    between atoms: N_26  and  C_27
REMARK    9  A    between atoms: C_27  and  C_28
REMARK                            x       y       z     vdW  Elec       q    Type
REMARK                         _______ _______ _______ _____ _____    ______ ____
ROOT
ATOM      1  C   UNL     1       3.130   6.587  18.557  0.00  0.00    +0.000 A 
ATOM      2  C   UNL     1       2.622   7.551  19.391  0.00  0.00    +0.000 A 
ATOM      3  N   UNL     1       1.761   6.948  20.268  0.00  0.00    +0.000 N 
ATOM      4  C   UNL     1       1.682   5.592  19.989  0.00  0.00    +0.000 A 
ATOM      5  C   UNL     1       0.950   4.568  20.615  0.00  0.00    +0.000 A 
ATOM      6  C   UNL     1       1.086   3.266  20.127  0.00  0.00    +0.000 A 
ATOM      7  C   UNL     1       1.917   2.995  19.046  0.00  0.00    +0.000 A 
ATOM      8  C   UNL     1       2.644   4.019  18.428  0.00  0.00    +0.000 A 
ATOM      9  C   UNL     1       2.533   5.343  18.906  0.00  0.00    +0.000 A 
ENDROOT
BRANCH   1  10
ATOM     10  S   UNL     1       4.383   6.879  17.380  0.00  0.00    +0.000 S 
BRANCH  10  11
ATOM     11  C   UNL     1       5.810   6.019  18.076  0.00  0.00    +0.000 C 
BRANCH  11  13
ATOM     12  O   UNL     1       7.650   4.737  17.178  0.00  0.00    +0.000 OA
ATOM     13  C   UNL     1       6.469   5.056  17.104  0.00  0.00    +0.000 C 
ATOM     14  N   UNL     1       5.602   4.528  16.169  0.00  0.00    +0.000 N 
ATOM     15  H   UNL     1       4.767   5.064  15.943  0.00  0.00    +0.000 HD
BRANCH  14  16
ATOM     16  C   UNL     1       6.052   3.625  15.123  0.00  0.00    +0.000 C 
BRANCH  16  17
ATOM     17  C   UNL     1       6.175   4.356  13.786  0.00  0.00    +0.000 C 
ATOM     18  C   UNL     1       6.463   3.421  12.625  0.00  0.00    +0.000 C 
ATOM     19  C   UNL     1       7.212   4.315  11.670  0.00  0.00    +0.000 C 
ATOM     20  C   UNL     1       8.001   5.209  12.603  0.00  0.00    +0.000 C 
ATOM     21  O   UNL     1       7.268   5.297  13.833  0.00  0.00    +0.000 OA
ENDBRANCH  16  17
ENDBRANCH  14  16
ENDBRANCH  11  13
ENDBRANCH  10  11
ENDBRANCH   1  10
BRANCH   3  22
ATOM     22  C   UNL     1       1.077   7.589  21.378  0.00  0.00    +0.000 C 
BRANCH  22  23
ATOM     23  C   UNL     1       0.792   9.080  21.187  0.00  0.00    +0.000 C 
BRANCH  23  24
ATOM     24  N   UNL     1      -0.297   9.332  20.268  0.00  0.00    +0.000 N 
ATOM     25  C   UNL     1      -0.246  10.358  19.354  0.00  0.00    +0.000 C 
ATOM     26  O   UNL     1       0.721  11.103  19.236  0.00  0.00    +0.000 OA
ATOM     27  H   UNL     1      -1.126   8.749  20.329  0.00  0.00    +0.000 HD
BRANCH  25  28
ATOM     28  C   UNL     1      -1.448  10.562  18.514  0.00  0.00    +0.000 A 
ATOM     29  C   UNL     1      -1.567   9.822  17.330  0.00  0.00    +0.000 A 
ATOM     30  C   UNL     1      -2.671  10.009  16.497  0.00  0.00    +0.000 A 
ATOM     31  C   UNL     1      -3.669  10.919  16.849  0.00  0.00    +0.000 A 
ATOM     32  C   UNL     1      -3.564  11.643  18.038  0.00  0.00    +0.000 A 
ATOM     33  C   UNL     1      -2.456  11.463  18.860  0.00  0.00    +0.000 A 
ATOM     34  F   UNL     1      -2.384  12.182  19.991  0.00  0.00    +0.000 F 
ENDBRANCH  25  28
ENDBRANCH  23  24
ENDBRANCH  22  23
ENDBRANCH   3  22
TORSDOF 9
ENDMDL
MODEL 2
REMARK VINA RESULT:      -8.0      4.739      9.457
REMARK  Name = 
REMARK  9 active torsions:
REMARK  status: ('A' for Active; 'I' for Inactive)
REMARK    1  A    between atoms: C_2  and  C_3
REMARK    2  A    between atoms: C_3  and  S_4
REMARK    3  A    between atoms: S_4  and  C_5
REMARK    4  A    between atoms: N_7  and  C_8
REMARK    5  A    between atoms: C_8  and  C_9
REMARK    6  A    between atoms: C_9  and  N_10
REMARK    7  A    between atoms: C_11  and  C_13
REMARK    8  A    between atoms: N_26  and  C_27
REMARK    9  A    between atoms: C_27  and  C_28
REMARK                            x       y       z     vdW  Elec       q    Type
REMARK                         _______ _______ _______ _____ _____    ______ ____
ROOT
ATOM      1  C   UNL     1       4.961   4.656  18.706  0.00  0.00    +0.000 A 
ATOM      2  C   UNL     1       5.937   5.403  19.315  0.00  0.00    +0.000 A 
ATOM      3  N   UNL     1       6.855   5.763  18.366  0.00  0.00    +0.000 N 
ATOM      4  C   UNL     1       6.497   5.225  17.140  0.00  0.00    +0.000 A 
ATOM      5  C   UNL     1       7.110   5.326  15.878  0.00  0.00    +0.000 A 
ATOM      6  C   UNL     1       6.500   4.689  14.795  0.00  0.00    +0.000 A 
ATOM      7  C   UNL     1       5.322   3.970  14.963  0.00  0.00    +0.000 A 
ATOM      8  C   UNL     1       4.716   3.875  16.221  0.00  0.00    +0.000 A 
ATOM      9  C   UNL     1       5.306   4.515  17.333  0.00  0.00    +0.000 A 
ENDROOT
BRANCH   1  10
ATOM     10  S   UNL     1       3.509   4.113  19.505  0.00  0.00    +0.000 S 
BRANCH  10  11
ATOM     11  C   UNL     1       2.238   5.211  18.840  0.00  0.00    +0.000 C 
BRANCH  11  13
ATOM     12  O   UNL     1       2.836   7.550  18.769  0.00  0.00    +0.000 OA
ATOM     13  C   UNL     1       2.317   6.627  19.386  0.00  0.00    +0.000 C 
ATOM     14  N   UNL     1       1.699   6.788  20.609  0.00  0.00    +0.000 N 
ATOM     15  H   UNL     1       1.604   5.966  21.202  0.00  0.00    +0.000 HD
BRANCH  14  16
ATOM     16  C   UNL     1       1.710   8.057  21.317  0.00  0.00    +0.000 C 
BRANCH  16  17
ATOM     17  C   UNL     1       0.352   8.752  21.213  0.00  0.00    +0.000 C 
ATOM     18  C   UNL     1       0.290   9.764  20.083  0.00  0.00    +0.000 C 
ATOM     19  C   UNL     1      -0.735  10.748  20.588  0.00  0.00    +0.000 C 
ATOM     20  C   UNL     1      -0.477  10.758  22.080  0.00  0.00    +0.000 C 
ATOM     21  O   UNL     1       0.072   9.478  22.428  0.00  0.00    +0.000 OA
ENDBRANCH  16  17
ENDBRANCH  14  16
ENDBRANCH  11  13
ENDBRANCH  10  11
ENDBRANCH   1  10
BRANCH   3  22
ATOM     22  C   UNL     1       8.002   6.634  18.565  0.00  0.00    +0.000 C 
BRANCH  22  23
ATOM     23  C   UNL     1       7.807   8.075  18.091  0.00  0.00    +0.000 C 
BRANCH  23  24
ATOM     24  N   UNL     1       8.820   8.976  18.598  0.00  0.00    +0.000 N 
ATOM     25  C   UNL     1       8.853  10.302  18.235  0.00  0.00    +0.000 C 
ATOM     26  O   UNL     1       8.022  10.813  17.491  0.00  0.00    +0.000 OA
ATOM     27  H   UNL     1       9.537   8.601  19.211  0.00  0.00    +0.000 HD
BRANCH  25  28
ATOM     28  C   UNL     1       9.976  11.109  18.762  0.00  0.00    +0.000 A 
ATOM     29  C   UNL     1      10.906  11.631  17.853  0.00  0.00    +0.000 A 
ATOM     30  C   UNL     1      11.995  12.371  18.315  0.00  0.00    +0.000 A 
ATOM     31  C   UNL     1      12.153  12.609  19.681  0.00  0.00    +0.000 A 
ATOM     32  C   UNL     1      11.219  12.107  20.587  0.00  0.00    +0.000 A 
ATOM     33  C   UNL     1      10.140  11.359  20.125  0.00  0.00    +0.000 A 
ATOM     34  F   UNL     1       9.266  10.885  21.026  0.00  0.00    +0.000 F 
ENDBRANCH  25  28
ENDBRANCH  23  24
ENDBRANCH  22  23
ENDBRANCH   3  22
TORSDOF 9
ENDMDL
MODEL 3
REMARK VINA RESULT:      -8.0      4.146     10.737
REMARK  Name = 
REMARK  9 active torsions:
REMARK  status: ('A' for Active; 'I' for Inactive)
REMARK    1  A    between atoms: C_2  and  C_3
REMARK    2  A    between atoms: C_3  and  S_4
REMARK    3  A    between atoms: S_4  and  C_5
REMARK    4  A    between atoms: N_7  and  C_8
REMARK    5  A    between atoms: C_8  and  C_9
REMARK    6  A    between atoms: C_9  and  N_10
REMARK    7  A    between atoms: C_11  and  C_13
REMARK    8  A    between atoms: N_26  and  C_27
REMARK    9  A    between atoms: C_27  and  C_28
REMARK                            x       y       z     vdW  Elec       q    Type
REMARK                         _______ _______ _______ _____ _____    ______ ____
ROOT
ATOM      1  C   UNL     1      -0.464  11.595  20.047  0.00  0.00    +0.000 A 
ATOM      2  C   UNL     1       0.633  10.853  19.687  0.00  0.00    +0.000 A 
ATOM      3  N   UNL     1       0.327  10.162  18.546  0.00  0.00    +0.000 N 
ATOM      4  C   UNL     1      -0.982  10.427  18.175  0.00  0.00    +0.000 A 
ATOM      5  C   UNL     1      -1.737   9.967  17.081  0.00  0.00    +0.000 A 
ATOM      6  C   UNL     1      -3.049  10.429  16.944  0.00  0.00    +0.000 A 
ATOM      7  C   UNL     1      -3.592  11.314  17.868  0.00  0.00    +0.000 A 
ATOM      8  C   UNL     1      -2.835  11.767  18.955  0.00  0.00    +0.000 A 
ATOM      9  C   UNL     1      -1.504  11.324  19.115  0.00  0.00    +0.000 A 
ENDROOT
BRANCH   1  10
ATOM     10  S   UNL     1      -0.474  12.748  21.356  0.00  0.00    +0.000 S 
BRANCH  10  11
ATOM     11  C   UNL     1      -1.213  11.818  22.717  0.00  0.00    +0.000 C 
BRANCH  11  13
ATOM     12  O   UNL     1      -3.324  11.686  23.883  0.00  0.00    +0.000 OA
ATOM     13  C   UNL     1      -2.673  12.159  22.958  0.00  0.00    +0.000 C 
ATOM     14  N   UNL     1      -3.181  13.092  22.078  0.00  0.00    +0.000 N 
ATOM     15  H   UNL     1      -2.730  13.177  21.168  0.00  0.00    +0.000 HD
BRANCH  14  16
ATOM     16  C   UNL     1      -4.571  13.512  22.115  0.00  0.00    +0.000 C 
BRANCH  16  17
ATOM     17  C   UNL     1      -5.450  12.566  21.296  0.00  0.00    +0.000 C 
ATOM     18  C   UNL     1      -6.170  13.265  20.157  0.00  0.00    +0.000 C 
ATOM     19  C   UNL     1      -7.406  12.420  19.990  0.00  0.00    +0.000 C 
ATOM     20  C   UNL     1      -7.714  11.999  21.412  0.00  0.00    +0.000 C 
ATOM     21  O   UNL     1      -6.473  11.989  22.133  0.00  0.00    +0.000 OA
ENDBRANCH  16  17
ENDBRANCH  14  16
ENDBRANCH  11  13
ENDBRANCH  10  11
ENDBRANCH   1  10
BRANCH   3  22
ATOM     22  C   UNL     1       1.235   9.328  17.777  0.00  0.00    +0.000 C 
BRANCH  22  23
ATOM     23  C   UNL     1       2.312   8.617  18.599  0.00  0.00    +0.000 C 
BRANCH  23  24
ATOM     24  N   UNL     1       1.948   7.261  18.950  0.00  0.00    +0.000 N 
ATOM     25  C   UNL     1       2.763   6.195  18.648  0.00  0.00    +0.000 C 
ATOM     26  O   UNL     1       3.850   6.319  18.094  0.00  0.00    +0.000 OA
ATOM     27  H   UNL     1       1.053   7.102  19.402  0.00  0.00    +0.000 HD
BRANCH  25  28
ATOM     28  C   UNL     1       2.253   4.849  18.994  0.00  0.00    +0.000 A 
ATOM     29  C   UNL     1       2.072   3.919  17.962  0.00  0.00    +0.000 A 
ATOM     30  C   UNL     1       1.565   2.650  18.245  0.00  0.00    +0.000 A 
ATOM     31  C   UNL     1       1.254   2.297  19.558  0.00  0.00    +0.000 A 
ATOM     32  C   UNL     1       1.451   3.214  20.592  0.00  0.00    +0.000 A 
ATOM     33  C   UNL     1       1.945   4.482  20.304  0.00  0.00    +0.000 A 
ATOM     34  F   UNL     1       2.114   5.341  21.322  0.00  0.00    +0.000 F 
ENDBRANCH  25  28
ENDBRANCH  23  24
ENDBRANCH  22  23
ENDBRANCH   3  22
TORSDOF 9
ENDMDL
MODEL 4
REMARK VINA RESULT:      -7.9      1.969      2.540
REMARK  Name = 
REMARK  9 active torsions:
REMARK  status: ('A' for Active; 'I' for Inactive)
REMARK    1  A    between atoms: C_2  and  C_3
REMARK    2  A    between atoms: C_3  and  S_4
REMARK    3  A    between atoms: S_4  and  C_5
REMARK    4  A    between atoms: N_7  and  C_8
REMARK    5  A    between atoms: C_8  and  C_9
REMARK    6  A    between atoms: C_9  and  N_10
REMARK    7  A    between atoms: C_11  and  C_13
REMARK    8  A    between atoms: N_26  and  C_27
REMARK    9  A    between atoms: C_27  and  C_28
REMARK                            x       y       z     vdW  Elec       q    Type
REMARK                         _______ _______ _______ _____ _____    ______ ____
ROOT
ATOM      1  C   UNL     1       5.069   5.482  18.593  0.00  0.00    +0.000 A 
ATOM      2  C   UNL     1       4.387   6.642  18.324  0.00  0.00    +0.000 A 
ATOM      3  N   UNL     1       3.102   6.314  17.985  0.00  0.00    +0.000 N 
ATOM      4  C   UNL     1       2.951   4.936  18.002  0.00  0.00    +0.000 A 
ATOM      5  C   UNL     1       1.825   4.133  17.742  0.00  0.00    +0.000 A 
ATOM      6  C   UNL     1       1.961   2.748  17.863  0.00  0.00    +0.000 A 
ATOM      7  C   UNL     1       3.178   2.181  18.225  0.00  0.00    +0.000 A 
ATOM      8  C   UNL     1       4.293   2.986  18.484  0.00  0.00    +0.000 A 
ATOM      9  C   UNL     1       4.184   4.390  18.377  0.00  0.00    +0.000 A 
ENDROOT
BRANCH   1  10
ATOM     10  S   UNL     1       6.698   5.432  19.214  0.00  0.00    +0.000 S 
BRANCH  10  11
ATOM     11  C   UNL     1       7.634   4.699  17.854  0.00  0.00    +0.000 C 
BRANCH  11  13
ATOM     12  O   UNL     1       7.613   6.428  16.168  0.00  0.00    +0.000 OA
ATOM     13  C   UNL     1       7.293   5.291  16.498  0.00  0.00    +0.000 C 
ATOM     14  N   UNL     1       6.646   4.414  15.653  0.00  0.00    +0.000 N 
ATOM     15  H   UNL     1       6.121   3.651  16.077  0.00  0.00    +0.000 HD
BRANCH  14  16
ATOM     16  C   UNL     1       6.193   4.809  14.330  0.00  0.00    +0.000 C 
BRANCH  16  17
ATOM     17  C   UNL     1       5.952   3.584  13.446  0.00  0.00    +0.000 C 
ATOM     18  C   UNL     1       6.810   3.580  12.194  0.00  0.00    +0.000 C 
ATOM     19  C   UNL     1       5.964   2.793  11.227  0.00  0.00    +0.000 C 
ATOM     20  C   UNL     1       4.556   3.198  11.612  0.00  0.00    +0.000 C 
ATOM     21  O   UNL     1       4.580   3.555  13.002  0.00  0.00    +0.000 OA
ENDBRANCH  16  17
ENDBRANCH  14  16
ENDBRANCH  11  13
ENDBRANCH  10  11
ENDBRANCH   1  10
BRANCH   3  22
ATOM     22  C   UNL     1       2.020   7.245  17.714  0.00  0.00    +0.000 C 
BRANCH  22  23
ATOM     23  C   UNL     1       2.410   8.724  17.777  0.00  0.00    +0.000 C 
BRANCH  23  24
ATOM     24  N   UNL     1       1.266   9.603  17.879  0.00  0.00    +0.000 N 
ATOM     25  C   UNL     1       0.543   9.714  19.044  0.00  0.00    +0.000 C 
ATOM     26  O   UNL     1       0.831   9.107  20.071  0.00  0.00    +0.000 OA
ATOM     27  H   UNL     1       0.979  10.123  17.056  0.00  0.00    +0.000 HD
BRANCH  25  28
ATOM     28  C   UNL     1      -0.648  10.592  19.008  0.00  0.00    +0.000 A 
ATOM     29  C   UNL     1      -0.743  11.626  19.949  0.00  0.00    +0.000 A 
ATOM     30  C   UNL     1      -1.866  12.455  19.966  0.00  0.00    +0.000 A 
ATOM     31  C   UNL     1      -2.888  12.269  19.035  0.00  0.00    +0.000 A 
ATOM     32  C   UNL     1      -2.788  11.252  18.084  0.00  0.00    +0.000 A 
ATOM     33  C   UNL     1      -1.674  10.420  18.078  0.00  0.00    +0.000 A 
ATOM     34  F   UNL     1      -1.614   9.448  17.154  0.00  0.00    +0.000 F 
ENDBRANCH  25  28
ENDBRANCH  23  24
ENDBRANCH  22  23
ENDBRANCH   3  22
TORSDOF 9
ENDMDL
MODEL 5
REMARK VINA RESULT:      -7.8      3.564      5.189
REMARK  Name = 
REMARK  9 active torsions:
REMARK  status: ('A' for Active; 'I' for Inactive)
REMARK    1  A    between atoms: C_2  and  C_3
REMARK    2  A    between atoms: C_3  and  S_4
REMARK    3  A    between atoms: S_4  and  C_5
REMARK    4  A    between atoms: N_7  and  C_8
REMARK    5  A    between atoms: C_8  and  C_9
REMARK    6  A    between atoms: C_9  and  N_10
REMARK    7  A    between atoms: C_11  and  C_13
REMARK    8  A    between atoms: N_26  and  C_27
REMARK    9  A    between atoms: C_27  and  C_28
REMARK                            x       y       z     vdW  Elec       q    Type
REMARK                         _______ _______ _______ _____ _____    ______ ____
ROOT
ATOM      1  C   UNL     1       4.943   5.365  18.646  0.00  0.00    +0.000 A 
ATOM      2  C   UNL     1       4.286   6.513  18.280  0.00  0.00    +0.000 A 
ATOM      3  N   UNL     1       2.999   6.183  17.954  0.00  0.00    +0.000 N 
ATOM      4  C   UNL     1       2.820   4.814  18.077  0.00  0.00    +0.000 A 
ATOM      5  C   UNL     1       1.682   4.015  17.867  0.00  0.00    +0.000 A 
ATOM      6  C   UNL     1       1.790   2.641  18.096  0.00  0.00    +0.000 A 
ATOM      7  C   UNL     1       2.992   2.080  18.514  0.00  0.00    +0.000 A 
ATOM      8  C   UNL     1       4.120   2.883  18.721  0.00  0.00    +0.000 A 
ATOM      9  C   UNL     1       4.039   4.275  18.505  0.00  0.00    +0.000 A 
ENDROOT
BRANCH   1  10
ATOM     10  S   UNL     1       6.566   5.332  19.286  0.00  0.00    +0.000 S 
BRANCH  10  11
ATOM     11  C   UNL     1       7.576   5.823  17.872  0.00  0.00    +0.000 C 
BRANCH  11  13
ATOM     12  O   UNL     1       6.769   7.766  16.685  0.00  0.00    +0.000 OA
ATOM     13  C   UNL     1       7.496   7.308  17.559  0.00  0.00    +0.000 C 
ATOM     14  N   UNL     1       8.269   8.095  18.388  0.00  0.00    +0.000 N 
ATOM     15  H   UNL     1       9.075   7.661  18.833  0.00  0.00    +0.000 HD
BRANCH  14  16
ATOM     16  C   UNL     1       8.364   9.534  18.216  0.00  0.00    +0.000 C 
BRANCH  16  17
ATOM     17  C   UNL     1       9.618  10.085  18.897  0.00  0.00    +0.000 C 
ATOM     18  C   UNL     1       9.316  10.810  20.195  0.00  0.00    +0.000 C 
ATOM     19  C   UNL     1      10.448  11.802  20.281  0.00  0.00    +0.000 C 
ATOM     20  C   UNL     1      10.680  12.165  18.829  0.00  0.00    +0.000 C 
ATOM     21  O   UNL     1      10.271  11.041  18.036  0.00  0.00    +0.000 OA
ENDBRANCH  16  17
ENDBRANCH  14  16
ENDBRANCH  11  13
ENDBRANCH  10  11
ENDBRANCH   1  10
BRANCH   3  22
ATOM     22  C   UNL     1       1.938   7.111  17.601  0.00  0.00    +0.000 C 
BRANCH  22  23
ATOM     23  C   UNL     1       2.220   8.576  17.942  0.00  0.00    +0.000 C 
BRANCH  23  24
ATOM     24  N   UNL     1       1.630   8.985  19.198  0.00  0.00    +0.000 N 
ATOM     25  C   UNL     1       0.443   9.678  19.246  0.00  0.00    +0.000 C 
ATOM     26  O   UNL     1      -0.203   9.968  18.244  0.00  0.00    +0.000 OA
ATOM     27  H   UNL     1       2.129   8.777  20.058  0.00  0.00    +0.000 HD
BRANCH  25  28
ATOM     28  C   UNL     1      -0.027  10.103  20.583  0.00  0.00    +0.000 A 
ATOM     29  C   UNL     1      -0.264  11.466  20.804  0.00  0.00    +0.000 A 
ATOM     30  C   UNL     1      -0.679  11.909  22.060  0.00  0.00    +0.000 A 
ATOM     31  C   UNL     1      -0.876  10.995  23.096  0.00  0.00    +0.000 A 
ATOM     32  C   UNL     1      -0.659   9.634  22.875  0.00  0.00    +0.000 A 
ATOM     33  C   UNL     1      -0.234   9.197  21.624  0.00  0.00    +0.000 A 
ATOM     34  F   UNL     1      -0.028   7.883  21.449  0.00  0.00    +0.000 F 
ENDBRANCH  25  28
ENDBRANCH  23  24
ENDBRANCH  22  23
ENDBRANCH   3  22
TORSDOF 9
ENDMDL
MODEL 6
REMARK VINA RESULT:      -7.8      3.275      9.750
REMARK  Name = 
REMARK  9 active torsions:
REMARK  status: ('A' for Active; 'I' for Inactive)
REMARK    1  A    between atoms: C_2  and  C_3
REMARK    2  A    between atoms: C_3  and  S_4
REMARK    3  A    between atoms: S_4  and  C_5
REMARK    4  A    between atoms: N_7  and  C_8
REMARK    5  A    between atoms: C_8  and  C_9
REMARK    6  A    between atoms: C_9  and  N_10
REMARK    7  A    between atoms: C_11  and  C_13
REMARK    8  A    between atoms: N_26  and  C_27
REMARK    9  A    between atoms: C_27  and  C_28
REMARK                            x       y       z     vdW  Elec       q    Type
REMARK                         _______ _______ _______ _____ _____    ______ ____
ROOT
ATOM      1  C   UNL     1       3.007   6.295  18.967  0.00  0.00    +0.000 A 
ATOM      2  C   UNL     1       4.311   6.031  18.631  0.00  0.00    +0.000 A 
ATOM      3  N   UNL     1       4.610   4.761  19.042  0.00  0.00    +0.000 N 
ATOM      4  C   UNL     1       3.511   4.202  19.676  0.00  0.00    +0.000 A 
ATOM      5  C   UNL     1       3.330   2.930  20.248  0.00  0.00    +0.000 A 
ATOM      6  C   UNL     1       2.084   2.629  20.805  0.00  0.00    +0.000 A 
ATOM      7  C   UNL     1       1.055   3.564  20.797  0.00  0.00    +0.000 A 
ATOM      8  C   UNL     1       1.243   4.828  20.224  0.00  0.00    +0.000 A 
ATOM      9  C   UNL     1       2.488   5.158  19.647  0.00  0.00    +0.000 A 
ENDROOT
BRANCH   1  10
ATOM     10  S   UNL     1       2.154   7.743  18.500  0.00  0.00    +0.000 S 
BRANCH  10  11
ATOM     11  C   UNL     1       1.633   8.443  20.081  0.00  0.00    +0.000 C 
BRANCH  11  13
ATOM     12  O   UNL     1       1.384  10.693  19.239  0.00  0.00    +0.000 OA
ATOM     13  C   UNL     1       0.950   9.793  19.949  0.00  0.00    +0.000 C 
ATOM     14  N   UNL     1      -0.234   9.889  20.650  0.00  0.00    +0.000 N 
ATOM     15  H   UNL     1      -0.357   9.279  21.456  0.00  0.00    +0.000 HD
BRANCH  14  16
ATOM     16  C   UNL     1      -1.011  11.117  20.688  0.00  0.00    +0.000 C 
BRANCH  16  17
ATOM     17  C   UNL     1      -0.564  12.011  21.846  0.00  0.00    +0.000 C 
ATOM     18  C   UNL     1      -1.646  12.210  22.891  0.00  0.00    +0.000 C 
ATOM     19  C   UNL     1      -1.298  13.562  23.461  0.00  0.00    +0.000 C 
ATOM     20  C   UNL     1      -0.765  14.303  22.253  0.00  0.00    +0.000 C 
ATOM     21  O   UNL     1      -0.222  13.324  21.355  0.00  0.00    +0.000 OA
ENDBRANCH  16  17
ENDBRANCH  14  16
ENDBRANCH  11  13
ENDBRANCH  10  11
ENDBRANCH   1  10
BRANCH   3  22
ATOM     22  C   UNL     1       5.855   4.051  18.802  0.00  0.00    +0.000 C 
BRANCH  22  23
ATOM     23  C   UNL     1       6.877   4.809  17.952  0.00  0.00    +0.000 C 
BRANCH  23  24
ATOM     24  N   UNL     1       6.889   4.379  16.570  0.00  0.00    +0.000 N 
ATOM     25  C   UNL     1       6.479   5.209  15.553  0.00  0.00    +0.000 C 
ATOM     26  O   UNL     1       6.107   6.363  15.740  0.00  0.00    +0.000 OA
ATOM     27  H   UNL     1       7.179   3.429  16.361  0.00  0.00    +0.000 HD
BRANCH  25  28
ATOM     28  C   UNL     1       6.469   4.636  14.189  0.00  0.00    +0.000 A 
ATOM     29  C   UNL     1       5.411   3.790  13.828  0.00  0.00    +0.000 A 
ATOM     30  C   UNL     1       5.383   3.207  12.562  0.00  0.00    +0.000 A 
ATOM     31  C   UNL     1       6.398   3.477  11.643  0.00  0.00    +0.000 A 
ATOM     32  C   UNL     1       7.442   4.335  11.991  0.00  0.00    +0.000 A 
ATOM     33  C   UNL     1       7.474   4.905  13.259  0.00  0.00    +0.000 A 
ATOM     34  F   UNL     1       8.497   5.718  13.562  0.00  0.00    +0.000 F 
ENDBRANCH  25  28
ENDBRANCH  23  24
ENDBRANCH  22  23
ENDBRANCH   3  22
TORSDOF 9
ENDMDL
MODEL 7
REMARK VINA RESULT:      -7.8      3.092      8.850
REMARK  Name = 
REMARK  9 active torsions:
REMARK  status: ('A' for Active; 'I' for Inactive)
REMARK    1  A    between atoms: C_2  and  C_3
REMARK    2  A    between atoms: C_3  and  S_4
REMARK    3  A    between atoms: S_4  and  C_5
REMARK    4  A    between atoms: N_7  and  C_8
REMARK    5  A    between atoms: C_8  and  C_9
REMARK    6  A    between atoms: C_9  and  N_10
REMARK    7  A    between atoms: C_11  and  C_13
REMARK    8  A    between atoms: N_26  and  C_27
REMARK    9  A    between atoms: C_27  and  C_28
REMARK                            x       y       z     vdW  Elec       q    Type
REMARK                         _______ _______ _______ _____ _____    ______ ____
ROOT
ATOM      1  C   UNL     1       3.374   6.517  18.133  0.00  0.00    +0.000 A 
ATOM      2  C   UNL     1       4.657   6.490  18.617  0.00  0.00    +0.000 A 
ATOM      3  N   UNL     1       4.975   5.192  18.913  0.00  0.00    +0.000 N 
ATOM      4  C   UNL     1       3.889   4.372  18.652  0.00  0.00    +0.000 A 
ATOM      5  C   UNL     1       3.737   2.980  18.784  0.00  0.00    +0.000 A 
ATOM      6  C   UNL     1       2.515   2.412  18.414  0.00  0.00    +0.000 A 
ATOM      7  C   UNL     1       1.477   3.203  17.936  0.00  0.00    +0.000 A 
ATOM      8  C   UNL     1       1.636   4.589  17.807  0.00  0.00    +0.000 A 
ATOM      9  C   UNL     1       2.862   5.190  18.165  0.00  0.00    +0.000 A 
ENDROOT
BRANCH   1  10
ATOM     10  S   UNL     1       2.607   7.943  17.485  0.00  0.00    +0.000 S 
BRANCH  10  11
ATOM     11  C   UNL     1       1.799   8.667  18.929  0.00  0.00    +0.000 C 
BRANCH  11  13
ATOM     12  O   UNL     1      -0.112   9.652  17.828  0.00  0.00    +0.000 OA
ATOM     13  C   UNL     1       0.842   9.796  18.584  0.00  0.00    +0.000 C 
ATOM     14  N   UNL     1       1.111  10.977  19.245  0.00  0.00    +0.000 N 
ATOM     15  H   UNL     1       2.065  11.132  19.564  0.00  0.00    +0.000 HD
BRANCH  14  16
ATOM     16  C   UNL     1       0.338  12.184  19.011  0.00  0.00    +0.000 C 
BRANCH  16  17
ATOM     17  C   UNL     1       1.223  13.302  18.457  0.00  0.00    +0.000 C 
ATOM     18  C   UNL     1       2.650  12.853  18.199  0.00  0.00    +0.000 C 
ATOM     19  C   UNL     1       3.426  14.133  18.370  0.00  0.00    +0.000 C 
ATOM     20  C   UNL     1       2.662  14.840  19.470  0.00  0.00    +0.000 C 
ATOM     21  O   UNL     1       1.301  14.388  19.403  0.00  0.00    +0.000 OA
ENDBRANCH  16  17
ENDBRANCH  14  16
ENDBRANCH  11  13
ENDBRANCH  10  11
ENDBRANCH   1  10
BRANCH   3  22
ATOM     22  C   UNL     1       6.268   4.706  19.365  0.00  0.00    +0.000 C 
BRANCH  22  23
ATOM     23  C   UNL     1       7.421   4.930  18.385  0.00  0.00    +0.000 C 
BRANCH  23  24
ATOM     24  N   UNL     1       7.121   4.465  17.048  0.00  0.00    +0.000 N 
ATOM     25  C   UNL     1       7.119   5.320  15.970  0.00  0.00    +0.000 C 
ATOM     26  O   UNL     1       7.395   6.512  16.061  0.00  0.00    +0.000 OA
ATOM     27  H   UNL     1       6.877   3.488  16.919  0.00  0.00    +0.000 HD
BRANCH  25  28
ATOM     28  C   UNL     1       6.729   4.743  14.664  0.00  0.00    +0.000 A 
ATOM     29  C   UNL     1       7.622   4.858  13.591  0.00  0.00    +0.000 A 
ATOM     30  C   UNL     1       7.277   4.354  12.337  0.00  0.00    +0.000 A 
ATOM     31  C   UNL     1       6.049   3.718  12.151  0.00  0.00    +0.000 A 
ATOM     32  C   UNL     1       5.164   3.585  13.221  0.00  0.00    +0.000 A 
ATOM     33  C   UNL     1       5.506   4.099  14.468  0.00  0.00    +0.000 A 
ATOM     34  F   UNL     1       4.628   3.960  15.473  0.00  0.00    +0.000 F 
ENDBRANCH  25  28
ENDBRANCH  23  24
ENDBRANCH  22  23
ENDBRANCH   3  22
TORSDOF 9
ENDMDL
MODEL 8
REMARK VINA RESULT:      -7.8      2.697      9.013
REMARK  Name = 
REMARK  9 active torsions:
REMARK  status: ('A' for Active; 'I' for Inactive)
REMARK    1  A    between atoms: C_2  and  C_3
REMARK    2  A    between atoms: C_3  and  S_4
REMARK    3  A    between atoms: S_4  and  C_5
REMARK    4  A    between atoms: N_7  and  C_8
REMARK    5  A    between atoms: C_8  and  C_9
REMARK    6  A    between atoms: C_9  and  N_10
REMARK    7  A    between atoms: C_11  and  C_13
REMARK    8  A    between atoms: N_26  and  C_27
REMARK    9  A    between atoms: C_27  and  C_28
REMARK                            x       y       z     vdW  Elec       q    Type
REMARK                         _______ _______ _______ _____ _____    ______ ____
ROOT
ATOM      1  C   UNL     1       2.815   6.365  19.551  0.00  0.00    +0.000 A 
ATOM      2  C   UNL     1       4.135   6.255  19.194  0.00  0.00    +0.000 A 
ATOM      3  N   UNL     1       4.512   4.948  19.347  0.00  0.00    +0.000 N 
ATOM      4  C   UNL     1       3.447   4.207  19.834  0.00  0.00    +0.000 A 
ATOM      5  C   UNL     1       3.343   2.837  20.135  0.00  0.00    +0.000 A 
ATOM      6  C   UNL     1       2.116   2.353  20.594  0.00  0.00    +0.000 A 
ATOM      7  C   UNL     1       1.029   3.206  20.754  0.00  0.00    +0.000 A 
ATOM      8  C   UNL     1       1.139   4.569  20.452  0.00  0.00    +0.000 A 
ATOM      9  C   UNL     1       2.365   5.084  19.978  0.00  0.00    +0.000 A 
ENDROOT
BRANCH   1  10
ATOM     10  S   UNL     1       1.874   7.823  19.368  0.00  0.00    +0.000 S 
BRANCH  10  11
ATOM     11  C   UNL     1       1.474   8.271  21.071  0.00  0.00    +0.000 C 
BRANCH  11  13
ATOM     12  O   UNL     1       0.640  10.190  22.277  0.00  0.00    +0.000 OA
ATOM     13  C   UNL     1       0.821   9.636  21.199  0.00  0.00    +0.000 C 
ATOM     14  N   UNL     1       0.506  10.219  19.988  0.00  0.00    +0.000 N 
ATOM     15  H   UNL     1       0.360   9.602  19.192  0.00  0.00    +0.000 HD
BRANCH  14  16
ATOM     16  C   UNL     1      -0.169  11.503  19.903  0.00  0.00    +0.000 C 
BRANCH  16  17
ATOM     17  C   UNL     1      -1.024  11.588  18.638  0.00  0.00    +0.000 C 
ATOM     18  C   UNL     1      -2.483  11.889  18.930  0.00  0.00    +0.000 C 
ATOM     19  C   UNL     1      -3.184  11.246  17.761  0.00  0.00    +0.000 C 
ATOM     20  C   UNL     1      -2.330  10.024  17.494  0.00  0.00    +0.000 C 
ATOM     21  O   UNL     1      -0.999  10.329  17.935  0.00  0.00    +0.000 OA
ENDBRANCH  16  17
ENDBRANCH  14  16
ENDBRANCH  11  13
ENDBRANCH  10  11
ENDBRANCH   1  10
BRANCH   3  22
ATOM     22  C   UNL     1       5.802   4.379  18.993  0.00  0.00    +0.000 C 
BRANCH  22  23
ATOM     23  C   UNL     1       6.751   5.333  18.265  0.00  0.00    +0.000 C 
BRANCH  23  24
ATOM     24  N   UNL     1       6.976   4.958  16.885  0.00  0.00    +0.000 N 
ATOM     25  C   UNL     1       6.193   5.450  15.867  0.00  0.00    +0.000 C 
ATOM     26  O   UNL     1       5.281   6.251  16.051  0.00  0.00    +0.000 OA
ATOM     27  H   UNL     1       7.712   4.291  16.679  0.00  0.00    +0.000 HD
BRANCH  25  28
ATOM     28  C   UNL     1       6.473   4.941  14.506  0.00  0.00    +0.000 A 
ATOM     29  C   UNL     1       7.593   5.437  13.826  0.00  0.00    +0.000 A 
ATOM     30  C   UNL     1       7.872   5.004  12.530  0.00  0.00    +0.000 A 
ATOM     31  C   UNL     1       7.048   4.062  11.912  0.00  0.00    +0.000 A 
ATOM     32  C   UNL     1       5.943   3.551  12.593  0.00  0.00    +0.000 A 
ATOM     33  C   UNL     1       5.660   3.994  13.881  0.00  0.00    +0.000 A 
ATOM     34  F   UNL     1       4.584   3.487  14.504  0.00  0.00    +0.000 F 
ENDBRANCH  25  28
ENDBRANCH  23  24
ENDBRANCH  22  23
ENDBRANCH   3  22
TORSDOF 9
ENDMDL
MODEL 9
REMARK VINA RESULT:      -7.8      3.152      9.408
REMARK  Name = 
REMARK  9 active torsions:
REMARK  status: ('A' for Active; 'I' for Inactive)
REMARK    1  A    between atoms: C_2  and  C_3
REMARK    2  A    between atoms: C_3  and  S_4
REMARK    3  A    between atoms: S_4  and  C_5
REMARK    4  A    between atoms: N_7  and  C_8
REMARK    5  A    between atoms: C_8  and  C_9
REMARK    6  A    between atoms: C_9  and  N_10
REMARK    7  A    between atoms: C_11  and  C_13
REMARK    8  A    between atoms: N_26  and  C_27
REMARK    9  A    between atoms: C_27  and  C_28
REMARK                            x       y       z     vdW  Elec       q    Type
REMARK                         _______ _______ _______ _____ _____    ______ ____
ROOT
ATOM      1  C   UNL     1       3.233   6.238  18.335  0.00  0.00    +0.000 A 
ATOM      2  C   UNL     1       4.526   6.310  18.789  0.00  0.00    +0.000 A 
ATOM      3  N   UNL     1       4.959   5.038  19.052  0.00  0.00    +0.000 N 
ATOM      4  C   UNL     1       3.938   4.135  18.800  0.00  0.00    +0.000 A 
ATOM      5  C   UNL     1       3.906   2.733  18.907  0.00  0.00    +0.000 A 
ATOM      6  C   UNL     1       2.727   2.071  18.555  0.00  0.00    +0.000 A 
ATOM      7  C   UNL     1       1.615   2.781  18.117  0.00  0.00    +0.000 A 
ATOM      8  C   UNL     1       1.655   4.177  18.011  0.00  0.00    +0.000 A 
ATOM      9  C   UNL     1       2.835   4.872  18.353  0.00  0.00    +0.000 A 
ENDROOT
BRANCH   1  10
ATOM     10  S   UNL     1       2.334   7.607  17.734  0.00  0.00    +0.000 S 
BRANCH  10  11
ATOM     11  C   UNL     1       1.703   8.377  19.241  0.00  0.00    +0.000 C 
BRANCH  11  13
ATOM     12  O   UNL     1       1.709  10.494  18.078  0.00  0.00    +0.000 OA
ATOM     13  C   UNL     1       1.417   9.861  19.086  0.00  0.00    +0.000 C 
ATOM     14  N   UNL     1       0.746  10.414  20.157  0.00  0.00    +0.000 N 
ATOM     15  H   UNL     1       0.840   9.956  21.061  0.00  0.00    +0.000 HD
BRANCH  14  16
ATOM     16  C   UNL     1       0.425  11.830  20.219  0.00  0.00    +0.000 C 
BRANCH  16  17
ATOM     17  C   UNL     1      -0.198  12.192  21.567  0.00  0.00    +0.000 C 
ATOM     18  C   UNL     1      -0.704  10.980  22.329  0.00  0.00    +0.000 C 
ATOM     19  C   UNL     1      -1.821  11.563  23.156  0.00  0.00    +0.000 C 
ATOM     20  C   UNL     1      -2.395  12.622  22.238  0.00  0.00    +0.000 C 
ATOM     21  O   UNL     1      -1.336  13.057  21.372  0.00  0.00    +0.000 OA
ENDBRANCH  16  17
ENDBRANCH  14  16
ENDBRANCH  11  13
ENDBRANCH  10  11
ENDBRANCH   1  10
BRANCH   3  22
ATOM     22  C   UNL     1       6.298   4.654  19.464  0.00  0.00    +0.000 C 
BRANCH  22  23
ATOM     23  C   UNL     1       7.397   4.941  18.438  0.00  0.00    +0.000 C 
BRANCH  23  24
ATOM     24  N   UNL     1       7.065   4.466  17.112  0.00  0.00    +0.000 N 
ATOM     25  C   UNL     1       7.141   5.288  16.012  0.00  0.00    +0.000 C 
ATOM     26  O   UNL     1       7.517   6.454  16.072  0.00  0.00    +0.000 OA
ATOM     27  H   UNL     1       6.739   3.510  17.007  0.00  0.00    +0.000 HD
BRANCH  25  28
ATOM     28  C   UNL     1       6.710   4.711  14.718  0.00  0.00    +0.000 A 
ATOM     29  C   UNL     1       7.578   4.807  13.623  0.00  0.00    +0.000 A 
ATOM     30  C   UNL     1       7.194   4.303  12.380  0.00  0.00    +0.000 A 
ATOM     31  C   UNL     1       5.953   3.684  12.228  0.00  0.00    +0.000 A 
ATOM     32  C   UNL     1       5.094   3.568  13.321  0.00  0.00    +0.000 A 
ATOM     33  C   UNL     1       5.474   4.083  14.556  0.00  0.00    +0.000 A 
ATOM     34  F   UNL     1       4.620   3.961  15.584  0.00  0.00    +0.000 F 
ENDBRANCH  25  28
ENDBRANCH  23  24
ENDBRANCH  22  23
ENDBRANCH   3  22
TORSDOF 9
ENDMDL
