MODEL 1
REMARK VINA RESULT:      -7.3      0.000      0.000
REMARK  Name = 
REMARK  7 active torsions:
REMARK  status: ('A' for Active; 'I' for Inactive)
REMARK    1  A    between atoms: C_1  and  C_2
REMARK    2  A    between atoms: C_2  and  C_3
REMARK    3  A    between atoms: C_6  and  C_7
REMARK    4  A    between atoms: C_8  and  C_9
REMARK    5  A    between atoms: N_11  and  C_12
REMARK    6  A    between atoms: C_12  and  C_13
REMARK    7  A    between atoms: C_13  and  C_14
REMARK                            x       y       z     vdW  Elec       q    Type
REMARK                         _______ _______ _______ _____ _____    ______ ____
ROOT
ATOM      1  C   UNL     1       4.335   5.328  17.365  0.00  0.00    +0.000 C 
ATOM      2  O   UNL     1       3.532   4.422  17.154  0.00  0.00    +0.000 OA
ATOM      3  N   UNL     1       3.929   6.508  17.959  0.00  0.00    +0.000 N 
ATOM      4  H   UNL     1       4.568   7.277  18.074  0.00  0.00    +0.000 HD
ENDROOT
BRANCH   1  10
ATOM      5  C   UNL     1       6.250   4.894  15.693  0.00  0.00    +0.000 A 
ATOM      6  N   UNL     1       7.588   4.843  15.689  0.00  0.00    +0.000 NA
ATOM      7  O   UNL     1       7.977   5.098  16.981  0.00  0.00    +0.000 OA
ATOM      8  C   UNL     1       6.885   5.305  17.763  0.00  0.00    +0.000 A 
ATOM      9  C   UNL     1       7.194   5.569  19.181  0.00  0.00    +0.000 C 
ATOM     10  C   UNL     1       5.737   5.198  16.997  0.00  0.00    +0.000 A 
BRANCH   5  12
ATOM     11  C   UNL     1       6.269   3.664  13.515  0.00  0.00    +0.000 C 
ATOM     12  C   UNL     1       5.513   4.624  14.422  0.00  0.00    +0.000 C 
ENDBRANCH   5  12
ENDBRANCH   1  10
BRANCH   3  13
ATOM     13  C   UNL     1       2.533   6.691  18.320  0.00  0.00    +0.000 C 
BRANCH  13  14
ATOM     14  C   UNL     1       2.270   6.535  19.820  0.00  0.00    +0.000 C 
BRANCH  14  15
ATOM     15  C   UNL     1       1.943   5.106  20.187  0.00  0.00    +0.000 A 
ATOM     16  C   UNL     1       2.447   4.552  21.373  0.00  0.00    +0.000 A 
ATOM     17  C   UNL     1       2.191   3.219  21.700  0.00  0.00    +0.000 A 
ATOM     18  C   UNL     1       1.427   2.422  20.849  0.00  0.00    +0.000 A 
ATOM     19  C   UNL     1       0.912   2.967  19.672  0.00  0.00    +0.000 A 
ATOM     20  C   UNL     1       1.169   4.300  19.339  0.00  0.00    +0.000 A 
ENDBRANCH  14  15
ENDBRANCH  13  14
ENDBRANCH   3  13
TORSDOF 5
ENDMDL
MODEL 2
REMARK VINA RESULT:      -7.3      1.053      1.147
REMARK  Name = 
REMARK  7 active torsions:
REMARK  status: ('A' for Active; 'I' for Inactive)
REMARK    1  A    between atoms: C_1  and  C_2
REMARK    2  A    between atoms: C_2  and  C_3
REMARK    3  A    between atoms: C_6  and  C_7
REMARK    4  A    between atoms: C_8  and  C_9
REMARK    5  A    between atoms: N_11  and  C_12
REMARK    6  A    between atoms: C_12  and  C_13
REMARK    7  A    between atoms: C_13  and  C_14
REMARK                            x       y       z     vdW  Elec       q    Type
REMARK                         _______ _______ _______ _____ _____    ______ ____
ROOT
ATOM      1  C   UNL     1       4.966   6.248  17.322  0.00  0.00    +0.000 C 
ATOM      2  O   UNL     1       4.612   7.108  16.520  0.00  0.00    +0.000 OA
ATOM      3  N   UNL     1       4.233   6.007  18.469  0.00  0.00    +0.000 N 
ATOM      4  H   UNL     1       4.554   5.350  19.161  0.00  0.00    +0.000 HD
ENDROOT
BRANCH   1  10
ATOM      5  C   UNL     1       6.428   4.600  15.981  0.00  0.00    +0.000 A 
ATOM      6  N   UNL     1       7.624   4.007  16.082  0.00  0.00    +0.000 NA
ATOM      7  O   UNL     1       8.162   4.447  17.267  0.00  0.00    +0.000 OA
ATOM      8  C   UNL     1       7.301   5.301  17.880  0.00  0.00    +0.000 A 
ATOM      9  C   UNL     1       7.777   5.818  19.177  0.00  0.00    +0.000 C 
ATOM     10  C   UNL     1       6.166   5.455  17.103  0.00  0.00    +0.000 A 
BRANCH   5  12
ATOM     11  C   UNL     1       6.394   3.979  13.558  0.00  0.00    +0.000 C 
ATOM     12  C   UNL     1       5.569   4.297  14.798  0.00  0.00    +0.000 C 
ENDBRANCH   5  12
ENDBRANCH   1  10
BRANCH   3  13
ATOM     13  C   UNL     1       3.040   6.793  18.742  0.00  0.00    +0.000 C 
BRANCH  13  14
ATOM     14  C   UNL     1       1.746   6.098  18.314  0.00  0.00    +0.000 C 
BRANCH  14  15
ATOM     15  C   UNL     1       1.585   4.749  18.977  0.00  0.00    +0.000 A 
ATOM     16  C   UNL     1       1.527   4.655  20.375  0.00  0.00    +0.000 A 
ATOM     17  C   UNL     1       1.426   3.410  21.000  0.00  0.00    +0.000 A 
ATOM     18  C   UNL     1       1.379   2.244  20.238  0.00  0.00    +0.000 A 
ATOM     19  C   UNL     1       1.424   2.328  18.845  0.00  0.00    +0.000 A 
ATOM     20  C   UNL     1       1.530   3.572  18.217  0.00  0.00    +0.000 A 
ENDBRANCH  14  15
ENDBRANCH  13  14
ENDBRANCH   3  13
TORSDOF 5
ENDMDL
MODEL 3
REMARK VINA RESULT:      -7.2      1.599      2.531
REMARK  Name = 
REMARK  7 active torsions:
REMARK  status: ('A' for Active; 'I' for Inactive)
REMARK    1  A    between atoms: C_1  and  C_2
REMARK    2  A    between atoms: C_2  and  C_3
REMARK    3  A    between atoms: C_6  and  C_7
REMARK    4  A    between atoms: C_8  and  C_9
REMARK    5  A    between atoms: N_11  and  C_12
REMARK    6  A    between atoms: C_12  and  C_13
REMARK    7  A    between atoms: C_13  and  C_14
REMARK                            x       y       z     vdW  Elec       q    Type
REMARK                         _______ _______ _______ _____ _____    ______ ____
ROOT
ATOM      1  C   UNL     1       5.538   4.070  17.747  0.00  0.00    +0.000 C 
ATOM      2  O   UNL     1       5.751   4.011  18.955  0.00  0.00    +0.000 OA
ATOM      3  N   UNL     1       4.481   3.382  17.181  0.00  0.00    +0.000 N 
ATOM      4  H   UNL     1       4.342   3.375  16.185  0.00  0.00    +0.000 HD
ENDROOT
BRANCH   1  10
ATOM      5  C   UNL     1       6.568   4.659  15.457  0.00  0.00    +0.000 A 
ATOM      6  N   UNL     1       7.419   5.552  14.938  0.00  0.00    +0.000 NA
ATOM      7  O   UNL     1       7.820   6.342  15.988  0.00  0.00    +0.000 OA
ATOM      8  C   UNL     1       7.216   5.933  17.135  0.00  0.00    +0.000 A 
ATOM      9  C   UNL     1       7.596   6.707  18.332  0.00  0.00    +0.000 C 
ATOM     10  C   UNL     1       6.387   4.858  16.866  0.00  0.00    +0.000 A 
BRANCH   5  12
ATOM     11  C   UNL     1       6.312   3.870  13.097  0.00  0.00    +0.000 C 
ATOM     12  C   UNL     1       5.971   3.624  14.560  0.00  0.00    +0.000 C 
ENDBRANCH   5  12
ENDBRANCH   1  10
BRANCH   3  13
ATOM     13  C   UNL     1       3.622   2.562  18.020  0.00  0.00    +0.000 C 
BRANCH  13  14
ATOM     14  C   UNL     1       2.196   3.104  18.140  0.00  0.00    +0.000 C 
BRANCH  14  15
ATOM     15  C   UNL     1       2.166   4.469  18.788  0.00  0.00    +0.000 A 
ATOM     16  C   UNL     1       1.877   4.593  20.154  0.00  0.00    +0.000 A 
ATOM     17  C   UNL     1       1.800   5.853  20.753  0.00  0.00    +0.000 A 
ATOM     18  C   UNL     1       2.014   7.004  19.996  0.00  0.00    +0.000 A 
ATOM     19  C   UNL     1       2.314   6.890  18.638  0.00  0.00    +0.000 A 
ATOM     20  C   UNL     1       2.387   5.632  18.034  0.00  0.00    +0.000 A 
ENDBRANCH  14  15
ENDBRANCH  13  14
ENDBRANCH   3  13
TORSDOF 5
ENDMDL
MODEL 4
REMARK VINA RESULT:      -7.2      1.155      1.621
REMARK  Name = 
REMARK  7 active torsions:
REMARK  status: ('A' for Active; 'I' for Inactive)
REMARK    1  A    between atoms: C_1  and  C_2
REMARK    2  A    between atoms: C_2  and  C_3
REMARK    3  A    between atoms: C_6  and  C_7
REMARK    4  A    between atoms: C_8  and  C_9
REMARK    5  A    between atoms: N_11  and  C_12
REMARK    6  A    between atoms: C_12  and  C_13
REMARK    7  A    between atoms: C_13  and  C_14
REMARK                            x       y       z     vdW  Elec       q    Type
REMARK                         _______ _______ _______ _____ _____    ______ ____
ROOT
ATOM      1  C   UNL     1       4.957   6.224  17.271  0.00  0.00    +0.000 C 
ATOM      2  O   UNL     1       4.548   7.029  16.439  0.00  0.00    +0.000 OA
ATOM      3  N   UNL     1       4.290   6.045  18.469  0.00  0.00    +0.000 N 
ATOM      4  H   UNL     1       4.657   5.435  19.180  0.00  0.00    +0.000 HD
ENDROOT
BRANCH   1  10
ATOM      5  C   UNL     1       6.414   4.598  15.898  0.00  0.00    +0.000 A 
ATOM      6  N   UNL     1       7.609   4.001  15.986  0.00  0.00    +0.000 NA
ATOM      7  O   UNL     1       8.150   4.419  17.178  0.00  0.00    +0.000 OA
ATOM      8  C   UNL     1       7.292   5.263  17.808  0.00  0.00    +0.000 A 
ATOM      9  C   UNL     1       7.771   5.756  19.113  0.00  0.00    +0.000 C 
ATOM     10  C   UNL     1       6.155   5.433  17.036  0.00  0.00    +0.000 A 
BRANCH   5  12
ATOM     11  C   UNL     1       6.373   3.944  13.484  0.00  0.00    +0.000 C 
ATOM     12  C   UNL     1       5.553   4.318  14.711  0.00  0.00    +0.000 C 
ENDBRANCH   5  12
ENDBRANCH   1  10
BRANCH   3  13
ATOM     13  C   UNL     1       3.102   6.832  18.758  0.00  0.00    +0.000 C 
BRANCH  13  14
ATOM     14  C   UNL     1       1.805   6.161  18.300  0.00  0.00    +0.000 C 
BRANCH  14  15
ATOM     15  C   UNL     1       1.761   4.700  18.683  0.00  0.00    +0.000 A 
ATOM     16  C   UNL     1       2.060   3.714  17.732  0.00  0.00    +0.000 A 
ATOM     17  C   UNL     1       1.977   2.360  18.063  0.00  0.00    +0.000 A 
ATOM     18  C   UNL     1       1.596   1.973  19.346  0.00  0.00    +0.000 A 
ATOM     19  C   UNL     1       1.307   2.947  20.303  0.00  0.00    +0.000 A 
ATOM     20  C   UNL     1       1.386   4.303  19.975  0.00  0.00    +0.000 A 
ENDBRANCH  14  15
ENDBRANCH  13  14
ENDBRANCH   3  13
TORSDOF 5
ENDMDL
MODEL 5
REMARK VINA RESULT:      -7.2      1.173      1.268
REMARK  Name = 
REMARK  7 active torsions:
REMARK  status: ('A' for Active; 'I' for Inactive)
REMARK    1  A    between atoms: C_1  and  C_2
REMARK    2  A    between atoms: C_2  and  C_3
REMARK    3  A    between atoms: C_6  and  C_7
REMARK    4  A    between atoms: C_8  and  C_9
REMARK    5  A    between atoms: N_11  and  C_12
REMARK    6  A    between atoms: C_12  and  C_13
REMARK    7  A    between atoms: C_13  and  C_14
REMARK                            x       y       z     vdW  Elec       q    Type
REMARK                         _______ _______ _______ _____ _____    ______ ____
ROOT
ATOM      1  C   UNL     1       4.948   5.879  17.825  0.00  0.00    +0.000 C 
ATOM      2  O   UNL     1       4.938   5.022  18.704  0.00  0.00    +0.000 OA
ATOM      3  N   UNL     1       3.889   6.757  17.682  0.00  0.00    +0.000 N 
ATOM      4  H   UNL     1       3.862   7.417  16.924  0.00  0.00    +0.000 HD
ENDROOT
BRANCH   1  10
ATOM      5  C   UNL     1       6.233   5.284  15.669  0.00  0.00    +0.000 A 
ATOM      6  N   UNL     1       7.370   5.625  15.051  0.00  0.00    +0.000 NA
ATOM      7  O   UNL     1       7.971   6.558  15.861  0.00  0.00    +0.000 OA
ATOM      8  C   UNL     1       7.205   6.783  16.960  0.00  0.00    +0.000 A 
ATOM      9  C   UNL     1       7.774   7.759  17.908  0.00  0.00    +0.000 C 
ATOM     10  C   UNL     1       6.063   6.003  16.899  0.00  0.00    +0.000 A 
BRANCH   5  12
ATOM     11  C   UNL     1       5.873   3.801  13.687  0.00  0.00    +0.000 C 
ATOM     12  C   UNL     1       5.355   4.249  15.046  0.00  0.00    +0.000 C 
ENDBRANCH   5  12
ENDBRANCH   1  10
BRANCH   3  13
ATOM     13  C   UNL     1       2.742   6.654  18.569  0.00  0.00    +0.000 C 
BRANCH  13  14
ATOM     14  C   UNL     1       1.770   5.539  18.176  0.00  0.00    +0.000 C 
BRANCH  14  15
ATOM     15  C   UNL     1       1.660   4.484  19.252  0.00  0.00    +0.000 A 
ATOM     16  C   UNL     1       2.031   4.783  20.571  0.00  0.00    +0.000 A 
ATOM     17  C   UNL     1       1.977   3.803  21.565  0.00  0.00    +0.000 A 
ATOM     18  C   UNL     1       1.550   2.513  21.255  0.00  0.00    +0.000 A 
ATOM     19  C   UNL     1       1.167   2.208  19.947  0.00  0.00    +0.000 A 
ATOM     20  C   UNL     1       1.223   3.186  18.950  0.00  0.00    +0.000 A 
ENDBRANCH  14  15
ENDBRANCH  13  14
ENDBRANCH   3  13
TORSDOF 5
ENDMDL
MODEL 6
REMARK VINA RESULT:      -7.2      1.091      2.536
REMARK  Name = 
REMARK  7 active torsions:
REMARK  status: ('A' for Active; 'I' for Inactive)
REMARK    1  A    between atoms: C_1  and  C_2
REMARK    2  A    between atoms: C_2  and  C_3
REMARK    3  A    between atoms: C_6  and  C_7
REMARK    4  A    between atoms: C_8  and  C_9
REMARK    5  A    between atoms: N_11  and  C_12
REMARK    6  A    between atoms: C_12  and  C_13
REMARK    7  A    between atoms: C_13  and  C_14
REMARK                            x       y       z     vdW  Elec       q    Type
REMARK                         _______ _______ _______ _____ _____    ______ ____
ROOT
ATOM      1  C   UNL     1       4.871   6.230  16.949  0.00  0.00    +0.000 C 
ATOM      2  O   UNL     1       4.716   7.301  16.367  0.00  0.00    +0.000 OA
ATOM      3  N   UNL     1       3.956   5.798  17.892  0.00  0.00    +0.000 N 
ATOM      4  H   UNL     1       4.113   4.955  18.417  0.00  0.00    +0.000 HD
ENDROOT
BRANCH   1  10
ATOM      5  C   UNL     1       7.184   5.230  17.497  0.00  0.00    +0.000 A 
ATOM      6  N   UNL     1       8.060   4.372  16.961  0.00  0.00    +0.000 NA
ATOM      7  O   UNL     1       7.498   3.952  15.780  0.00  0.00    +0.000 OA
ATOM      8  C   UNL     1       6.291   4.548  15.601  0.00  0.00    +0.000 A 
ATOM      9  C   UNL     1       5.610   4.178  14.346  0.00  0.00    +0.000 C 
ATOM     10  C   UNL     1       6.018   5.378  16.675  0.00  0.00    +0.000 A 
BRANCH   5  12
ATOM     11  C   UNL     1       8.115   7.281  18.585  0.00  0.00    +0.000 C 
ATOM     12  C   UNL     1       7.523   5.894  18.792  0.00  0.00    +0.000 C 
ENDBRANCH   5  12
ENDBRANCH   1  10
BRANCH   3  13
ATOM     13  C   UNL     1       2.807   6.629  18.216  0.00  0.00    +0.000 C 
BRANCH  13  14
ATOM     14  C   UNL     1       2.373   6.518  19.679  0.00  0.00    +0.000 C 
BRANCH  14  15
ATOM     15  C   UNL     1       2.005   5.101  20.051  0.00  0.00    +0.000 A 
ATOM     16  C   UNL     1       2.395   4.575  21.291  0.00  0.00    +0.000 A 
ATOM     17  C   UNL     1       2.101   3.251  21.626  0.00  0.00    +0.000 A 
ATOM     18  C   UNL     1       1.411   2.437  20.729  0.00  0.00    +0.000 A 
ATOM     19  C   UNL     1       1.008   2.955  19.497  0.00  0.00    +0.000 A 
ATOM     20  C   UNL     1       1.305   4.278  19.157  0.00  0.00    +0.000 A 
ENDBRANCH  14  15
ENDBRANCH  13  14
ENDBRANCH   3  13
TORSDOF 5
ENDMDL
MODEL 7
REMARK VINA RESULT:      -7.1      1.387      2.910
REMARK  Name = 
REMARK  7 active torsions:
REMARK  status: ('A' for Active; 'I' for Inactive)
REMARK    1  A    between atoms: C_1  and  C_2
REMARK    2  A    between atoms: C_2  and  C_3
REMARK    3  A    between atoms: C_6  and  C_7
REMARK    4  A    between atoms: C_8  and  C_9
REMARK    5  A    between atoms: N_11  and  C_12
REMARK    6  A    between atoms: C_12  and  C_13
REMARK    7  A    between atoms: C_13  and  C_14
REMARK                            x       y       z     vdW  Elec       q    Type
REMARK                         _______ _______ _______ _____ _____    ______ ____
ROOT
ATOM      1  C   UNL     1       5.164   6.414  16.558  0.00  0.00    +0.000 C 
ATOM      2  O   UNL     1       4.924   7.140  15.598  0.00  0.00    +0.000 OA
ATOM      3  N   UNL     1       4.395   6.482  17.705  0.00  0.00    +0.000 N 
ATOM      4  H   UNL     1       4.627   5.936  18.518  0.00  0.00    +0.000 HD
ENDROOT
BRANCH   1  10
ATOM      5  C   UNL     1       7.311   5.342  17.504  0.00  0.00    +0.000 A 
ATOM      6  N   UNL     1       8.170   4.366  17.186  0.00  0.00    +0.000 NA
ATOM      7  O   UNL     1       7.715   3.836  16.004  0.00  0.00    +0.000 OA
ATOM      8  C   UNL     1       6.588   4.483  15.607  0.00  0.00    +0.000 A 
ATOM      9  C   UNL     1       6.026   4.000  14.332  0.00  0.00    +0.000 C 
ATOM     10  C   UNL     1       6.262   5.460  16.532  0.00  0.00    +0.000 A 
BRANCH   5  12
ATOM     11  C   UNL     1       8.158   7.505  18.432  0.00  0.00    +0.000 C 
ATOM     12  C   UNL     1       7.553   6.143  18.741  0.00  0.00    +0.000 C 
ENDBRANCH   5  12
ENDBRANCH   1  10
BRANCH   3  13
ATOM     13  C   UNL     1       3.302   7.438  17.786  0.00  0.00    +0.000 C 
BRANCH  13  14
ATOM     14  C   UNL     1       2.421   7.248  19.022  0.00  0.00    +0.000 C 
BRANCH  14  15
ATOM     15  C   UNL     1       2.010   5.805  19.204  0.00  0.00    +0.000 A 
ATOM     16  C   UNL     1       1.804   4.986  18.085  0.00  0.00    +0.000 A 
ATOM     17  C   UNL     1       1.379   3.665  18.240  0.00  0.00    +0.000 A 
ATOM     18  C   UNL     1       1.157   3.144  19.514  0.00  0.00    +0.000 A 
ATOM     19  C   UNL     1       1.370   3.948  20.634  0.00  0.00    +0.000 A 
ATOM     20  C   UNL     1       1.792   5.272  20.483  0.00  0.00    +0.000 A 
ENDBRANCH  14  15
ENDBRANCH  13  14
ENDBRANCH   3  13
TORSDOF 5
ENDMDL
MODEL 8
REMARK VINA RESULT:      -7.1      1.246      1.627
REMARK  Name = 
REMARK  7 active torsions:
REMARK  status: ('A' for Active; 'I' for Inactive)
REMARK    1  A    between atoms: C_1  and  C_2
REMARK    2  A    between atoms: C_2  and  C_3
REMARK    3  A    between atoms: C_6  and  C_7
REMARK    4  A    between atoms: C_8  and  C_9
REMARK    5  A    between atoms: N_11  and  C_12
REMARK    6  A    between atoms: C_12  and  C_13
REMARK    7  A    between atoms: C_13  and  C_14
REMARK                            x       y       z     vdW  Elec       q    Type
REMARK                         _______ _______ _______ _____ _____    ______ ____
ROOT
ATOM      1  C   UNL     1       4.905   6.051  17.899  0.00  0.00    +0.000 C 
ATOM      2  O   UNL     1       4.931   5.423  18.955  0.00  0.00    +0.000 OA
ATOM      3  N   UNL     1       3.764   6.725  17.506  0.00  0.00    +0.000 N 
ATOM      4  H   UNL     1       3.716   7.185  16.613  0.00  0.00    +0.000 HD
ENDROOT
BRANCH   1  10
ATOM      5  C   UNL     1       6.206   5.448  15.756  0.00  0.00    +0.000 A 
ATOM      6  N   UNL     1       7.398   5.699  15.200  0.00  0.00    +0.000 NA
ATOM      7  O   UNL     1       8.062   6.510  16.088  0.00  0.00    +0.000 OA
ATOM      8  C   UNL     1       7.280   6.751  17.173  0.00  0.00    +0.000 A 
ATOM      9  C   UNL     1       7.911   7.601  18.200  0.00  0.00    +0.000 C 
ATOM     10  C   UNL     1       6.064   6.107  17.022  0.00  0.00    +0.000 A 
BRANCH   5  12
ATOM     11  C   UNL     1       5.933   3.735  13.953  0.00  0.00    +0.000 C 
ATOM     12  C   UNL     1       5.248   4.556  15.037  0.00  0.00    +0.000 C 
ENDBRANCH   5  12
ENDBRANCH   1  10
BRANCH   3  13
ATOM     13  C   UNL     1       2.573   6.676  18.339  0.00  0.00    +0.000 C 
BRANCH  13  14
ATOM     14  C   UNL     1       1.618   5.541  17.964  0.00  0.00    +0.000 C 
BRANCH  14  15
ATOM     15  C   UNL     1       1.662   4.414  18.969  0.00  0.00    +0.000 A 
ATOM     16  C   UNL     1       1.825   3.090  18.535  0.00  0.00    +0.000 A 
ATOM     17  C   UNL     1       1.821   2.036  19.451  0.00  0.00    +0.000 A 
ATOM     18  C   UNL     1       1.656   2.290  20.812  0.00  0.00    +0.000 A 
ATOM     19  C   UNL     1       1.504   3.604  21.255  0.00  0.00    +0.000 A 
ATOM     20  C   UNL     1       1.504   4.662  20.341  0.00  0.00    +0.000 A 
ENDBRANCH  14  15
ENDBRANCH  13  14
ENDBRANCH   3  13
TORSDOF 5
ENDMDL
MODEL 9
REMARK VINA RESULT:      -7.1      1.558      2.632
REMARK  Name = 
REMARK  7 active torsions:
REMARK  status: ('A' for Active; 'I' for Inactive)
REMARK    1  A    between atoms: C_1  and  C_2
REMARK    2  A    between atoms: C_2  and  C_3
REMARK    3  A    between atoms: C_6  and  C_7
REMARK    4  A    between atoms: C_8  and  C_9
REMARK    5  A    between atoms: N_11  and  C_12
REMARK    6  A    between atoms: C_12  and  C_13
REMARK    7  A    between atoms: C_13  and  C_14
REMARK                            x       y       z     vdW  Elec       q    Type
REMARK                         _______ _______ _______ _____ _____    ______ ____
ROOT
ATOM      1  C   UNL     1       5.307   3.801  18.132  0.00  0.00    +0.000 C 
ATOM      2  O   UNL     1       5.362   3.633  19.347  0.00  0.00    +0.000 OA
ATOM      3  N   UNL     1       4.358   3.144  17.370  0.00  0.00    +0.000 N 
ATOM      4  H   UNL     1       4.350   3.228  16.368  0.00  0.00    +0.000 HD
ENDROOT
BRANCH   1  10
ATOM      5  C   UNL     1       6.300   4.923  16.033  0.00  0.00    +0.000 A 
ATOM      6  N   UNL     1       7.268   5.794  15.722  0.00  0.00    +0.000 NA
ATOM      7  O   UNL     1       7.859   6.138  16.914  0.00  0.00    +0.000 OA
ATOM      8  C   UNL     1       7.255   5.483  17.939  0.00  0.00    +0.000 A 
ATOM      9  C   UNL     1       7.830   5.769  19.267  0.00  0.00    +0.000 C 
ATOM     10  C   UNL     1       6.233   4.689  17.447  0.00  0.00    +0.000 A 
BRANCH   5  12
ATOM     11  C   UNL     1       6.330   3.952  13.728  0.00  0.00    +0.000 C 
ATOM     12  C   UNL     1       5.481   4.331  14.933  0.00  0.00    +0.000 C 
ENDBRANCH   5  12
ENDBRANCH   1  10
BRANCH   3  13
ATOM     13  C   UNL     1       3.427   2.228  18.009  0.00  0.00    +0.000 C 
BRANCH  13  14
ATOM     14  C   UNL     1       2.004   2.781  18.108  0.00  0.00    +0.000 C 
BRANCH  14  15
ATOM     15  C   UNL     1       1.975   4.148  18.753  0.00  0.00    +0.000 A 
ATOM     16  C   UNL     1       2.186   5.297  17.977  0.00  0.00    +0.000 A 
ATOM     17  C   UNL     1       2.208   6.561  18.570  0.00  0.00    +0.000 A 
ATOM     18  C   UNL     1       2.017   6.695  19.944  0.00  0.00    +0.000 A 
ATOM     19  C   UNL     1       1.794   5.558  20.723  0.00  0.00    +0.000 A 
ATOM     20  C   UNL     1       1.776   4.291  20.134  0.00  0.00    +0.000 A 
ENDBRANCH  14  15
ENDBRANCH  13  14
ENDBRANCH   3  13
TORSDOF 5
ENDMDL
