MODEL 1
REMARK VINA RESULT:      -8.0      0.000      0.000
REMARK  Name = 
REMARK  4 active torsions:
REMARK  status: ('A' for Active; 'I' for Inactive)
REMARK    1  A    between atoms: C_2  and  C_18
REMARK    2  A    between atoms: N_3  and  N_4
REMARK    3  A    between atoms: C_5  and  C_7
REMARK    4  A    between atoms: C_10  and  C_11
REMARK                            x       y       z     vdW  Elec       q    Type
REMARK                         _______ _______ _______ _____ _____    ______ ____
ROOT
ATOM      1  N   UNL     1       2.369   6.899  20.125  0.00  0.00    +0.000 N 
ATOM      2  C   UNL     1       2.085   5.551  20.150  0.00  0.00    +0.000 C 
ATOM      3  O   UNL     1       1.167   5.072  20.814  0.00  0.00    +0.000 OA
ATOM      4  H   UNL     1       3.130   7.275  19.561  0.00  0.00    +0.000 HD
ENDROOT
BRANCH   2   5
ATOM      5  C   UNL     1       2.972   4.735  19.314  0.00  0.00    +0.000 A 
ATOM      6  C   UNL     1       3.137   3.376  19.507  0.00  0.00    +0.000 A 
ATOM      7  S   UNL     1       4.237   2.738  18.371  0.00  0.00    +0.000 S 
ATOM      8  C   UNL     1       4.444   4.307  17.678  0.00  0.00    +0.000 A 
ATOM      9  N   UNL     1       3.736   5.260  18.262  0.00  0.00    +0.000 NA
BRANCH   8  10
ATOM     10  C   UNL     1       5.397   4.514  16.574  0.00  0.00    +0.000 A 
ATOM     11  C   UNL     1       5.150   3.964  15.311  0.00  0.00    +0.000 A 
ATOM     12  C   UNL     1       6.037   4.190  14.257  0.00  0.00    +0.000 A 
ATOM     13  C   UNL     1       7.165   4.956  14.498  0.00  0.00    +0.000 A 
ATOM     14  N   UNL     1       7.457   5.492  15.699  0.00  0.00    +0.000 NA
ATOM     15  C   UNL     1       6.571   5.258  16.702  0.00  0.00    +0.000 A 
ENDBRANCH   8  10
ENDBRANCH   2   5
BRANCH   1  18
ATOM     16  O   UNL     1       1.287   9.200  19.122  0.00  0.00    +0.000 OA
ATOM     17  C   UNL     1       1.128   8.938  20.311  0.00  0.00    +0.000 C 
ATOM     18  N   UNL     1       1.614   7.788  20.900  0.00  0.00    +0.000 N 
ATOM     19  H   UNL     1       1.494   7.603  21.898  0.00  0.00    +0.000 HD
BRANCH  17  20
ATOM     20  C   UNL     1       0.388   9.864  21.229  0.00  0.00    +0.000 A 
ATOM     21  C   UNL     1      -0.188   9.354  22.387  0.00  0.00    +0.000 A 
ATOM     22  C   UNL     1      -0.886  10.223  23.219  0.00  0.00    +0.000 A 
ATOM     23  C   UNL     1      -0.986  11.565  22.868  0.00  0.00    +0.000 A 
ATOM     24  C   UNL     1      -0.377  11.990  21.693  0.00  0.00    +0.000 A 
ATOM     25  N   UNL     1       0.310  11.174  20.861  0.00  0.00    +0.000 NA
ENDBRANCH  17  20
ENDBRANCH   1  18
TORSDOF 4
ENDMDL
MODEL 2
REMARK VINA RESULT:      -7.8      5.409      7.573
REMARK  Name = 
REMARK  4 active torsions:
REMARK  status: ('A' for Active; 'I' for Inactive)
REMARK    1  A    between atoms: C_2  and  C_18
REMARK    2  A    between atoms: N_3  and  N_4
REMARK    3  A    between atoms: C_5  and  C_7
REMARK    4  A    between atoms: C_10  and  C_11
REMARK                            x       y       z     vdW  Elec       q    Type
REMARK                         _______ _______ _______ _____ _____    ______ ____
ROOT
ATOM      1  N   UNL     1       7.864   7.546  18.151  0.00  0.00    +0.000 N 
ATOM      2  C   UNL     1       7.727   6.293  18.705  0.00  0.00    +0.000 C 
ATOM      3  O   UNL     1       8.353   5.928  19.699  0.00  0.00    +0.000 OA
ATOM      4  H   UNL     1       7.329   7.830  17.331  0.00  0.00    +0.000 HD
ENDROOT
BRANCH   2   5
ATOM      5  C   UNL     1       6.767   5.429  18.008  0.00  0.00    +0.000 A 
ATOM      6  C   UNL     1       6.953   5.007  16.705  0.00  0.00    +0.000 A 
ATOM      7  S   UNL     1       5.653   4.025  16.201  0.00  0.00    +0.000 S 
ATOM      8  C   UNL     1       4.902   4.214  17.745  0.00  0.00    +0.000 A 
ATOM      9  N   UNL     1       5.578   4.972  18.594  0.00  0.00    +0.000 NA
BRANCH   8  10
ATOM     10  C   UNL     1       3.583   3.613  18.011  0.00  0.00    +0.000 A 
ATOM     11  C   UNL     1       3.470   2.483  18.829  0.00  0.00    +0.000 A 
ATOM     12  C   UNL     1       2.216   1.935  19.106  0.00  0.00    +0.000 A 
ATOM     13  C   UNL     1       1.099   2.529  18.545  0.00  0.00    +0.000 A 
ATOM     14  N   UNL     1       1.156   3.606  17.737  0.00  0.00    +0.000 NA
ATOM     15  C   UNL     1       2.390   4.118  17.491  0.00  0.00    +0.000 A 
ENDBRANCH   8  10
ENDBRANCH   2   5
BRANCH   1  18
ATOM     16  O   UNL     1       7.751  10.233  17.660  0.00  0.00    +0.000 OA
ATOM     17  C   UNL     1       8.646   9.797  18.379  0.00  0.00    +0.000 C 
ATOM     18  N   UNL     1       8.768   8.462  18.704  0.00  0.00    +0.000 N 
ATOM     19  H   UNL     1       9.537   8.117  19.282  0.00  0.00    +0.000 HD
BRANCH  17  20
ATOM     20  C   UNL     1       9.694  10.696  18.963  0.00  0.00    +0.000 A 
ATOM     21  C   UNL     1      10.759  11.103  18.166  0.00  0.00    +0.000 A 
ATOM     22  C   UNL     1      11.732  11.923  18.728  0.00  0.00    +0.000 A 
ATOM     23  C   UNL     1      11.612  12.306  20.059  0.00  0.00    +0.000 A 
ATOM     24  C   UNL     1      10.513  11.854  20.782  0.00  0.00    +0.000 A 
ATOM     25  N   UNL     1       9.547  11.058  20.268  0.00  0.00    +0.000 NA
ENDBRANCH  17  20
ENDBRANCH   1  18
TORSDOF 4
ENDMDL
MODEL 3
REMARK VINA RESULT:      -7.7      0.583      1.010
REMARK  Name = 
REMARK  4 active torsions:
REMARK  status: ('A' for Active; 'I' for Inactive)
REMARK    1  A    between atoms: C_2  and  C_18
REMARK    2  A    between atoms: N_3  and  N_4
REMARK    3  A    between atoms: C_5  and  C_7
REMARK    4  A    between atoms: C_10  and  C_11
REMARK                            x       y       z     vdW  Elec       q    Type
REMARK                         _______ _______ _______ _____ _____    ______ ____
ROOT
ATOM      1  N   UNL     1       2.278   6.906  20.040  0.00  0.00    +0.000 N 
ATOM      2  C   UNL     1       2.066   5.549  20.138  0.00  0.00    +0.000 C 
ATOM      3  O   UNL     1       1.222   5.054  20.885  0.00  0.00    +0.000 OA
ATOM      4  H   UNL     1       2.977   7.294  19.408  0.00  0.00    +0.000 HD
ENDROOT
BRANCH   2   5
ATOM      5  C   UNL     1       2.933   4.741  19.273  0.00  0.00    +0.000 A 
ATOM      6  C   UNL     1       3.041   3.368  19.398  0.00  0.00    +0.000 A 
ATOM      7  S   UNL     1       4.133   2.745  18.246  0.00  0.00    +0.000 S 
ATOM      8  C   UNL     1       4.413   4.338  17.638  0.00  0.00    +0.000 A 
ATOM      9  N   UNL     1       3.734   5.289  18.261  0.00  0.00    +0.000 NA
BRANCH   8  10
ATOM     10  C   UNL     1       5.392   4.563  16.560  0.00  0.00    +0.000 A 
ATOM     11  C   UNL     1       5.276   3.881  15.343  0.00  0.00    +0.000 A 
ATOM     12  C   UNL     1       6.184   4.121  14.311  0.00  0.00    +0.000 A 
ATOM     13  C   UNL     1       7.201   5.035  14.527  0.00  0.00    +0.000 A 
ATOM     14  N   UNL     1       7.367   5.703  15.685  0.00  0.00    +0.000 NA
ATOM     15  C   UNL     1       6.463   5.451  16.669  0.00  0.00    +0.000 A 
ENDBRANCH   8  10
ENDBRANCH   2   5
BRANCH   1  18
ATOM     16  O   UNL     1       1.235   9.245  19.083  0.00  0.00    +0.000 OA
ATOM     17  C   UNL     1       1.068   8.960  20.266  0.00  0.00    +0.000 C 
ATOM     18  N   UNL     1       1.533   7.790  20.831  0.00  0.00    +0.000 N 
ATOM     19  H   UNL     1       1.407   7.586  21.824  0.00  0.00    +0.000 HD
BRANCH  17  20
ATOM     20  C   UNL     1       0.339   9.877  21.201  0.00  0.00    +0.000 A 
ATOM     21  C   UNL     1       0.275  11.234  20.907  0.00  0.00    +0.000 A 
ATOM     22  C   UNL     1      -0.390  12.075  21.794  0.00  0.00    +0.000 A 
ATOM     23  C   UNL     1      -0.964  11.535  22.939  0.00  0.00    +0.000 A 
ATOM     24  C   UNL     1      -0.854  10.166  23.154  0.00  0.00    +0.000 A 
ATOM     25  N   UNL     1      -0.217   9.319  22.313  0.00  0.00    +0.000 NA
ENDBRANCH  17  20
ENDBRANCH   1  18
TORSDOF 4
ENDMDL
MODEL 4
REMARK VINA RESULT:      -7.5      5.189      7.696
REMARK  Name = 
REMARK  4 active torsions:
REMARK  status: ('A' for Active; 'I' for Inactive)
REMARK    1  A    between atoms: C_2  and  C_18
REMARK    2  A    between atoms: N_3  and  N_4
REMARK    3  A    between atoms: C_5  and  C_7
REMARK    4  A    between atoms: C_10  and  C_11
REMARK                            x       y       z     vdW  Elec       q    Type
REMARK                         _______ _______ _______ _____ _____    ______ ____
ROOT
ATOM      1  N   UNL     1       7.796   7.964  17.941  0.00  0.00    +0.000 N 
ATOM      2  C   UNL     1       7.662   6.676  18.411  0.00  0.00    +0.000 C 
ATOM      3  O   UNL     1       8.366   6.215  19.310  0.00  0.00    +0.000 OA
ATOM      4  H   UNL     1       7.196   8.328  17.201  0.00  0.00    +0.000 HD
ENDROOT
BRANCH   2   5
ATOM      5  C   UNL     1       6.607   5.901  17.750  0.00  0.00    +0.000 A 
ATOM      6  C   UNL     1       6.593   5.671  16.387  0.00  0.00    +0.000 A 
ATOM      7  S   UNL     1       5.230   4.744  15.949  0.00  0.00    +0.000 S 
ATOM      8  C   UNL     1       4.721   4.698  17.599  0.00  0.00    +0.000 A 
ATOM      9  N   UNL     1       5.519   5.342  18.437  0.00  0.00    +0.000 NA
BRANCH   8  10
ATOM     10  C   UNL     1       3.457   4.040  17.971  0.00  0.00    +0.000 A 
ATOM     11  C   UNL     1       2.572   4.655  18.864  0.00  0.00    +0.000 A 
ATOM     12  C   UNL     1       1.359   4.045  19.189  0.00  0.00    +0.000 A 
ATOM     13  C   UNL     1       1.064   2.819  18.616  0.00  0.00    +0.000 A 
ATOM     14  N   UNL     1       1.889   2.178  17.766  0.00  0.00    +0.000 NA
ATOM     15  C   UNL     1       3.059   2.801  17.466  0.00  0.00    +0.000 A 
ENDBRANCH   8  10
ENDBRANCH   2   5
BRANCH   1  18
ATOM     16  O   UNL     1       7.814  10.670  17.554  0.00  0.00    +0.000 OA
ATOM     17  C   UNL     1       8.723  10.156  18.200  0.00  0.00    +0.000 C 
ATOM     18  N   UNL     1       8.784   8.804  18.470  0.00  0.00    +0.000 N 
ATOM     19  H   UNL     1       9.564   8.394  18.986  0.00  0.00    +0.000 HD
BRANCH  17  20
ATOM     20  C   UNL     1       9.855  10.970  18.749  0.00  0.00    +0.000 A 
ATOM     21  C   UNL     1       9.899  11.240  20.112  0.00  0.00    +0.000 A 
ATOM     22  C   UNL     1      10.948  12.012  20.602  0.00  0.00    +0.000 A 
ATOM     23  C   UNL     1      11.912  12.487  19.720  0.00  0.00    +0.000 A 
ATOM     24  C   UNL     1      11.792  12.167  18.373  0.00  0.00    +0.000 A 
ATOM     25  N   UNL     1      10.787  11.418  17.861  0.00  0.00    +0.000 NA
ENDBRANCH  17  20
ENDBRANCH   1  18
TORSDOF 4
ENDMDL
MODEL 5
REMARK VINA RESULT:      -7.4      1.624      2.097
REMARK  Name = 
REMARK  4 active torsions:
REMARK  status: ('A' for Active; 'I' for Inactive)
REMARK    1  A    between atoms: C_2  and  C_18
REMARK    2  A    between atoms: N_3  and  N_4
REMARK    3  A    between atoms: C_5  and  C_7
REMARK    4  A    between atoms: C_10  and  C_11
REMARK                            x       y       z     vdW  Elec       q    Type
REMARK                         _______ _______ _______ _____ _____    ______ ____
ROOT
ATOM      1  N   UNL     1       1.568   8.436  20.142  0.00  0.00    +0.000 N 
ATOM      2  C   UNL     1       1.992   8.330  18.836  0.00  0.00    +0.000 C 
ATOM      3  O   UNL     1       1.726   9.168  17.975  0.00  0.00    +0.000 OA
ATOM      4  H   UNL     1       1.808   7.733  20.841  0.00  0.00    +0.000 HD
ENDROOT
BRANCH   2   5
ATOM      5  C   UNL     1       2.791   7.131  18.558  0.00  0.00    +0.000 A 
ATOM      6  C   UNL     1       2.750   6.006  19.360  0.00  0.00    +0.000 A 
ATOM      7  S   UNL     1       3.799   4.804  18.759  0.00  0.00    +0.000 S 
ATOM      8  C   UNL     1       4.262   5.845  17.461  0.00  0.00    +0.000 A 
ATOM      9  N   UNL     1       3.671   7.029  17.472  0.00  0.00    +0.000 NA
BRANCH   8  10
ATOM     10  C   UNL     1       5.286   5.418  16.492  0.00  0.00    +0.000 A 
ATOM     11  C   UNL     1       5.002   4.421  15.551  0.00  0.00    +0.000 A 
ATOM     12  C   UNL     1       5.963   4.042  14.612  0.00  0.00    +0.000 A 
ATOM     13  C   UNL     1       7.198   4.666  14.645  0.00  0.00    +0.000 A 
ATOM     14  N   UNL     1       7.527   5.617  15.540  0.00  0.00    +0.000 NA
ATOM     15  C   UNL     1       6.568   5.968  16.437  0.00  0.00    +0.000 A 
ENDBRANCH   8  10
ENDBRANCH   2   5
BRANCH   1  18
ATOM     16  O   UNL     1       1.544   9.416  22.695  0.00  0.00    +0.000 OA
ATOM     17  C   UNL     1       0.811   9.930  21.854  0.00  0.00    +0.000 C 
ATOM     18  N   UNL     1       0.775   9.522  20.536  0.00  0.00    +0.000 N 
ATOM     19  H   UNL     1       0.138   9.946  19.859  0.00  0.00    +0.000 HD
BRANCH  17  20
ATOM     20  C   UNL     1      -0.117  11.054  22.201  0.00  0.00    +0.000 A 
ATOM     21  C   UNL     1      -1.226  10.796  22.999  0.00  0.00    +0.000 A 
ATOM     22  C   UNL     1      -2.088  11.847  23.298  0.00  0.00    +0.000 A 
ATOM     23  C   UNL     1      -1.815  13.113  22.792  0.00  0.00    +0.000 A 
ATOM     24  C   UNL     1      -0.682  13.282  22.004  0.00  0.00    +0.000 A 
ATOM     25  N   UNL     1       0.178  12.284  21.695  0.00  0.00    +0.000 NA
ENDBRANCH  17  20
ENDBRANCH   1  18
TORSDOF 4
ENDMDL
MODEL 6
REMARK VINA RESULT:      -7.2      0.676      1.049
REMARK  Name = 
REMARK  4 active torsions:
REMARK  status: ('A' for Active; 'I' for Inactive)
REMARK    1  A    between atoms: C_2  and  C_18
REMARK    2  A    between atoms: N_3  and  N_4
REMARK    3  A    between atoms: C_5  and  C_7
REMARK    4  A    between atoms: C_10  and  C_11
REMARK                            x       y       z     vdW  Elec       q    Type
REMARK                         _______ _______ _______ _____ _____    ______ ____
ROOT
ATOM      1  N   UNL     1       2.335   6.970  20.470  0.00  0.00    +0.000 N 
ATOM      2  C   UNL     1       1.941   5.658  20.324  0.00  0.00    +0.000 C 
ATOM      3  O   UNL     1       0.870   5.228  20.752  0.00  0.00    +0.000 OA
ATOM      4  H   UNL     1       3.223   7.306  20.100  0.00  0.00    +0.000 HD
ENDROOT
BRANCH   2   5
ATOM      5  C   UNL     1       2.909   4.815  19.613  0.00  0.00    +0.000 A 
ATOM      6  C   UNL     1       3.234   3.538  20.030  0.00  0.00    +0.000 A 
ATOM      7  S   UNL     1       4.389   2.842  18.987  0.00  0.00    +0.000 S 
ATOM      8  C   UNL     1       4.404   4.281  18.031  0.00  0.00    +0.000 A 
ATOM      9  N   UNL     1       3.595   5.235  18.465  0.00  0.00    +0.000 NA
BRANCH   8  10
ATOM     10  C   UNL     1       5.316   4.401  16.880  0.00  0.00    +0.000 A 
ATOM     11  C   UNL     1       6.650   4.781  17.068  0.00  0.00    +0.000 A 
ATOM     12  C   UNL     1       7.521   4.861  15.979  0.00  0.00    +0.000 A 
ATOM     13  C   UNL     1       7.028   4.569  14.719  0.00  0.00    +0.000 A 
ATOM     14  N   UNL     1       5.750   4.217  14.483  0.00  0.00    +0.000 NA
ATOM     15  C   UNL     1       4.929   4.142  15.564  0.00  0.00    +0.000 A 
ENDBRANCH   8  10
ENDBRANCH   2   5
BRANCH   1  18
ATOM     16  O   UNL     1       1.267   9.193  19.291  0.00  0.00    +0.000 OA
ATOM     17  C   UNL     1       1.040   8.984  20.480  0.00  0.00    +0.000 C 
ATOM     18  N   UNL     1       1.513   7.876  21.152  0.00  0.00    +0.000 N 
ATOM     19  H   UNL     1       1.336   7.736  22.149  0.00  0.00    +0.000 HD
BRANCH  17  20
ATOM     20  C   UNL     1       0.225   9.934  21.304  0.00  0.00    +0.000 A 
ATOM     21  C   UNL     1      -0.222   9.532  22.558  0.00  0.00    +0.000 A 
ATOM     22  C   UNL     1      -0.993  10.419  23.303  0.00  0.00    +0.000 A 
ATOM     23  C   UNL     1      -1.290  11.670  22.774  0.00  0.00    +0.000 A 
ATOM     24  C   UNL     1      -0.799  11.990  21.513  0.00  0.00    +0.000 A 
ATOM     25  N   UNL     1      -0.046  11.154  20.762  0.00  0.00    +0.000 NA
ENDBRANCH  17  20
ENDBRANCH   1  18
TORSDOF 4
ENDMDL
MODEL 7
REMARK VINA RESULT:      -7.2      1.665      2.286
REMARK  Name = 
REMARK  4 active torsions:
REMARK  status: ('A' for Active; 'I' for Inactive)
REMARK    1  A    between atoms: C_2  and  C_18
REMARK    2  A    between atoms: N_3  and  N_4
REMARK    3  A    between atoms: C_5  and  C_7
REMARK    4  A    between atoms: C_10  and  C_11
REMARK                            x       y       z     vdW  Elec       q    Type
REMARK                         _______ _______ _______ _____ _____    ______ ____
ROOT
ATOM      1  N   UNL     1       1.438   8.307  20.239  0.00  0.00    +0.000 N 
ATOM      2  C   UNL     1       1.971   8.261  18.970  0.00  0.00    +0.000 C 
ATOM      3  O   UNL     1       1.752   9.124  18.120  0.00  0.00    +0.000 OA
ATOM      4  H   UNL     1       1.640   7.586  20.930  0.00  0.00    +0.000 HD
ENDROOT
BRANCH   2   5
ATOM      5  C   UNL     1       2.826   7.096  18.718  0.00  0.00    +0.000 A 
ATOM      6  C   UNL     1       2.911   6.030  19.595  0.00  0.00    +0.000 A 
ATOM      7  S   UNL     1       3.994   4.853  19.005  0.00  0.00    +0.000 S 
ATOM      8  C   UNL     1       4.300   5.824  17.609  0.00  0.00    +0.000 A 
ATOM      9  N   UNL     1       3.636   6.968  17.581  0.00  0.00    +0.000 NA
BRANCH   8  10
ATOM     10  C   UNL     1       5.284   5.390  16.601  0.00  0.00    +0.000 A 
ATOM     11  C   UNL     1       4.964   4.379  15.687  0.00  0.00    +0.000 A 
ATOM     12  C   UNL     1       5.884   3.993  14.711  0.00  0.00    +0.000 A 
ATOM     13  C   UNL     1       7.116   4.624  14.681  0.00  0.00    +0.000 A 
ATOM     14  N   UNL     1       7.479   5.589  15.549  0.00  0.00    +0.000 NA
ATOM     15  C   UNL     1       6.559   5.946  16.483  0.00  0.00    +0.000 A 
ENDBRANCH   8  10
ENDBRANCH   2   5
BRANCH   1  18
ATOM     16  O   UNL     1       1.647   9.645  22.614  0.00  0.00    +0.000 OA
ATOM     17  C   UNL     1       0.750   9.955  21.834  0.00  0.00    +0.000 C 
ATOM     18  N   UNL     1       0.583   9.356  20.603  0.00  0.00    +0.000 N 
ATOM     19  H   UNL     1      -0.187   9.610  19.981  0.00  0.00    +0.000 HD
BRANCH  17  20
ATOM     20  C   UNL     1      -0.249  11.022  22.168  0.00  0.00    +0.000 A 
ATOM     21  C   UNL     1      -0.107  12.285  21.604  0.00  0.00    +0.000 A 
ATOM     22  C   UNL     1      -1.033  13.268  21.939  0.00  0.00    +0.000 A 
ATOM     23  C   UNL     1      -2.062  12.960  22.820  0.00  0.00    +0.000 A 
ATOM     24  C   UNL     1      -2.130  11.670  23.335  0.00  0.00    +0.000 A 
ATOM     25  N   UNL     1      -1.249  10.689  23.031  0.00  0.00    +0.000 NA
ENDBRANCH  17  20
ENDBRANCH   1  18
TORSDOF 4
ENDMDL
MODEL 8
REMARK VINA RESULT:      -7.2      1.275      1.401
REMARK  Name = 
REMARK  4 active torsions:
REMARK  status: ('A' for Active; 'I' for Inactive)
REMARK    1  A    between atoms: C_2  and  C_18
REMARK    2  A    between atoms: N_3  and  N_4
REMARK    3  A    between atoms: C_5  and  C_7
REMARK    4  A    between atoms: C_10  and  C_11
REMARK                            x       y       z     vdW  Elec       q    Type
REMARK                         _______ _______ _______ _____ _____    ______ ____
ROOT
ATOM      1  N   UNL     1       2.228   7.702  19.337  0.00  0.00    +0.000 N 
ATOM      2  C   UNL     1       2.231   6.435  19.878  0.00  0.00    +0.000 C 
ATOM      3  O   UNL     1       1.528   6.113  20.835  0.00  0.00    +0.000 OA
ATOM      4  H   UNL     1       2.813   7.944  18.538  0.00  0.00    +0.000 HD
ENDROOT
BRANCH   2   5
ATOM      5  C   UNL     1       3.145   5.500  19.213  0.00  0.00    +0.000 A 
ATOM      6  C   UNL     1       3.406   4.235  19.705  0.00  0.00    +0.000 A 
ATOM      7  S   UNL     1       4.512   3.416  18.698  0.00  0.00    +0.000 S 
ATOM      8  C   UNL     1       4.595   4.792  17.657  0.00  0.00    +0.000 A 
ATOM      9  N   UNL     1       3.842   5.812  18.036  0.00  0.00    +0.000 NA
BRANCH   8  10
ATOM     10  C   UNL     1       5.500   4.793  16.494  0.00  0.00    +0.000 A 
ATOM     11  C   UNL     1       5.191   4.042  15.354  0.00  0.00    +0.000 A 
ATOM     12  C   UNL     1       6.034   4.071  14.241  0.00  0.00    +0.000 A 
ATOM     13  C   UNL     1       7.178   4.848  14.301  0.00  0.00    +0.000 A 
ATOM     14  N   UNL     1       7.529   5.573  15.380  0.00  0.00    +0.000 NA
ATOM     15  C   UNL     1       6.686   5.528  16.445  0.00  0.00    +0.000 A 
ENDBRANCH   8  10
ENDBRANCH   2   5
BRANCH   1  18
ATOM     16  O   UNL     1       1.026   9.653  17.845  0.00  0.00    +0.000 OA
ATOM     17  C   UNL     1       0.873   9.657  19.064  0.00  0.00    +0.000 C 
ATOM     18  N   UNL     1       1.417   8.700  19.894  0.00  0.00    +0.000 N 
ATOM     19  H   UNL     1       1.300   8.739  20.909  0.00  0.00    +0.000 HD
BRANCH  17  20
ATOM     20  C   UNL     1       0.075  10.723  19.752  0.00  0.00    +0.000 A 
ATOM     21  C   UNL     1       0.597  11.336  20.886  0.00  0.00    +0.000 A 
ATOM     22  C   UNL     1      -0.164  12.311  21.523  0.00  0.00    +0.000 A 
ATOM     23  C   UNL     1      -1.414  12.639  21.010  0.00  0.00    +0.000 A 
ATOM     24  C   UNL     1      -1.857  11.978  19.870  0.00  0.00    +0.000 A 
ATOM     25  N   UNL     1      -1.144  11.027  19.224  0.00  0.00    +0.000 NA
ENDBRANCH  17  20
ENDBRANCH   1  18
TORSDOF 4
ENDMDL
MODEL 9
REMARK VINA RESULT:      -7.1      1.552      1.662
REMARK  Name = 
REMARK  4 active torsions:
REMARK  status: ('A' for Active; 'I' for Inactive)
REMARK    1  A    between atoms: C_2  and  C_18
REMARK    2  A    between atoms: N_3  and  N_4
REMARK    3  A    between atoms: C_5  and  C_7
REMARK    4  A    between atoms: C_10  and  C_11
REMARK                            x       y       z     vdW  Elec       q    Type
REMARK                         _______ _______ _______ _____ _____    ______ ____
ROOT
ATOM      1  N   UNL     1       2.195   7.843  19.133  0.00  0.00    +0.000 N 
ATOM      2  C   UNL     1       2.295   6.638  19.794  0.00  0.00    +0.000 C 
ATOM      3  O   UNL     1       1.652   6.376  20.810  0.00  0.00    +0.000 OA
ATOM      4  H   UNL     1       2.732   8.035  18.288  0.00  0.00    +0.000 HD
ENDROOT
BRANCH   2   5
ATOM      5  C   UNL     1       3.235   5.692  19.181  0.00  0.00    +0.000 A 
ATOM      6  C   UNL     1       3.555   4.479  19.760  0.00  0.00    +0.000 A 
ATOM      7  S   UNL     1       4.675   3.631  18.795  0.00  0.00    +0.000 S 
ATOM      8  C   UNL     1       4.683   4.926  17.652  0.00  0.00    +0.000 A 
ATOM      9  N   UNL     1       3.897   5.942  17.971  0.00  0.00    +0.000 NA
BRANCH   8  10
ATOM     10  C   UNL     1       5.567   4.876  16.474  0.00  0.00    +0.000 A 
ATOM     11  C   UNL     1       5.234   4.081  15.371  0.00  0.00    +0.000 A 
ATOM     12  C   UNL     1       6.055   4.061  14.243  0.00  0.00    +0.000 A 
ATOM     13  C   UNL     1       7.205   4.833  14.250  0.00  0.00    +0.000 A 
ATOM     14  N   UNL     1       7.578   5.600  15.292  0.00  0.00    +0.000 NA
ATOM     15  C   UNL     1       6.755   5.602  16.374  0.00  0.00    +0.000 A 
ENDBRANCH   8  10
ENDBRANCH   2   5
BRANCH   1  18
ATOM     16  O   UNL     1       1.854  10.252  17.887  0.00  0.00    +0.000 OA
ATOM     17  C   UNL     1       1.262  10.039  18.942  0.00  0.00    +0.000 C 
ATOM     18  N   UNL     1       1.352   8.845  19.628  0.00  0.00    +0.000 N 
ATOM     19  H   UNL     1       0.872   8.700  20.518  0.00  0.00    +0.000 HD
BRANCH  17  20
ATOM     20  C   UNL     1       0.389  11.079  19.577  0.00  0.00    +0.000 A 
ATOM     21  C   UNL     1      -0.936  11.192  19.172  0.00  0.00    +0.000 A 
ATOM     22  C   UNL     1      -1.728  12.173  19.759  0.00  0.00    +0.000 A 
ATOM     23  C   UNL     1      -1.174  13.006  20.725  0.00  0.00    +0.000 A 
ATOM     24  C   UNL     1       0.160  12.821  21.072  0.00  0.00    +0.000 A 
ATOM     25  N   UNL     1       0.959  11.877  20.523  0.00  0.00    +0.000 NA
ENDBRANCH  17  20
ENDBRANCH   1  18
TORSDOF 4
ENDMDL
