MODEL 1
REMARK VINA RESULT:      -7.8      0.000      0.000
REMARK  Name = 
REMARK  3 active torsions:
REMARK  status: ('A' for Active; 'I' for Inactive)
REMARK    1  A    between atoms: C_1  and  C_2
REMARK    2  A    between atoms: N_8  and  C_9
REMARK    3  A    between atoms: C_9  and  C_10
REMARK                            x       y       z     vdW  Elec       q    Type
REMARK                         _______ _______ _______ _____ _____    ______ ____
ROOT
ATOM      1  C   UNL     1       7.011   3.985  12.379  0.00  0.00    +0.000 C 
ATOM      2  C   UNL     1       6.827   4.671  13.706  0.00  0.00    +0.000 C 
ATOM      3  O   UNL     1       7.679   5.433  14.151  0.00  0.00    +0.000 OA
ATOM      4  N   UNL     1       5.634   4.339  14.318  0.00  0.00    +0.000 N 
ATOM      5  C   UNL     1       5.320   4.833  15.562  0.00  0.00    +0.000 A 
ATOM      6  C   UNL     1       5.403   6.166  16.017  0.00  0.00    +0.000 A 
ATOM      7  C   UNL     1       5.038   6.112  17.342  0.00  0.00    +0.000 A 
ATOM      8  N   UNL     1       4.831   4.789  17.613  0.00  0.00    +0.000 N 
ATOM      9  N   UNL     1       4.854   4.013  16.507  0.00  0.00    +0.000 NA
ATOM     10  H   UNL     1       5.253   3.419  14.146  0.00  0.00    +0.000 HD
ENDROOT
BRANCH   8  11
ATOM     11  C   UNL     1       4.811   4.182  18.938  0.00  0.00    +0.000 C 
BRANCH  11  12
ATOM     12  C   UNL     1       3.424   3.849  19.402  0.00  0.00    +0.000 A 
ATOM     13  C   UNL     1       2.660   4.844  20.019  0.00  0.00    +0.000 A 
ATOM     14  F   UNL     1       3.170   6.076  20.170  0.00  0.00    +0.000 F 
ATOM     15  C   UNL     1       1.383   4.592  20.516  0.00  0.00    +0.000 A 
ATOM     16  C   UNL     1       0.832   3.321  20.390  0.00  0.00    +0.000 A 
ATOM     17  C   UNL     1       1.575   2.309  19.765  0.00  0.00    +0.000 A 
ATOM     18  C   UNL     1       2.856   2.573  19.270  0.00  0.00    +0.000 A 
ATOM     19 CL   UNL     1       3.699   1.259  18.532  0.00  0.00    +0.000 Cl
ENDBRANCH  11  12
ENDBRANCH   8  11
TORSDOF 2
ENDMDL
MODEL 2
REMARK VINA RESULT:      -7.7      1.782      2.085
REMARK  Name = 
REMARK  3 active torsions:
REMARK  status: ('A' for Active; 'I' for Inactive)
REMARK    1  A    between atoms: C_1  and  C_2
REMARK    2  A    between atoms: N_8  and  C_9
REMARK    3  A    between atoms: C_9  and  C_10
REMARK                            x       y       z     vdW  Elec       q    Type
REMARK                         _______ _______ _______ _____ _____    ______ ____
ROOT
ATOM      1  C   UNL     1       6.656   3.675  12.742  0.00  0.00    +0.000 C 
ATOM      2  C   UNL     1       6.561   4.561  13.955  0.00  0.00    +0.000 C 
ATOM      3  O   UNL     1       7.460   5.346  14.241  0.00  0.00    +0.000 OA
ATOM      4  N   UNL     1       5.390   4.374  14.662  0.00  0.00    +0.000 N 
ATOM      5  C   UNL     1       5.154   5.063  15.828  0.00  0.00    +0.000 A 
ATOM      6  C   UNL     1       5.303   6.445  16.070  0.00  0.00    +0.000 A 
ATOM      7  C   UNL     1       5.002   6.608  17.401  0.00  0.00    +0.000 A 
ATOM      8  N   UNL     1       4.764   5.350  17.881  0.00  0.00    +0.000 N 
ATOM      9  N   UNL     1       4.706   4.416  16.906  0.00  0.00    +0.000 NA
ATOM     10  H   UNL     1       4.969   3.455  14.649  0.00  0.00    +0.000 HD
ENDROOT
BRANCH   8  11
ATOM     11  C   UNL     1       4.788   4.953  19.282  0.00  0.00    +0.000 C 
BRANCH  11  12
ATOM     12  C   UNL     1       3.475   4.400  19.750  0.00  0.00    +0.000 A 
ATOM     13  C   UNL     1       3.335   3.017  19.895  0.00  0.00    +0.000 A 
ATOM     14  F   UNL     1       4.377   2.213  19.631  0.00  0.00    +0.000 F 
ATOM     15  C   UNL     1       2.131   2.432  20.279  0.00  0.00    +0.000 A 
ATOM     16  C   UNL     1       1.028   3.237  20.544  0.00  0.00    +0.000 A 
ATOM     17  C   UNL     1       1.146   4.628  20.417  0.00  0.00    +0.000 A 
ATOM     18  C   UNL     1       2.359   5.204  20.030  0.00  0.00    +0.000 A 
ATOM     19 CL   UNL     1       2.401   6.924  19.884  0.00  0.00    +0.000 Cl
ENDBRANCH  11  12
ENDBRANCH   8  11
TORSDOF 2
ENDMDL
MODEL 3
REMARK VINA RESULT:      -7.2      2.794      3.679
REMARK  Name = 
REMARK  3 active torsions:
REMARK  status: ('A' for Active; 'I' for Inactive)
REMARK    1  A    between atoms: C_1  and  C_2
REMARK    2  A    between atoms: N_8  and  C_9
REMARK    3  A    between atoms: C_9  and  C_10
REMARK                            x       y       z     vdW  Elec       q    Type
REMARK                         _______ _______ _______ _____ _____    ______ ____
ROOT
ATOM      1  C   UNL     1       9.012   9.652  18.704  0.00  0.00    +0.000 C 
ATOM      2  C   UNL     1       8.124   8.554  18.183  0.00  0.00    +0.000 C 
ATOM      3  O   UNL     1       7.292   8.771  17.308  0.00  0.00    +0.000 OA
ATOM      4  N   UNL     1       8.360   7.340  18.797  0.00  0.00    +0.000 N 
ATOM      5  C   UNL     1       7.606   6.234  18.482  0.00  0.00    +0.000 A 
ATOM      6  C   UNL     1       7.274   5.740  17.203  0.00  0.00    +0.000 A 
ATOM      7  C   UNL     1       6.457   4.660  17.440  0.00  0.00    +0.000 A 
ATOM      8  N   UNL     1       6.296   4.612  18.797  0.00  0.00    +0.000 N 
ATOM      9  N   UNL     1       7.105   5.470  19.455  0.00  0.00    +0.000 NA
ATOM     10  H   UNL     1       8.678   7.347  19.756  0.00  0.00    +0.000 HD
ENDROOT
BRANCH   8  11
ATOM     11  C   UNL     1       5.233   3.909  19.505  0.00  0.00    +0.000 C 
BRANCH  11  12
ATOM     12  C   UNL     1       3.916   3.980  18.791  0.00  0.00    +0.000 A 
ATOM     13  C   UNL     1       3.322   5.229  18.589  0.00  0.00    +0.000 A 
ATOM     14  F   UNL     1       3.943   6.338  19.020  0.00  0.00    +0.000 F 
ATOM     15  C   UNL     1       2.078   5.365  17.976  0.00  0.00    +0.000 A 
ATOM     16  C   UNL     1       1.401   4.234  17.534  0.00  0.00    +0.000 A 
ATOM     17  C   UNL     1       1.981   2.971  17.715  0.00  0.00    +0.000 A 
ATOM     18  C   UNL     1       3.230   2.846  18.332  0.00  0.00    +0.000 A 
ATOM     19 CL   UNL     1       3.854   1.248  18.526  0.00  0.00    +0.000 Cl
ENDBRANCH  11  12
ENDBRANCH   8  11
TORSDOF 2
ENDMDL
MODEL 4
REMARK VINA RESULT:      -7.1      2.476      3.449
REMARK  Name = 
REMARK  3 active torsions:
REMARK  status: ('A' for Active; 'I' for Inactive)
REMARK    1  A    between atoms: C_1  and  C_2
REMARK    2  A    between atoms: N_8  and  C_9
REMARK    3  A    between atoms: C_9  and  C_10
REMARK                            x       y       z     vdW  Elec       q    Type
REMARK                         _______ _______ _______ _____ _____    ______ ____
ROOT
ATOM      1  C   UNL     1       8.432   7.740  18.764  0.00  0.00    +0.000 C 
ATOM      2  C   UNL     1       7.538   7.043  17.775  0.00  0.00    +0.000 C 
ATOM      3  O   UNL     1       7.191   7.592  16.733  0.00  0.00    +0.000 OA
ATOM      4  N   UNL     1       7.178   5.773  18.181  0.00  0.00    +0.000 N 
ATOM      5  C   UNL     1       6.323   5.008  17.425  0.00  0.00    +0.000 A 
ATOM      6  C   UNL     1       6.373   4.755  16.038  0.00  0.00    +0.000 A 
ATOM      7  C   UNL     1       5.261   3.990  15.775  0.00  0.00    +0.000 A 
ATOM      8  N   UNL     1       4.595   3.888  16.965  0.00  0.00    +0.000 N 
ATOM      9  N   UNL     1       5.302   4.375  18.009  0.00  0.00    +0.000 NA
ATOM     10  H   UNL     1       7.101   5.597  19.174  0.00  0.00    +0.000 HD
ENDROOT
BRANCH   8  11
ATOM     11  C   UNL     1       3.195   3.521  17.130  0.00  0.00    +0.000 C 
BRANCH  11  12
ATOM     12  C   UNL     1       2.722   3.664  18.546  0.00  0.00    +0.000 A 
ATOM     13  C   UNL     1       2.636   2.524  19.350  0.00  0.00    +0.000 A 
ATOM     14  F   UNL     1       2.991   1.330  18.850  0.00  0.00    +0.000 F 
ATOM     15  C   UNL     1       2.161   2.576  20.658  0.00  0.00    +0.000 A 
ATOM     16  C   UNL     1       1.769   3.795  21.201  0.00  0.00    +0.000 A 
ATOM     17  C   UNL     1       1.856   4.955  20.418  0.00  0.00    +0.000 A 
ATOM     18  C   UNL     1       2.334   4.890  19.106  0.00  0.00    +0.000 A 
ATOM     19 CL   UNL     1       2.388   6.369  18.216  0.00  0.00    +0.000 Cl
ENDBRANCH  11  12
ENDBRANCH   8  11
TORSDOF 2
ENDMDL
MODEL 5
REMARK VINA RESULT:      -7.0      1.599      1.866
REMARK  Name = 
REMARK  3 active torsions:
REMARK  status: ('A' for Active; 'I' for Inactive)
REMARK    1  A    between atoms: C_1  and  C_2
REMARK    2  A    between atoms: N_8  and  C_9
REMARK    3  A    between atoms: C_9  and  C_10
REMARK                            x       y       z     vdW  Elec       q    Type
REMARK                         _______ _______ _______ _____ _____    ______ ____
ROOT
ATOM      1  C   UNL     1       7.471   5.111  13.703  0.00  0.00    +0.000 C 
ATOM      2  C   UNL     1       6.862   4.870  15.058  0.00  0.00    +0.000 C 
ATOM      3  O   UNL     1       6.941   3.774  15.605  0.00  0.00    +0.000 OA
ATOM      4  N   UNL     1       6.234   5.989  15.569  0.00  0.00    +0.000 N 
ATOM      5  C   UNL     1       5.578   5.939  16.776  0.00  0.00    +0.000 A 
ATOM      6  C   UNL     1       6.040   5.406  17.998  0.00  0.00    +0.000 A 
ATOM      7  C   UNL     1       4.985   5.547  18.868  0.00  0.00    +0.000 A 
ATOM      8  N   UNL     1       3.965   6.075  18.127  0.00  0.00    +0.000 N 
ATOM      9  N   UNL     1       4.353   6.457  16.891  0.00  0.00    +0.000 NA
ATOM     10  H   UNL     1       5.820   6.640  14.916  0.00  0.00    +0.000 HD
ENDROOT
BRANCH   8  11
ATOM     11  C   UNL     1       2.551   6.047  18.480  0.00  0.00    +0.000 C 
BRANCH  11  12
ATOM     12  C   UNL     1       2.153   4.782  19.180  0.00  0.00    +0.000 A 
ATOM     13  C   UNL     1       1.783   4.840  20.526  0.00  0.00    +0.000 A 
ATOM     14  F   UNL     1       1.772   6.022  21.162  0.00  0.00    +0.000 F 
ATOM     15  C   UNL     1       1.448   3.699  21.251  0.00  0.00    +0.000 A 
ATOM     16  C   UNL     1       1.465   2.456  20.625  0.00  0.00    +0.000 A 
ATOM     17  C   UNL     1       1.823   2.373  19.272  0.00  0.00    +0.000 A 
ATOM     18  C   UNL     1       2.158   3.526  18.556  0.00  0.00    +0.000 A 
ATOM     19 CL   UNL     1       2.602   3.319  16.899  0.00  0.00    +0.000 Cl
ENDBRANCH  11  12
ENDBRANCH   8  11
TORSDOF 2
ENDMDL
MODEL 6
REMARK VINA RESULT:      -7.0      1.980      2.968
REMARK  Name = 
REMARK  3 active torsions:
REMARK  status: ('A' for Active; 'I' for Inactive)
REMARK    1  A    between atoms: C_1  and  C_2
REMARK    2  A    between atoms: N_8  and  C_9
REMARK    3  A    between atoms: C_9  and  C_10
REMARK                            x       y       z     vdW  Elec       q    Type
REMARK                         _______ _______ _______ _____ _____    ______ ____
ROOT
ATOM      1  C   UNL     1       8.505   8.326  18.785  0.00  0.00    +0.000 C 
ATOM      2  C   UNL     1       7.794   7.379  17.855  0.00  0.00    +0.000 C 
ATOM      3  O   UNL     1       7.764   7.578  16.645  0.00  0.00    +0.000 OA
ATOM      4  N   UNL     1       7.210   6.317  18.518  0.00  0.00    +0.000 N 
ATOM      5  C   UNL     1       6.475   5.379  17.834  0.00  0.00    +0.000 A 
ATOM      6  C   UNL     1       6.819   4.696  16.648  0.00  0.00    +0.000 A 
ATOM      7  C   UNL     1       5.721   3.924  16.351  0.00  0.00    +0.000 A 
ATOM      8  N   UNL     1       4.789   4.228  17.304  0.00  0.00    +0.000 N 
ATOM      9  N   UNL     1       5.282   4.998  18.298  0.00  0.00    +0.000 NA
ATOM     10  H   UNL     1       6.884   6.469  19.463  0.00  0.00    +0.000 HD
ENDROOT
BRANCH   8  11
ATOM     11  C   UNL     1       3.356   3.978  17.207  0.00  0.00    +0.000 C 
BRANCH  11  12
ATOM     12  C   UNL     1       2.716   3.751  18.544  0.00  0.00    +0.000 A 
ATOM     13  C   UNL     1       2.033   4.806  19.156  0.00  0.00    +0.000 A 
ATOM     14  F   UNL     1       1.947   5.991  18.533  0.00  0.00    +0.000 F 
ATOM     15  C   UNL     1       1.456   4.679  20.417  0.00  0.00    +0.000 A 
ATOM     16  C   UNL     1       1.542   3.468  21.096  0.00  0.00    +0.000 A 
ATOM     17  C   UNL     1       2.212   2.391  20.498  0.00  0.00    +0.000 A 
ATOM     18  C   UNL     1       2.788   2.530  19.232  0.00  0.00    +0.000 A 
ATOM     19 CL   UNL     1       3.608   1.154  18.587  0.00  0.00    +0.000 Cl
ENDBRANCH  11  12
ENDBRANCH   8  11
TORSDOF 2
ENDMDL
MODEL 7
REMARK VINA RESULT:      -6.9      2.228      2.571
REMARK  Name = 
REMARK  3 active torsions:
REMARK  status: ('A' for Active; 'I' for Inactive)
REMARK    1  A    between atoms: C_1  and  C_2
REMARK    2  A    between atoms: N_8  and  C_9
REMARK    3  A    between atoms: C_9  and  C_10
REMARK                            x       y       z     vdW  Elec       q    Type
REMARK                         _______ _______ _______ _____ _____    ______ ____
ROOT
ATOM      1  C   UNL     1       7.694   5.305  13.116  0.00  0.00    +0.000 C 
ATOM      2  C   UNL     1       6.915   4.824  14.311  0.00  0.00    +0.000 C 
ATOM      3  O   UNL     1       6.649   3.636  14.461  0.00  0.00    +0.000 OA
ATOM      4  N   UNL     1       6.557   5.850  15.164  0.00  0.00    +0.000 N 
ATOM      5  C   UNL     1       5.798   5.603  16.282  0.00  0.00    +0.000 A 
ATOM      6  C   UNL     1       5.982   4.601  17.258  0.00  0.00    +0.000 A 
ATOM      7  C   UNL     1       4.922   4.745  18.121  0.00  0.00    +0.000 A 
ATOM      8  N   UNL     1       4.154   5.746  17.596  0.00  0.00    +0.000 N 
ATOM      9  N   UNL     1       4.747   6.379  16.560  0.00  0.00    +0.000 NA
ATOM     10  H   UNL     1       6.394   6.764  14.764  0.00  0.00    +0.000 HD
ENDROOT
BRANCH   8  11
ATOM     11  C   UNL     1       2.755   6.005  17.914  0.00  0.00    +0.000 C 
BRANCH  11  12
ATOM     12  C   UNL     1       2.105   4.863  18.638  0.00  0.00    +0.000 A 
ATOM     13  C   UNL     1       1.903   3.658  17.958  0.00  0.00    +0.000 A 
ATOM     14  F   UNL     1       2.306   3.538  16.684  0.00  0.00    +0.000 F 
ATOM     15  C   UNL     1       1.264   2.573  18.553  0.00  0.00    +0.000 A 
ATOM     16  C   UNL     1       0.819   2.671  19.868  0.00  0.00    +0.000 A 
ATOM     17  C   UNL     1       1.020   3.866  20.574  0.00  0.00    +0.000 A 
ATOM     18  C   UNL     1       1.662   4.949  19.966  0.00  0.00    +0.000 A 
ATOM     19 CL   UNL     1       1.847   6.382  20.911  0.00  0.00    +0.000 Cl
ENDBRANCH  11  12
ENDBRANCH   8  11
TORSDOF 2
ENDMDL
MODEL 8
REMARK VINA RESULT:      -6.9      3.214      4.093
REMARK  Name = 
REMARK  3 active torsions:
REMARK  status: ('A' for Active; 'I' for Inactive)
REMARK    1  A    between atoms: C_1  and  C_2
REMARK    2  A    between atoms: N_8  and  C_9
REMARK    3  A    between atoms: C_9  and  C_10
REMARK                            x       y       z     vdW  Elec       q    Type
REMARK                         _______ _______ _______ _____ _____    ______ ____
ROOT
ATOM      1  C   UNL     1       8.852   9.502  18.420  0.00  0.00    +0.000 C 
ATOM      2  C   UNL     1       8.004   8.332  17.998  0.00  0.00    +0.000 C 
ATOM      3  O   UNL     1       7.219   8.422  17.060  0.00  0.00    +0.000 OA
ATOM      4  N   UNL     1       8.219   7.210  18.773  0.00  0.00    +0.000 N 
ATOM      5  C   UNL     1       7.495   6.061  18.564  0.00  0.00    +0.000 A 
ATOM      6  C   UNL     1       7.237   5.402  17.343  0.00  0.00    +0.000 A 
ATOM      7  C   UNL     1       6.419   4.348  17.674  0.00  0.00    +0.000 A 
ATOM      8  N   UNL     1       6.186   4.469  19.015  0.00  0.00    +0.000 N 
ATOM      9  N   UNL     1       6.950   5.418  19.600  0.00  0.00    +0.000 NA
ATOM     10  H   UNL     1       8.485   7.344  19.739  0.00  0.00    +0.000 HD
ENDROOT
BRANCH   8  11
ATOM     11  C   UNL     1       5.094   3.845  19.751  0.00  0.00    +0.000 C 
BRANCH  11  12
ATOM     12  C   UNL     1       3.806   3.838  18.982  0.00  0.00    +0.000 A 
ATOM     13  C   UNL     1       3.322   2.626  18.482  0.00  0.00    +0.000 A 
ATOM     14  F   UNL     1       4.004   1.493  18.712  0.00  0.00    +0.000 F 
ATOM     15  C   UNL     1       2.159   2.553  17.719  0.00  0.00    +0.000 A 
ATOM     16  C   UNL     1       1.438   3.711  17.449  0.00  0.00    +0.000 A 
ATOM     17  C   UNL     1       1.898   4.938  17.948  0.00  0.00    +0.000 A 
ATOM     18  C   UNL     1       3.067   5.000  18.713  0.00  0.00    +0.000 A 
ATOM     19 CL   UNL     1       3.561   6.558  19.268  0.00  0.00    +0.000 Cl
ENDBRANCH  11  12
ENDBRANCH   8  11
TORSDOF 2
ENDMDL
MODEL 9
REMARK VINA RESULT:      -6.7      1.743      1.918
REMARK  Name = 
REMARK  3 active torsions:
REMARK  status: ('A' for Active; 'I' for Inactive)
REMARK    1  A    between atoms: C_1  and  C_2
REMARK    2  A    between atoms: N_8  and  C_9
REMARK    3  A    between atoms: C_9  and  C_10
REMARK                            x       y       z     vdW  Elec       q    Type
REMARK                         _______ _______ _______ _____ _____    ______ ____
ROOT
ATOM      1  C   UNL     1       7.418   5.150  12.705  0.00  0.00    +0.000 C 
ATOM      2  C   UNL     1       7.078   5.085  14.170  0.00  0.00    +0.000 C 
ATOM      3  O   UNL     1       7.934   5.267  15.030  0.00  0.00    +0.000 OA
ATOM      4  N   UNL     1       5.745   4.804  14.397  0.00  0.00    +0.000 N 
ATOM      5  C   UNL     1       5.265   4.657  15.677  0.00  0.00    +0.000 A 
ATOM      6  C   UNL     1       5.475   5.499  16.789  0.00  0.00    +0.000 A 
ATOM      7  C   UNL     1       4.837   4.874  17.834  0.00  0.00    +0.000 A 
ATOM      8  N   UNL     1       4.356   3.701  17.323  0.00  0.00    +0.000 N 
ATOM      9  N   UNL     1       4.479   3.621  15.979  0.00  0.00    +0.000 NA
ATOM     10  H   UNL     1       5.258   4.233  13.720  0.00  0.00    +0.000 HD
ENDROOT
BRANCH   8  11
ATOM     11  C   UNL     1       3.957   2.532  18.097  0.00  0.00    +0.000 C 
BRANCH  11  12
ATOM     12  C   UNL     1       3.029   2.875  19.225  0.00  0.00    +0.000 A 
ATOM     13  C   UNL     1       3.384   2.513  20.527  0.00  0.00    +0.000 A 
ATOM     14  F   UNL     1       4.549   1.884  20.748  0.00  0.00    +0.000 F 
ATOM     15  C   UNL     1       2.549   2.757  21.615  0.00  0.00    +0.000 A 
ATOM     16  C   UNL     1       1.328   3.393  21.418  0.00  0.00    +0.000 A 
ATOM     17  C   UNL     1       0.954   3.775  20.122  0.00  0.00    +0.000 A 
ATOM     18  C   UNL     1       1.800   3.525  19.037  0.00  0.00    +0.000 A 
ATOM     19 CL   UNL     1       1.245   4.018  17.478  0.00  0.00    +0.000 Cl
ENDBRANCH  11  12
ENDBRANCH   8  11
TORSDOF 2
ENDMDL
