MODEL 1
REMARK VINA RESULT:      -7.5      0.000      0.000
REMARK  Name = 
REMARK  13 active torsions:
REMARK  status: ('A' for Active; 'I' for Inactive)
REMARK    1  A    between atoms: C_1  and  C_2
REMARK    2  A    between atoms: C_8  and  N_9
REMARK    3  A    between atoms: C_10  and  C_12
REMARK    4  A    between atoms: C_12  and  S_13
REMARK    5  A    between atoms: S_13  and  C_14
REMARK    6  A    between atoms: C_17  and  C_18
REMARK    7  A    between atoms: C_18  and  C_19
REMARK    8  A    between atoms: C_19  and  N_20
REMARK    9  A    between atoms: C_21  and  O_23
REMARK   10  A    between atoms: O_23  and  C_24
REMARK   11  A    between atoms: C_24  and  C_25
REMARK   12  A    between atoms: C_24  and  C_26
REMARK   13  A    between atoms: C_24  and  C_27
REMARK                            x       y       z     vdW  Elec       q    Type
REMARK                         _______ _______ _______ _____ _____    ______ ____
ROOT
ATOM      1  C   UNL     1       5.043   3.817  19.176  0.00  0.00    +0.000 A 
ATOM      2  N   UNL     1       5.694   4.640  19.979  0.00  0.00    +0.000 NA
ATOM      3  N   UNL     1       6.302   5.586  19.184  0.00  0.00    +0.000 NA
ATOM      4  C   UNL     1       5.988   5.286  17.943  0.00  0.00    +0.000 A 
ATOM      5  O   UNL     1       5.195   4.164  17.854  0.00  0.00    +0.000 OA
ENDROOT
BRANCH   1   6
ATOM      6  S   UNL     1       4.042   2.531  19.788  0.00  0.00    +0.000 S 
BRANCH   6   7
ATOM      7  C   UNL     1       2.740   3.428  20.658  0.00  0.00    +0.000 C 
BRANCH   7   9
ATOM      8  N   UNL     1       2.635   5.874  20.193  0.00  0.00    +0.000 N 
ATOM      9  C   UNL     1       2.180   4.605  19.850  0.00  0.00    +0.000 C 
ATOM     10  O   UNL     1       1.306   4.371  19.015  0.00  0.00    +0.000 OA
ATOM     11  H   UNL     1       3.208   5.937  21.026  0.00  0.00    +0.000 HD
BRANCH   8  19
ATOM     12  C   UNL     1       0.962   7.887  21.506  0.00  0.00    +0.000 C 
ATOM     13  C   UNL     1       1.533   8.091  20.124  0.00  0.00    +0.000 A 
ATOM     14  C   UNL     1       1.265   9.280  19.402  0.00  0.00    +0.000 A 
ATOM     15 CL   UNL     1       0.267  10.554  20.024  0.00  0.00    +0.000 Cl
ATOM     16  C   UNL     1       1.793   9.489  18.129  0.00  0.00    +0.000 A 
ATOM     17  C   UNL     1       2.605   8.528  17.549  0.00  0.00    +0.000 A 
ATOM     18  C   UNL     1       2.875   7.346  18.239  0.00  0.00    +0.000 A 
ATOM     19  C   UNL     1       2.341   7.094  19.513  0.00  0.00    +0.000 A 
ENDBRANCH   8  19
ENDBRANCH   7   9
ENDBRANCH   6   7
ENDBRANCH   1   6
BRANCH   4  20
ATOM     20  C   UNL     1       6.321   6.017  16.692  0.00  0.00    +0.000 C 
BRANCH  20  21
ATOM     21  C   UNL     1       5.267   5.806  15.598  0.00  0.00    +0.000 C 
BRANCH  21  22
ATOM     22  N   UNL     1       5.414   4.533  14.913  0.00  0.00    +0.000 N 
ATOM     23  C   UNL     1       6.425   4.335  14.007  0.00  0.00    +0.000 C 
ATOM     24  O   UNL     1       7.275   5.176  13.775  0.00  0.00    +0.000 OA
ATOM     25  H   UNL     1       4.746   3.784  15.030  0.00  0.00    +0.000 HD
BRANCH  23  26
ATOM     26  O   UNL     1       6.325   3.110  13.434  0.00  0.00    +0.000 OA
BRANCH  26  27
ATOM     27  C   UNL     1       6.023   3.034  12.009  0.00  0.00    +0.000 C 
ATOM     28  C   UNL     1       4.601   3.529  11.710  0.00  0.00    +0.000 C 
ATOM     29  C   UNL     1       7.009   3.978  11.299  0.00  0.00    +0.000 C 
ATOM     30  C   UNL     1       6.269   1.615  11.475  0.00  0.00    +0.000 C 
ENDBRANCH  26  27
ENDBRANCH  23  26
ENDBRANCH  21  22
ENDBRANCH  20  21
ENDBRANCH   4  20
TORSDOF 9
ENDMDL
MODEL 2
REMARK VINA RESULT:      -7.5      1.253      1.588
REMARK  Name = 
REMARK  13 active torsions:
REMARK  status: ('A' for Active; 'I' for Inactive)
REMARK    1  A    between atoms: C_1  and  C_2
REMARK    2  A    between atoms: C_8  and  N_9
REMARK    3  A    between atoms: C_10  and  C_12
REMARK    4  A    between atoms: C_12  and  S_13
REMARK    5  A    between atoms: S_13  and  C_14
REMARK    6  A    between atoms: C_17  and  C_18
REMARK    7  A    between atoms: C_18  and  C_19
REMARK    8  A    between atoms: C_19  and  N_20
REMARK    9  A    between atoms: C_21  and  O_23
REMARK   10  A    between atoms: O_23  and  C_24
REMARK   11  A    between atoms: C_24  and  C_25
REMARK   12  A    between atoms: C_24  and  C_26
REMARK   13  A    between atoms: C_24  and  C_27
REMARK                            x       y       z     vdW  Elec       q    Type
REMARK                         _______ _______ _______ _____ _____    ______ ____
ROOT
ATOM      1  C   UNL     1       3.957   3.095  19.450  0.00  0.00    +0.000 A 
ATOM      2  N   UNL     1       3.664   2.928  18.172  0.00  0.00    +0.000 NA
ATOM      3  N   UNL     1       4.637   3.576  17.446  0.00  0.00    +0.000 NA
ATOM      4  C   UNL     1       5.467   4.103  18.320  0.00  0.00    +0.000 A 
ATOM      5  O   UNL     1       5.094   3.848  19.621  0.00  0.00    +0.000 OA
ENDROOT
BRANCH   1   6
ATOM      6  S   UNL     1       3.031   2.337  20.714  0.00  0.00    +0.000 S 
BRANCH   6   7
ATOM      7  C   UNL     1       2.383   3.752  21.627  0.00  0.00    +0.000 C 
BRANCH   7   9
ATOM      8  N   UNL     1       2.562   6.009  20.587  0.00  0.00    +0.000 N 
ATOM      9  C   UNL     1       1.812   4.844  20.714  0.00  0.00    +0.000 C 
ATOM     10  O   UNL     1       0.698   4.665  20.223  0.00  0.00    +0.000 OA
ATOM     11  H   UNL     1       3.365   6.096  21.198  0.00  0.00    +0.000 HD
BRANCH   8  19
ATOM     12  C   UNL     1       1.108   8.336  21.608  0.00  0.00    +0.000 C 
ATOM     13  C   UNL     1       1.585   8.248  20.179  0.00  0.00    +0.000 A 
ATOM     14  C   UNL     1       1.331   9.303  19.269  0.00  0.00    +0.000 A 
ATOM     15 CL   UNL     1       0.456  10.734  19.706  0.00  0.00    +0.000 Cl
ATOM     16  C   UNL     1       1.775   9.242  17.948  0.00  0.00    +0.000 A 
ATOM     17  C   UNL     1       2.486   8.138  17.506  0.00  0.00    +0.000 A 
ATOM     18  C   UNL     1       2.739   7.084  18.384  0.00  0.00    +0.000 A 
ATOM     19  C   UNL     1       2.288   7.104  19.713  0.00  0.00    +0.000 A 
ENDBRANCH   8  19
ENDBRANCH   7   9
ENDBRANCH   6   7
ENDBRANCH   1   6
BRANCH   4  20
ATOM     20  C   UNL     1       6.730   4.849  18.080  0.00  0.00    +0.000 C 
BRANCH  20  21
ATOM     21  C   UNL     1       6.817   5.398  16.651  0.00  0.00    +0.000 C 
BRANCH  21  22
ATOM     22  N   UNL     1       6.917   4.350  15.649  0.00  0.00    +0.000 N 
ATOM     23  C   UNL     1       6.116   4.364  14.536  0.00  0.00    +0.000 C 
ATOM     24  O   UNL     1       5.334   5.268  14.297  0.00  0.00    +0.000 OA
ATOM     25  H   UNL     1       7.524   3.552  15.771  0.00  0.00    +0.000 HD
BRANCH  23  26
ATOM     26  O   UNL     1       6.321   3.256  13.781  0.00  0.00    +0.000 OA
BRANCH  26  27
ATOM     27  C   UNL     1       6.321   3.396  12.330  0.00  0.00    +0.000 C 
ATOM     28  C   UNL     1       6.771   2.101  11.640  0.00  0.00    +0.000 C 
ATOM     29  C   UNL     1       4.864   3.669  11.914  0.00  0.00    +0.000 C 
ATOM     30  C   UNL     1       7.163   4.607  11.899  0.00  0.00    +0.000 C 
ENDBRANCH  26  27
ENDBRANCH  23  26
ENDBRANCH  21  22
ENDBRANCH  20  21
ENDBRANCH   4  20
TORSDOF 9
ENDMDL
MODEL 3
REMARK VINA RESULT:      -7.0      5.888      8.111
REMARK  Name = 
REMARK  13 active torsions:
REMARK  status: ('A' for Active; 'I' for Inactive)
REMARK    1  A    between atoms: C_1  and  C_2
REMARK    2  A    between atoms: C_8  and  N_9
REMARK    3  A    between atoms: C_10  and  C_12
REMARK    4  A    between atoms: C_12  and  S_13
REMARK    5  A    between atoms: S_13  and  C_14
REMARK    6  A    between atoms: C_17  and  C_18
REMARK    7  A    between atoms: C_18  and  C_19
REMARK    8  A    between atoms: C_19  and  N_20
REMARK    9  A    between atoms: C_21  and  O_23
REMARK   10  A    between atoms: O_23  and  C_24
REMARK   11  A    between atoms: C_24  and  C_25
REMARK   12  A    between atoms: C_24  and  C_26
REMARK   13  A    between atoms: C_24  and  C_27
REMARK                            x       y       z     vdW  Elec       q    Type
REMARK                         _______ _______ _______ _____ _____    ______ ____
ROOT
ATOM      1  C   UNL     1       7.387   7.253  17.433  0.00  0.00    +0.000 A 
ATOM      2  N   UNL     1       8.047   6.350  18.136  0.00  0.00    +0.000 NA
ATOM      3  N   UNL     1       7.598   5.113  17.731  0.00  0.00    +0.000 NA
ATOM      4  C   UNL     1       6.689   5.332  16.806  0.00  0.00    +0.000 A 
ATOM      5  O   UNL     1       6.491   6.674  16.567  0.00  0.00    +0.000 OA
ENDROOT
BRANCH   1   6
ATOM      6  S   UNL     1       7.735   8.954  17.560  0.00  0.00    +0.000 S 
BRANCH   6   7
ATOM      7  C   UNL     1       8.901   9.014  18.936  0.00  0.00    +0.000 C 
BRANCH   7   9
ATOM      8  N   UNL     1       9.957  11.147  18.198  0.00  0.00    +0.000 N 
ATOM      9  C   UNL     1       9.387  10.434  19.248  0.00  0.00    +0.000 C 
ATOM     10  O   UNL     1       9.327  10.824  20.414  0.00  0.00    +0.000 OA
ATOM     11  H   UNL     1      10.116  10.633  17.339  0.00  0.00    +0.000 HD
BRANCH   8  19
ATOM     12  C   UNL     1       8.019  13.257  17.592  0.00  0.00    +0.000 C 
ATOM     13  C   UNL     1       9.456  13.559  17.936  0.00  0.00    +0.000 A 
ATOM     14  C   UNL     1       9.924  14.895  17.968  0.00  0.00    +0.000 A 
ATOM     15 CL   UNL     1       8.913  16.255  17.602  0.00  0.00    +0.000 Cl
ATOM     16  C   UNL     1      11.247  15.193  18.295  0.00  0.00    +0.000 A 
ATOM     17  C   UNL     1      12.130  14.171  18.605  0.00  0.00    +0.000 A 
ATOM     18  C   UNL     1      11.692  12.847  18.571  0.00  0.00    +0.000 A 
ATOM     19  C   UNL     1      10.373  12.512  18.225  0.00  0.00    +0.000 A 
ENDBRANCH   8  19
ENDBRANCH   7   9
ENDBRANCH   6   7
ENDBRANCH   1   6
BRANCH   4  20
ATOM     20  C   UNL     1       5.935   4.349  15.984  0.00  0.00    +0.000 C 
BRANCH  20  21
ATOM     21  C   UNL     1       4.447   4.304  16.354  0.00  0.00    +0.000 C 
BRANCH  21  22
ATOM     22  N   UNL     1       4.226   4.190  17.786  0.00  0.00    +0.000 N 
ATOM     23  C   UNL     1       3.679   3.052  18.323  0.00  0.00    +0.000 C 
ATOM     24  O   UNL     1       3.410   2.071  17.654  0.00  0.00    +0.000 OA
ATOM     25  H   UNL     1       4.403   4.959  18.416  0.00  0.00    +0.000 HD
BRANCH  23  26
ATOM     26  O   UNL     1       3.490   3.193  19.659  0.00  0.00    +0.000 OA
BRANCH  26  27
ATOM     27  C   UNL     1       2.158   3.542  20.137  0.00  0.00    +0.000 C 
ATOM     28  C   UNL     1       1.066   2.832  19.326  0.00  0.00    +0.000 C 
ATOM     29  C   UNL     1       2.067   3.040  21.590  0.00  0.00    +0.000 C 
ATOM     30  C   UNL     1       1.968   5.066  20.159  0.00  0.00    +0.000 C 
ENDBRANCH  26  27
ENDBRANCH  23  26
ENDBRANCH  21  22
ENDBRANCH  20  21
ENDBRANCH   4  20
TORSDOF 9
ENDMDL
MODEL 4
REMARK VINA RESULT:      -7.0      6.307      8.494
REMARK  Name = 
REMARK  13 active torsions:
REMARK  status: ('A' for Active; 'I' for Inactive)
REMARK    1  A    between atoms: C_1  and  C_2
REMARK    2  A    between atoms: C_8  and  N_9
REMARK    3  A    between atoms: C_10  and  C_12
REMARK    4  A    between atoms: C_12  and  S_13
REMARK    5  A    between atoms: S_13  and  C_14
REMARK    6  A    between atoms: C_17  and  C_18
REMARK    7  A    between atoms: C_18  and  C_19
REMARK    8  A    between atoms: C_19  and  N_20
REMARK    9  A    between atoms: C_21  and  O_23
REMARK   10  A    between atoms: O_23  and  C_24
REMARK   11  A    between atoms: C_24  and  C_25
REMARK   12  A    between atoms: C_24  and  C_26
REMARK   13  A    between atoms: C_24  and  C_27
REMARK                            x       y       z     vdW  Elec       q    Type
REMARK                         _______ _______ _______ _____ _____    ______ ____
ROOT
ATOM      1  C   UNL     1       7.511   7.893  17.692  0.00  0.00    +0.000 A 
ATOM      2  N   UNL     1       7.964   6.926  18.470  0.00  0.00    +0.000 NA
ATOM      3  N   UNL     1       7.154   5.831  18.269  0.00  0.00    +0.000 NA
ATOM      4  C   UNL     1       6.253   6.192  17.382  0.00  0.00    +0.000 A 
ATOM      5  O   UNL     1       6.408   7.498  16.972  0.00  0.00    +0.000 OA
ENDROOT
BRANCH   1   6
ATOM      6  S   UNL     1       8.323   9.427  17.560  0.00  0.00    +0.000 S 
BRANCH   6   7
ATOM      7  C   UNL     1       9.011   9.649  19.213  0.00  0.00    +0.000 C 
BRANCH   7   9
ATOM      8  N   UNL     1       9.177  12.031  18.500  0.00  0.00    +0.000 N 
ATOM      9  C   UNL     1       9.440  11.094  19.495  0.00  0.00    +0.000 C 
ATOM     10  O   UNL     1      10.062  11.323  20.532  0.00  0.00    +0.000 OA
ATOM     11  H   UNL     1       8.832  11.668  17.619  0.00  0.00    +0.000 HD
BRANCH   8  19
ATOM     12  C   UNL     1      11.239  13.288  16.844  0.00  0.00    +0.000 C 
ATOM     13  C   UNL     1      10.375  14.080  17.793  0.00  0.00    +0.000 A 
ATOM     14  C   UNL     1      10.544  15.481  17.923  0.00  0.00    +0.000 A 
ATOM     15 CL   UNL     1      11.741  16.370  17.039  0.00  0.00    +0.000 Cl
ATOM     16  C   UNL     1       9.748  16.230  18.788  0.00  0.00    +0.000 A 
ATOM     17  C   UNL     1       8.761  15.607  19.536  0.00  0.00    +0.000 A 
ATOM     18  C   UNL     1       8.583  14.228  19.430  0.00  0.00    +0.000 A 
ATOM     19  C   UNL     1       9.383  13.441  18.585  0.00  0.00    +0.000 A 
ENDBRANCH   8  19
ENDBRANCH   7   9
ENDBRANCH   6   7
ENDBRANCH   1   6
BRANCH   4  20
ATOM     20  C   UNL     1       5.179   5.378  16.754  0.00  0.00    +0.000 C 
BRANCH  20  21
ATOM     21  C   UNL     1       5.194   3.924  17.241  0.00  0.00    +0.000 C 
BRANCH  21  22
ATOM     22  N   UNL     1       4.656   3.774  18.582  0.00  0.00    +0.000 N 
ATOM     23  C   UNL     1       3.877   2.693  18.910  0.00  0.00    +0.000 C 
ATOM     24  O   UNL     1       3.646   1.786  18.130  0.00  0.00    +0.000 OA
ATOM     25  H   UNL     1       4.782   4.484  19.290  0.00  0.00    +0.000 HD
BRANCH  23  26
ATOM     26  O   UNL     1       3.421   2.796  20.184  0.00  0.00    +0.000 OA
BRANCH  26  27
ATOM     27  C   UNL     1       2.101   3.374  20.403  0.00  0.00    +0.000 C 
ATOM     28  C   UNL     1       1.178   3.138  19.199  0.00  0.00    +0.000 C 
ATOM     29  C   UNL     1       1.494   2.640  21.612  0.00  0.00    +0.000 C 
ATOM     30  C   UNL     1       2.211   4.862  20.768  0.00  0.00    +0.000 C 
ENDBRANCH  26  27
ENDBRANCH  23  26
ENDBRANCH  21  22
ENDBRANCH  20  21
ENDBRANCH   4  20
TORSDOF 9
ENDMDL
MODEL 5
REMARK VINA RESULT:      -7.0      4.456      6.254
REMARK  Name = 
REMARK  13 active torsions:
REMARK  status: ('A' for Active; 'I' for Inactive)
REMARK    1  A    between atoms: C_1  and  C_2
REMARK    2  A    between atoms: C_8  and  N_9
REMARK    3  A    between atoms: C_10  and  C_12
REMARK    4  A    between atoms: C_12  and  S_13
REMARK    5  A    between atoms: S_13  and  C_14
REMARK    6  A    between atoms: C_17  and  C_18
REMARK    7  A    between atoms: C_18  and  C_19
REMARK    8  A    between atoms: C_19  and  N_20
REMARK    9  A    between atoms: C_21  and  O_23
REMARK   10  A    between atoms: O_23  and  C_24
REMARK   11  A    between atoms: C_24  and  C_25
REMARK   12  A    between atoms: C_24  and  C_26
REMARK   13  A    between atoms: C_24  and  C_27
REMARK                            x       y       z     vdW  Elec       q    Type
REMARK                         _______ _______ _______ _____ _____    ______ ____
ROOT
ATOM      1  C   UNL     1       5.997   5.314  16.556  0.00  0.00    +0.000 A 
ATOM      2  N   UNL     1       6.932   5.482  15.638  0.00  0.00    +0.000 NA
ATOM      3  N   UNL     1       7.823   6.409  16.131  0.00  0.00    +0.000 NA
ATOM      4  C   UNL     1       7.380   6.755  17.320  0.00  0.00    +0.000 A 
ATOM      5  O   UNL     1       6.213   6.106  17.659  0.00  0.00    +0.000 OA
ENDROOT
BRANCH   1   6
ATOM      6  S   UNL     1       4.728   4.137  16.375  0.00  0.00    +0.000 S 
BRANCH   6   7
ATOM      7  C   UNL     1       3.964   4.130  18.009  0.00  0.00    +0.000 C 
BRANCH   7   9
ATOM      8  N   UNL     1       3.290   6.443  18.647  0.00  0.00    +0.000 N 
ATOM      9  C   UNL     1       2.880   5.203  18.168  0.00  0.00    +0.000 C 
ATOM     10  O   UNL     1       1.711   4.883  17.950  0.00  0.00    +0.000 OA
ATOM     11  H   UNL     1       4.250   6.506  18.967  0.00  0.00    +0.000 HD
BRANCH   8  19
ATOM     12  C   UNL     1       1.671   6.834  21.056  0.00  0.00    +0.000 C 
ATOM     13  C   UNL     1       1.690   7.835  19.926  0.00  0.00    +0.000 A 
ATOM     14  C   UNL     1       0.903   9.010  19.993  0.00  0.00    +0.000 A 
ATOM     15 CL   UNL     1      -0.134   9.375  21.333  0.00  0.00    +0.000 Cl
ATOM     16  C   UNL     1       0.916   9.951  18.963  0.00  0.00    +0.000 A 
ATOM     17  C   UNL     1       1.717   9.748  17.850  0.00  0.00    +0.000 A 
ATOM     18  C   UNL     1       2.493   8.592  17.760  0.00  0.00    +0.000 A 
ATOM     19  C   UNL     1       2.486   7.615  18.769  0.00  0.00    +0.000 A 
ENDBRANCH   8  19
ENDBRANCH   7   9
ENDBRANCH   6   7
ENDBRANCH   1   6
BRANCH   4  20
ATOM     20  C   UNL     1       7.995   7.669  18.317  0.00  0.00    +0.000 C 
BRANCH  20  21
ATOM     21  C   UNL     1       7.736   9.145  17.990  0.00  0.00    +0.000 C 
BRANCH  21  22
ATOM     22  N   UNL     1       8.959   9.897  17.772  0.00  0.00    +0.000 N 
ATOM     23  C   UNL     1       9.526  10.625  18.788  0.00  0.00    +0.000 C 
ATOM     24  O   UNL     1       9.079  10.634  19.921  0.00  0.00    +0.000 OA
ATOM     25  H   UNL     1       9.391   9.962  16.862  0.00  0.00    +0.000 HD
BRANCH  23  26
ATOM     26  O   UNL     1      10.611  11.307  18.345  0.00  0.00    +0.000 OA
BRANCH  26  27
ATOM     27  C   UNL     1      10.488  12.744  18.134  0.00  0.00    +0.000 C 
ATOM     28  C   UNL     1      11.012  13.536  19.340  0.00  0.00    +0.000 C 
ATOM     29  C   UNL     1      11.375  13.089  16.924  0.00  0.00    +0.000 C 
ATOM     30  C   UNL     1       9.043  13.121  17.774  0.00  0.00    +0.000 C 
ENDBRANCH  26  27
ENDBRANCH  23  26
ENDBRANCH  21  22
ENDBRANCH  20  21
ENDBRANCH   4  20
TORSDOF 9
ENDMDL
MODEL 6
REMARK VINA RESULT:      -6.9      6.651      8.710
REMARK  Name = 
REMARK  13 active torsions:
REMARK  status: ('A' for Active; 'I' for Inactive)
REMARK    1  A    between atoms: C_1  and  C_2
REMARK    2  A    between atoms: C_8  and  N_9
REMARK    3  A    between atoms: C_10  and  C_12
REMARK    4  A    between atoms: C_12  and  S_13
REMARK    5  A    between atoms: S_13  and  C_14
REMARK    6  A    between atoms: C_17  and  C_18
REMARK    7  A    between atoms: C_18  and  C_19
REMARK    8  A    between atoms: C_19  and  N_20
REMARK    9  A    between atoms: C_21  and  O_23
REMARK   10  A    between atoms: O_23  and  C_24
REMARK   11  A    between atoms: C_24  and  C_25
REMARK   12  A    between atoms: C_24  and  C_26
REMARK   13  A    between atoms: C_24  and  C_27
REMARK                            x       y       z     vdW  Elec       q    Type
REMARK                         _______ _______ _______ _____ _____    ______ ____
ROOT
ATOM      1  C   UNL     1       8.435   8.652  18.467  0.00  0.00    +0.000 A 
ATOM      2  N   UNL     1       7.671   8.738  17.392  0.00  0.00    +0.000 NA
ATOM      3  N   UNL     1       7.237   7.464  17.100  0.00  0.00    +0.000 NA
ATOM      4  C   UNL     1       7.760   6.674  18.012  0.00  0.00    +0.000 A 
ATOM      5  O   UNL     1       8.546   7.357  18.914  0.00  0.00    +0.000 OA
ENDROOT
BRANCH   1   6
ATOM      6  S   UNL     1       9.103  10.062  19.238  0.00  0.00    +0.000 S 
BRANCH   6   7
ATOM      7  C   UNL     1       9.629  11.064  17.834  0.00  0.00    +0.000 C 
BRANCH   7   9
ATOM      8  N   UNL     1       9.477  13.448  18.544  0.00  0.00    +0.000 N 
ATOM      9  C   UNL     1       8.929  12.427  17.774  0.00  0.00    +0.000 C 
ATOM     10  O   UNL     1       7.885  12.515  17.126  0.00  0.00    +0.000 OA
ATOM     11  H   UNL     1      10.224  13.183  19.176  0.00  0.00    +0.000 HD
BRANCH   8  19
ATOM     12  C   UNL     1      11.126  15.463  17.203  0.00  0.00    +0.000 C 
ATOM     13  C   UNL     1       9.844  15.816  17.917  0.00  0.00    +0.000 A 
ATOM     14  C   UNL     1       9.396  17.158  17.971  0.00  0.00    +0.000 A 
ATOM     15 CL   UNL     1      10.272  18.473  17.256  0.00  0.00    +0.000 Cl
ATOM     16  C   UNL     1       8.209  17.501  18.617  0.00  0.00    +0.000 A 
ATOM     17  C   UNL     1       7.437  16.517  19.216  0.00  0.00    +0.000 A 
ATOM     18  C   UNL     1       7.865  15.190  19.182  0.00  0.00    +0.000 A 
ATOM     19  C   UNL     1       9.066  14.815  18.559  0.00  0.00    +0.000 A 
ENDBRANCH   8  19
ENDBRANCH   7   9
ENDBRANCH   6   7
ENDBRANCH   1   6
BRANCH   4  20
ATOM     20  C   UNL     1       7.562   5.214  18.210  0.00  0.00    +0.000 C 
BRANCH  20  21
ATOM     21  C   UNL     1       6.190   4.742  17.713  0.00  0.00    +0.000 C 
BRANCH  21  22
ATOM     22  N   UNL     1       5.486   3.931  18.692  0.00  0.00    +0.000 N 
ATOM     23  C   UNL     1       4.199   3.516  18.464  0.00  0.00    +0.000 C 
ATOM     24  O   UNL     1       3.606   3.746  17.424  0.00  0.00    +0.000 OA
ATOM     25  H   UNL     1       5.891   3.706  19.589  0.00  0.00    +0.000 HD
BRANCH  23  26
ATOM     26  O   UNL     1       3.712   2.843  19.536  0.00  0.00    +0.000 OA
BRANCH  26  27
ATOM     27  C   UNL     1       2.499   3.340  20.174  0.00  0.00    +0.000 C 
ATOM     28  C   UNL     1       2.332   2.765  21.588  0.00  0.00    +0.000 C 
ATOM     29  C   UNL     1       2.663   4.865  20.303  0.00  0.00    +0.000 C 
ATOM     30  C   UNL     1       1.271   3.076  19.290  0.00  0.00    +0.000 C 
ENDBRANCH  26  27
ENDBRANCH  23  26
ENDBRANCH  21  22
ENDBRANCH  20  21
ENDBRANCH   4  20
TORSDOF 9
ENDMDL
MODEL 7
REMARK VINA RESULT:      -6.9      5.951      8.375
REMARK  Name = 
REMARK  13 active torsions:
REMARK  status: ('A' for Active; 'I' for Inactive)
REMARK    1  A    between atoms: C_1  and  C_2
REMARK    2  A    between atoms: C_8  and  N_9
REMARK    3  A    between atoms: C_10  and  C_12
REMARK    4  A    between atoms: C_12  and  S_13
REMARK    5  A    between atoms: S_13  and  C_14
REMARK    6  A    between atoms: C_17  and  C_18
REMARK    7  A    between atoms: C_18  and  C_19
REMARK    8  A    between atoms: C_19  and  N_20
REMARK    9  A    between atoms: C_21  and  O_23
REMARK   10  A    between atoms: O_23  and  C_24
REMARK   11  A    between atoms: C_24  and  C_25
REMARK   12  A    between atoms: C_24  and  C_26
REMARK   13  A    between atoms: C_24  and  C_27
REMARK                            x       y       z     vdW  Elec       q    Type
REMARK                         _______ _______ _______ _____ _____    ______ ____
ROOT
ATOM      1  C   UNL     1       7.887   6.870  18.136  0.00  0.00    +0.000 A 
ATOM      2  N   UNL     1       7.302   7.529  17.152  0.00  0.00    +0.000 NA
ATOM      3  N   UNL     1       7.615   8.860  17.313  0.00  0.00    +0.000 NA
ATOM      4  C   UNL     1       8.372   8.938  18.385  0.00  0.00    +0.000 A 
ATOM      5  O   UNL     1       8.583   7.709  18.973  0.00  0.00    +0.000 OA
ENDROOT
BRANCH   1   6
ATOM      6  S   UNL     1       7.833   5.133  18.242  0.00  0.00    +0.000 S 
BRANCH   6   7
ATOM      7  C   UNL     1       7.107   4.666  16.657  0.00  0.00    +0.000 C 
BRANCH   7   9
ATOM      8  N   UNL     1       5.229   3.666  17.953  0.00  0.00    +0.000 N 
ATOM      9  C   UNL     1       5.629   4.274  16.768  0.00  0.00    +0.000 C 
ATOM     10  O   UNL     1       4.910   4.438  15.782  0.00  0.00    +0.000 OA
ATOM     11  H   UNL     1       5.966   3.419  18.604  0.00  0.00    +0.000 HD
BRANCH   8  19
ATOM     12  C   UNL     1       3.696   5.470  19.676  0.00  0.00    +0.000 C 
ATOM     13  C   UNL     1       3.124   4.175  19.156  0.00  0.00    +0.000 A 
ATOM     14  C   UNL     1       1.808   3.779  19.499  0.00  0.00    +0.000 A 
ATOM     15 CL   UNL     1       0.783   4.718  20.535  0.00  0.00    +0.000 Cl
ATOM     16  C   UNL     1       1.260   2.590  19.019  0.00  0.00    +0.000 A 
ATOM     17  C   UNL     1       2.004   1.773  18.181  0.00  0.00    +0.000 A 
ATOM     18  C   UNL     1       3.305   2.140  17.838  0.00  0.00    +0.000 A 
ATOM     19  C   UNL     1       3.894   3.319  18.322  0.00  0.00    +0.000 A 
ENDBRANCH   8  19
ENDBRANCH   7   9
ENDBRANCH   6   7
ENDBRANCH   1   6
BRANCH   4  20
ATOM     20  C   UNL     1       9.045  10.126  18.972  0.00  0.00    +0.000 C 
BRANCH  20  21
ATOM     21  C   UNL     1       9.885  10.886  17.939  0.00  0.00    +0.000 C 
BRANCH  21  22
ATOM     22  N   UNL     1      10.136  12.265  18.322  0.00  0.00    +0.000 N 
ATOM     23  C   UNL     1      11.126  12.576  19.219  0.00  0.00    +0.000 C 
ATOM     24  O   UNL     1      11.875  11.738  19.691  0.00  0.00    +0.000 OA
ATOM     25  H   UNL     1       9.555  13.024  17.996  0.00  0.00    +0.000 HD
BRANCH  23  26
ATOM     26  O   UNL     1      11.132  13.905  19.490  0.00  0.00    +0.000 OA
BRANCH  26  27
ATOM     27  C   UNL     1      10.150  14.425  20.434  0.00  0.00    +0.000 C 
ATOM     28  C   UNL     1       8.893  14.932  19.714  0.00  0.00    +0.000 C 
ATOM     29  C   UNL     1       9.734  13.244  21.330  0.00  0.00    +0.000 C 
ATOM     30  C   UNL     1      10.777  15.497  21.337  0.00  0.00    +0.000 C 
ENDBRANCH  26  27
ENDBRANCH  23  26
ENDBRANCH  21  22
ENDBRANCH  20  21
ENDBRANCH   4  20
TORSDOF 9
ENDMDL
MODEL 8
REMARK VINA RESULT:      -6.9      3.767      8.185
REMARK  Name = 
REMARK  13 active torsions:
REMARK  status: ('A' for Active; 'I' for Inactive)
REMARK    1  A    between atoms: C_1  and  C_2
REMARK    2  A    between atoms: C_8  and  N_9
REMARK    3  A    between atoms: C_10  and  C_12
REMARK    4  A    between atoms: C_12  and  S_13
REMARK    5  A    between atoms: S_13  and  C_14
REMARK    6  A    between atoms: C_17  and  C_18
REMARK    7  A    between atoms: C_18  and  C_19
REMARK    8  A    between atoms: C_19  and  N_20
REMARK    9  A    between atoms: C_21  and  O_23
REMARK   10  A    between atoms: O_23  and  C_24
REMARK   11  A    between atoms: C_24  and  C_25
REMARK   12  A    between atoms: C_24  and  C_26
REMARK   13  A    between atoms: C_24  and  C_27
REMARK                            x       y       z     vdW  Elec       q    Type
REMARK                         _______ _______ _______ _____ _____    ______ ____
ROOT
ATOM      1  C   UNL     1       1.766   5.252  19.780  0.00  0.00    +0.000 A 
ATOM      2  N   UNL     1       1.808   6.099  20.795  0.00  0.00    +0.000 NA
ATOM      3  N   UNL     1       2.133   7.333  20.279  0.00  0.00    +0.000 NA
ATOM      4  C   UNL     1       2.272   7.170  18.981  0.00  0.00    +0.000 A 
ATOM      5  O   UNL     1       2.063   5.867  18.587  0.00  0.00    +0.000 OA
ENDROOT
BRANCH   1   6
ATOM      6  S   UNL     1       1.280   3.593  19.984  0.00  0.00    +0.000 S 
BRANCH   6   7
ATOM      7  C   UNL     1       2.697   2.872  20.837  0.00  0.00    +0.000 C 
BRANCH   7   9
ATOM      8  N   UNL     1       4.198   4.250  19.404  0.00  0.00    +0.000 N 
ATOM      9  C   UNL     1       4.011   3.041  20.066  0.00  0.00    +0.000 C 
ATOM     10  O   UNL     1       4.776   2.078  20.004  0.00  0.00    +0.000 OA
ATOM     11  H   UNL     1       3.404   4.879  19.381  0.00  0.00    +0.000 HD
BRANCH   8  19
ATOM     12  C   UNL     1       4.416   3.837  16.513  0.00  0.00    +0.000 C 
ATOM     13  C   UNL     1       5.514   4.486  17.319  0.00  0.00    +0.000 A 
ATOM     14  C   UNL     1       6.711   4.914  16.693  0.00  0.00    +0.000 A 
ATOM     15 CL   UNL     1       7.010   4.713  14.997  0.00  0.00    +0.000 Cl
ATOM     16  C   UNL     1       7.732   5.525  17.420  0.00  0.00    +0.000 A 
ATOM     17  C   UNL     1       7.583   5.731  18.783  0.00  0.00    +0.000 A 
ATOM     18  C   UNL     1       6.416   5.309  19.421  0.00  0.00    +0.000 A 
ATOM     19  C   UNL     1       5.379   4.671  18.721  0.00  0.00    +0.000 A 
ENDBRANCH   8  19
ENDBRANCH   7   9
ENDBRANCH   6   7
ENDBRANCH   1   6
BRANCH   4  20
ATOM     20  C   UNL     1       2.551   8.189  17.935  0.00  0.00    +0.000 C 
BRANCH  20  21
ATOM     21  C   UNL     1       1.444   9.246  17.844  0.00  0.00    +0.000 C 
BRANCH  21  22
ATOM     22  N   UNL     1       0.853   9.555  19.135  0.00  0.00    +0.000 N 
ATOM     23  C   UNL     1      -0.359  10.191  19.217  0.00  0.00    +0.000 C 
ATOM     24  O   UNL     1      -1.024  10.474  18.236  0.00  0.00    +0.000 OA
ATOM     25  H   UNL     1       1.339   9.374  20.001  0.00  0.00    +0.000 HD
BRANCH  23  26
ATOM     26  O   UNL     1      -0.681  10.449  20.510  0.00  0.00    +0.000 OA
BRANCH  26  27
ATOM     27  C   UNL     1      -0.783  11.841  20.934  0.00  0.00    +0.000 C 
ATOM     28  C   UNL     1      -2.094  12.480  20.453  0.00  0.00    +0.000 C 
ATOM     29  C   UNL     1      -0.803  11.831  22.473  0.00  0.00    +0.000 C 
ATOM     30  C   UNL     1       0.451  12.639  20.489  0.00  0.00    +0.000 C 
ENDBRANCH  26  27
ENDBRANCH  23  26
ENDBRANCH  21  22
ENDBRANCH  20  21
ENDBRANCH   4  20
TORSDOF 9
ENDMDL
MODEL 9
REMARK VINA RESULT:      -6.9      3.491      8.184
REMARK  Name = 
REMARK  13 active torsions:
REMARK  status: ('A' for Active; 'I' for Inactive)
REMARK    1  A    between atoms: C_1  and  C_2
REMARK    2  A    between atoms: C_8  and  N_9
REMARK    3  A    between atoms: C_10  and  C_12
REMARK    4  A    between atoms: C_12  and  S_13
REMARK    5  A    between atoms: S_13  and  C_14
REMARK    6  A    between atoms: C_17  and  C_18
REMARK    7  A    between atoms: C_18  and  C_19
REMARK    8  A    between atoms: C_19  and  N_20
REMARK    9  A    between atoms: C_21  and  O_23
REMARK   10  A    between atoms: O_23  and  C_24
REMARK   11  A    between atoms: C_24  and  C_25
REMARK   12  A    between atoms: C_24  and  C_26
REMARK   13  A    between atoms: C_24  and  C_27
REMARK                            x       y       z     vdW  Elec       q    Type
REMARK                         _______ _______ _______ _____ _____    ______ ____
ROOT
ATOM      1  C   UNL     1       1.596   5.000  19.701  0.00  0.00    +0.000 A 
ATOM      2  N   UNL     1       1.789   5.751  20.771  0.00  0.00    +0.000 NA
ATOM      3  N   UNL     1       2.182   6.994  20.328  0.00  0.00    +0.000 NA
ATOM      4  C   UNL     1       2.207   6.931  19.014  0.00  0.00    +0.000 A 
ATOM      5  O   UNL     1       1.855   5.687  18.538  0.00  0.00    +0.000 OA
ENDROOT
BRANCH   1   6
ATOM      6  S   UNL     1       0.983   3.375  19.814  0.00  0.00    +0.000 S 
BRANCH   6   7
ATOM      7  C   UNL     1       1.480   2.658  18.234  0.00  0.00    +0.000 C 
BRANCH   7   9
ATOM      8  N   UNL     1       3.476   3.795  17.270  0.00  0.00    +0.000 N 
ATOM      9  C   UNL     1       2.994   2.714  18.001  0.00  0.00    +0.000 C 
ATOM     10  O   UNL     1       3.677   1.768  18.392  0.00  0.00    +0.000 OA
ATOM     11  H   UNL     1       2.781   4.398  16.846  0.00  0.00    +0.000 HD
BRANCH   8  19
ATOM     12  C   UNL     1       5.111   4.885  19.441  0.00  0.00    +0.000 C 
ATOM     13  C   UNL     1       5.666   4.642  18.059  0.00  0.00    +0.000 A 
ATOM     14  C   UNL     1       7.016   4.949  17.761  0.00  0.00    +0.000 A 
ATOM     15 CL   UNL     1       8.106   5.630  18.925  0.00  0.00    +0.000 Cl
ATOM     16  C   UNL     1       7.548   4.721  16.493  0.00  0.00    +0.000 A 
ATOM     17  C   UNL     1       6.754   4.176  15.496  0.00  0.00    +0.000 A 
ATOM     18  C   UNL     1       5.419   3.875  15.766  0.00  0.00    +0.000 A 
ATOM     19  C   UNL     1       4.846   4.113  17.026  0.00  0.00    +0.000 A 
ENDBRANCH   8  19
ENDBRANCH   7   9
ENDBRANCH   6   7
ENDBRANCH   1   6
BRANCH   4  20
ATOM     20  C   UNL     1       2.495   8.008  18.031  0.00  0.00    +0.000 C 
BRANCH  20  21
ATOM     21  C   UNL     1       1.431   9.112  18.051  0.00  0.00    +0.000 C 
BRANCH  21  22
ATOM     22  N   UNL     1       1.067   9.519  19.398  0.00  0.00    +0.000 N 
ATOM     23  C   UNL     1       1.001  10.847  19.736  0.00  0.00    +0.000 C 
ATOM     24  O   UNL     1       1.180  11.743  18.930  0.00  0.00    +0.000 OA
ATOM     25  H   UNL     1       0.918   8.847  20.137  0.00  0.00    +0.000 HD
BRANCH  23  26
ATOM     26  O   UNL     1       0.723  10.995  21.056  0.00  0.00    +0.000 OA
BRANCH  26  27
ATOM     27  C   UNL     1      -0.360  11.893  21.440  0.00  0.00    +0.000 C 
ATOM     28  C   UNL     1       0.116  13.351  21.501  0.00  0.00    +0.000 C 
ATOM     29  C   UNL     1      -1.427  11.793  20.335  0.00  0.00    +0.000 C 
ATOM     30  C   UNL     1      -1.007  11.437  22.756  0.00  0.00    +0.000 C 
ENDBRANCH  26  27
ENDBRANCH  23  26
ENDBRANCH  21  22
ENDBRANCH  20  21
ENDBRANCH   4  20
TORSDOF 9
ENDMDL
