MODEL 1
REMARK VINA RESULT:      -7.9      0.000      0.000
REMARK  Name = 
REMARK  12 active torsions:
REMARK  status: ('A' for Active; 'I' for Inactive)
REMARK    1  A    between atoms: C_1  and  C_2
REMARK    2  A    between atoms: C_2  and  C_3
REMARK    3  A    between atoms: C_2  and  C_4
REMARK    4  A    between atoms: C_2  and  C_5
REMARK    5  A    between atoms: N_7  and  C_8
REMARK    6  A    between atoms: C_8  and  C_9
REMARK    7  A    between atoms: C_12  and  N_13
REMARK    8  A    between atoms: N_16  and  C_17
REMARK    9  A    between atoms: N_16  and  C_28
REMARK   10  A    between atoms: C_17  and  C_18
REMARK   11  A    between atoms: C_18  and  O_19
REMARK   12  A    between atoms: C_18  and  C_20
REMARK                            x       y       z     vdW  Elec       q    Type
REMARK                         _______ _______ _______ _____ _____    ______ ____
ROOT
ATOM      1  N   UNL     1       3.217   6.377  19.079  0.00  0.00    +0.000 N 
ATOM      2  C   UNL     1       2.704   5.090  19.033  0.00  0.00    +0.000 C 
ATOM      3  O   UNL     1       1.506   4.852  19.107  0.00  0.00    +0.000 OA
ATOM      4  N   UNL     1       3.666   4.061  18.964  0.00  0.00    +0.000 N 
ATOM      5  H   UNL     1       4.100   6.449  19.551  0.00  0.00    +0.000 HD
ENDROOT
BRANCH   1   9
ATOM      6  C   UNL     1       0.710   9.783  19.510  0.00  0.00    +0.000 A 
ATOM      7  C   UNL     1       1.253   9.431  18.269  0.00  0.00    +0.000 A 
ATOM      8  C   UNL     1       2.072   8.303  18.142  0.00  0.00    +0.000 A 
ATOM      9  C   UNL     1       2.385   7.518  19.259  0.00  0.00    +0.000 A 
ATOM     10  C   UNL     1       1.843   7.858  20.498  0.00  0.00    +0.000 A 
ATOM     11  C   UNL     1       1.013   8.984  20.622  0.00  0.00    +0.000 A 
BRANCH   6  12
ATOM     12  C   UNL     1      -0.204  10.980  19.626  0.00  0.00    +0.000 C 
BRANCH  12  15
ATOM     13  C   UNL     1      -2.000  11.389  17.966  0.00  0.00    +0.000 C 
ATOM     14  O   UNL     1      -1.366  12.274  17.395  0.00  0.00    +0.000 OA
ATOM     15  N   UNL     1      -1.508  10.713  19.059  0.00  0.00    +0.000 N 
ATOM     16  H   UNL     1      -1.994   9.892  19.384  0.00  0.00    +0.000 HD
BRANCH  13  18
ATOM     17  C   UNL     1      -4.447  11.663  18.462  0.00  0.00    +0.000 C 
ATOM     18  C   UNL     1      -3.425  10.973  17.543  0.00  0.00    +0.000 C 
ATOM     19  C   UNL     1      -3.580   9.449  17.683  0.00  0.00    +0.000 C 
ATOM     20  C   UNL     1      -3.709  11.383  16.090  0.00  0.00    +0.000 C 
ENDBRANCH  13  18
ENDBRANCH  12  15
ENDBRANCH   6  12
ENDBRANCH   1   9
BRANCH   4  21
ATOM     21  C   UNL     1       3.199   2.685  19.051  0.00  0.00    +0.000 C 
ATOM     22  C   UNL     1       2.632   1.991  17.833  0.00  0.00    +0.000 C 
ATOM     23  C   UNL     1       3.931   1.528  18.412  0.00  0.00    +0.000 C 
ENDBRANCH   4  21
BRANCH   4  24
ATOM     24  C   UNL     1       5.141   4.207  18.798  0.00  0.00    +0.000 C 
BRANCH  24  25
ATOM     25  C   UNL     1       5.594   5.279  17.762  0.00  0.00    +0.000 C 
BRANCH  25  26
ATOM     26  C   UNL     1       5.845   4.783  16.335  0.00  0.00    +0.000 A 
ATOM     27  C   UNL     1       5.039   3.818  15.716  0.00  0.00    +0.000 A 
ATOM     28  C   UNL     1       5.272   3.424  14.391  0.00  0.00    +0.000 A 
ATOM     29  C   UNL     1       6.317   3.993  13.653  0.00  0.00    +0.000 A 
ATOM     30 CL   UNL     1       6.543   3.471  12.025  0.00  0.00    +0.000 Cl
ATOM     31  C   UNL     1       7.119   4.978  14.241  0.00  0.00    +0.000 A 
ATOM     32 CL   UNL     1       8.412   5.753  13.401  0.00  0.00    +0.000 Cl
ATOM     33  C   UNL     1       6.877   5.366  15.566  0.00  0.00    +0.000 A 
ENDBRANCH  25  26
BRANCH  25  34
ATOM     34  O   UNL     1       6.798   5.893  18.236  0.00  0.00    +0.000 OA
ATOM     35  H   UNL     1       7.542   5.474  17.770  0.00  0.00    +0.000 HD
ENDBRANCH  25  34
ENDBRANCH  24  25
ENDBRANCH   4  24
TORSDOF 9
ENDMDL
MODEL 2
REMARK VINA RESULT:      -7.8      1.806      2.591
REMARK  Name = 
REMARK  12 active torsions:
REMARK  status: ('A' for Active; 'I' for Inactive)
REMARK    1  A    between atoms: C_1  and  C_2
REMARK    2  A    between atoms: C_2  and  C_3
REMARK    3  A    between atoms: C_2  and  C_4
REMARK    4  A    between atoms: C_2  and  C_5
REMARK    5  A    between atoms: N_7  and  C_8
REMARK    6  A    between atoms: C_8  and  C_9
REMARK    7  A    between atoms: C_12  and  N_13
REMARK    8  A    between atoms: N_16  and  C_17
REMARK    9  A    between atoms: N_16  and  C_28
REMARK   10  A    between atoms: C_17  and  C_18
REMARK   11  A    between atoms: C_18  and  O_19
REMARK   12  A    between atoms: C_18  and  C_20
REMARK                            x       y       z     vdW  Elec       q    Type
REMARK                         _______ _______ _______ _____ _____    ______ ____
ROOT
ATOM      1  N   UNL     1       3.307   6.318  18.742  0.00  0.00    +0.000 N 
ATOM      2  C   UNL     1       2.796   5.131  18.238  0.00  0.00    +0.000 C 
ATOM      3  O   UNL     1       1.662   5.038  17.790  0.00  0.00    +0.000 OA
ATOM      4  N   UNL     1       3.654   4.016  18.340  0.00  0.00    +0.000 N 
ATOM      5  H   UNL     1       3.925   6.198  19.524  0.00  0.00    +0.000 HD
ENDROOT
BRANCH   1   9
ATOM      6  C   UNL     1       0.992   9.868  19.064  0.00  0.00    +0.000 A 
ATOM      7  C   UNL     1       1.096   8.968  20.131  0.00  0.00    +0.000 A 
ATOM      8  C   UNL     1       1.868   7.806  20.011  0.00  0.00    +0.000 A 
ATOM      9  C   UNL     1       2.530   7.507  18.813  0.00  0.00    +0.000 A 
ATOM     10  C   UNL     1       2.435   8.403  17.748  0.00  0.00    +0.000 A 
ATOM     11  C   UNL     1       1.670   9.573  17.872  0.00  0.00    +0.000 A 
BRANCH   6  12
ATOM     12  C   UNL     1       0.188  11.138  19.219  0.00  0.00    +0.000 C 
BRANCH  12  15
ATOM     13  C   UNL     1      -1.388  11.992  20.932  0.00  0.00    +0.000 C 
ATOM     14  O   UNL     1      -2.163  12.445  20.092  0.00  0.00    +0.000 OA
ATOM     15  N   UNL     1      -0.222  11.346  20.591  0.00  0.00    +0.000 N 
ATOM     16  H   UNL     1       0.289  10.853  21.306  0.00  0.00    +0.000 HD
BRANCH  13  18
ATOM     17  C   UNL     1      -1.142  10.857  23.159  0.00  0.00    +0.000 C 
ATOM     18  C   UNL     1      -1.620  12.136  22.451  0.00  0.00    +0.000 C 
ATOM     19  C   UNL     1      -3.120  12.328  22.728  0.00  0.00    +0.000 C 
ATOM     20  C   UNL     1      -0.840  13.335  23.014  0.00  0.00    +0.000 C 
ENDBRANCH  13  18
ENDBRANCH  12  15
ENDBRANCH   6  12
ENDBRANCH   1   9
BRANCH   4  21
ATOM     21  C   UNL     1       3.126   2.714  17.956  0.00  0.00    +0.000 C 
ATOM     22  C   UNL     1       3.712   1.449  18.542  0.00  0.00    +0.000 C 
ATOM     23  C   UNL     1       2.314   1.850  18.892  0.00  0.00    +0.000 C 
ENDBRANCH   4  21
BRANCH   4  24
ATOM     24  C   UNL     1       5.074   4.001  18.795  0.00  0.00    +0.000 C 
BRANCH  24  25
ATOM     25  C   UNL     1       6.056   4.864  17.948  0.00  0.00    +0.000 C 
BRANCH  25  26
ATOM     26  C   UNL     1       6.160   4.514  16.461  0.00  0.00    +0.000 A 
ATOM     27  C   UNL     1       5.283   3.621  15.830  0.00  0.00    +0.000 A 
ATOM     28  C   UNL     1       5.380   3.362  14.456  0.00  0.00    +0.000 A 
ATOM     29  C   UNL     1       6.358   3.997  13.679  0.00  0.00    +0.000 A 
ATOM     30 CL   UNL     1       6.417   3.641  11.993  0.00  0.00    +0.000 Cl
ATOM     31  C   UNL     1       7.228   4.913  14.282  0.00  0.00    +0.000 A 
ATOM     32 CL   UNL     1       8.445   5.762  13.401  0.00  0.00    +0.000 Cl
ATOM     33  C   UNL     1       7.122   5.166  15.657  0.00  0.00    +0.000 A 
ENDBRANCH  25  26
BRANCH  25  34
ATOM     34  O   UNL     1       7.365   4.761  18.520  0.00  0.00    +0.000 OA
ATOM     35  H   UNL     1       7.953   4.390  17.840  0.00  0.00    +0.000 HD
ENDBRANCH  25  34
ENDBRANCH  24  25
ENDBRANCH   4  24
TORSDOF 9
ENDMDL
MODEL 3
REMARK VINA RESULT:      -7.8      0.609      1.056
REMARK  Name = 
REMARK  12 active torsions:
REMARK  status: ('A' for Active; 'I' for Inactive)
REMARK    1  A    between atoms: C_1  and  C_2
REMARK    2  A    between atoms: C_2  and  C_3
REMARK    3  A    between atoms: C_2  and  C_4
REMARK    4  A    between atoms: C_2  and  C_5
REMARK    5  A    between atoms: N_7  and  C_8
REMARK    6  A    between atoms: C_8  and  C_9
REMARK    7  A    between atoms: C_12  and  N_13
REMARK    8  A    between atoms: N_16  and  C_17
REMARK    9  A    between atoms: N_16  and  C_28
REMARK   10  A    between atoms: C_17  and  C_18
REMARK   11  A    between atoms: C_18  and  O_19
REMARK   12  A    between atoms: C_18  and  C_20
REMARK                            x       y       z     vdW  Elec       q    Type
REMARK                         _______ _______ _______ _____ _____    ______ ____
ROOT
ATOM      1  N   UNL     1       3.467   6.345  18.987  0.00  0.00    +0.000 N 
ATOM      2  C   UNL     1       3.023   5.039  19.123  0.00  0.00    +0.000 C 
ATOM      3  O   UNL     1       1.836   4.747  19.191  0.00  0.00    +0.000 OA
ATOM      4  N   UNL     1       4.039   4.067  19.245  0.00  0.00    +0.000 N 
ATOM      5  H   UNL     1       4.325   6.538  19.472  0.00  0.00    +0.000 HD
ENDROOT
BRANCH   1   9
ATOM      6  C   UNL     1       0.802   9.656  19.016  0.00  0.00    +0.000 A 
ATOM      7  C   UNL     1       1.035   8.899  20.170  0.00  0.00    +0.000 A 
ATOM      8  C   UNL     1       1.920   7.815  20.146  0.00  0.00    +0.000 A 
ATOM      9  C   UNL     1       2.571   7.450  18.960  0.00  0.00    +0.000 A 
ATOM     10  C   UNL     1       2.348   8.203  17.808  0.00  0.00    +0.000 A 
ATOM     11  C   UNL     1       1.469   9.297  17.836  0.00  0.00    +0.000 A 
BRANCH   6  12
ATOM     12  C   UNL     1      -0.126  10.848  19.066  0.00  0.00    +0.000 C 
BRANCH  12  15
ATOM     13  C   UNL     1      -2.443  11.414  18.389  0.00  0.00    +0.000 C 
ATOM     14  O   UNL     1      -2.516  12.355  19.176  0.00  0.00    +0.000 OA
ATOM     15  N   UNL     1      -1.318  10.630  18.276  0.00  0.00    +0.000 N 
ATOM     16  H   UNL     1      -1.250   9.982  17.506  0.00  0.00    +0.000 HD
BRANCH  13  18
ATOM     17  C   UNL     1      -4.869  11.790  17.862  0.00  0.00    +0.000 C 
ATOM     18  C   UNL     1      -3.614  10.989  17.478  0.00  0.00    +0.000 C 
ATOM     19  C   UNL     1      -3.900   9.491  17.670  0.00  0.00    +0.000 C 
ATOM     20  C   UNL     1      -3.287  11.260  16.001  0.00  0.00    +0.000 C 
ENDBRANCH  13  18
ENDBRANCH  12  15
ENDBRANCH   6  12
ENDBRANCH   1   9
BRANCH   4  21
ATOM     21  C   UNL     1       3.639   2.696  19.528  0.00  0.00    +0.000 C 
ATOM     22  C   UNL     1       3.402   1.721  18.397  0.00  0.00    +0.000 C 
ATOM     23  C   UNL     1       4.559   1.515  19.322  0.00  0.00    +0.000 C 
ENDBRANCH   4  21
BRANCH   4  24
ATOM     24  C   UNL     1       5.510   4.271  19.110  0.00  0.00    +0.000 C 
BRANCH  24  25
ATOM     25  C   UNL     1       5.945   5.299  18.023  0.00  0.00    +0.000 C 
BRANCH  25  26
ATOM     26  C   UNL     1       5.999   4.783  16.582  0.00  0.00    +0.000 A 
ATOM     27  C   UNL     1       5.077   3.859  16.072  0.00  0.00    +0.000 A 
ATOM     28  C   UNL     1       5.130   3.447  14.734  0.00  0.00    +0.000 A 
ATOM     29  C   UNL     1       6.109   3.957  13.871  0.00  0.00    +0.000 A 
ATOM     30 CL   UNL     1       6.113   3.415  12.235  0.00  0.00    +0.000 Cl
ATOM     31  C   UNL     1       7.025   4.900  14.350  0.00  0.00    +0.000 A 
ATOM     32 CL   UNL     1       8.248   5.601  13.355  0.00  0.00    +0.000 Cl
ATOM     33  C   UNL     1       6.962   5.307  15.690  0.00  0.00    +0.000 A 
ENDBRANCH  25  26
BRANCH  25  34
ATOM     34  O   UNL     1       7.242   5.802  18.362  0.00  0.00    +0.000 OA
ATOM     35  H   UNL     1       7.880   5.082  18.223  0.00  0.00    +0.000 HD
ENDBRANCH  25  34
ENDBRANCH  24  25
ENDBRANCH   4  24
TORSDOF 9
ENDMDL
MODEL 4
REMARK VINA RESULT:      -7.7      1.944      2.981
REMARK  Name = 
REMARK  12 active torsions:
REMARK  status: ('A' for Active; 'I' for Inactive)
REMARK    1  A    between atoms: C_1  and  C_2
REMARK    2  A    between atoms: C_2  and  C_3
REMARK    3  A    between atoms: C_2  and  C_4
REMARK    4  A    between atoms: C_2  and  C_5
REMARK    5  A    between atoms: N_7  and  C_8
REMARK    6  A    between atoms: C_8  and  C_9
REMARK    7  A    between atoms: C_12  and  N_13
REMARK    8  A    between atoms: N_16  and  C_17
REMARK    9  A    between atoms: N_16  and  C_28
REMARK   10  A    between atoms: C_17  and  C_18
REMARK   11  A    between atoms: C_18  and  O_19
REMARK   12  A    between atoms: C_18  and  C_20
REMARK                            x       y       z     vdW  Elec       q    Type
REMARK                         _______ _______ _______ _____ _____    ______ ____
ROOT
ATOM      1  N   UNL     1       3.343   6.298  18.993  0.00  0.00    +0.000 N 
ATOM      2  C   UNL     1       2.793   5.026  18.948  0.00  0.00    +0.000 C 
ATOM      3  O   UNL     1       1.585   4.828  18.931  0.00  0.00    +0.000 OA
ATOM      4  N   UNL     1       3.723   3.966  18.989  0.00  0.00    +0.000 N 
ATOM      5  H   UNL     1       4.189   6.359  19.532  0.00  0.00    +0.000 HD
ENDROOT
BRANCH   1   9
ATOM      6  C   UNL     1       0.930   9.795  19.109  0.00  0.00    +0.000 A 
ATOM      7  C   UNL     1       1.598   9.410  17.941  0.00  0.00    +0.000 A 
ATOM      8  C   UNL     1       2.385   8.252  17.917  0.00  0.00    +0.000 A 
ATOM      9  C   UNL     1       2.539   7.469  19.068  0.00  0.00    +0.000 A 
ATOM     10  C   UNL     1       1.871   7.843  20.234  0.00  0.00    +0.000 A 
ATOM     11  C   UNL     1       1.074   8.998  20.254  0.00  0.00    +0.000 A 
BRANCH   6  12
ATOM     12  C   UNL     1       0.053  11.025  19.110  0.00  0.00    +0.000 C 
BRANCH  12  15
ATOM     13  C   UNL     1       1.477  12.861  19.974  0.00  0.00    +0.000 C 
ATOM     14  O   UNL     1       1.440  12.439  21.128  0.00  0.00    +0.000 OA
ATOM     15  N   UNL     1       0.828  12.234  18.936  0.00  0.00    +0.000 N 
ATOM     16  H   UNL     1       1.026  12.524  17.991  0.00  0.00    +0.000 HD
BRANCH  13  18
ATOM     17  C   UNL     1       1.192  15.272  19.330  0.00  0.00    +0.000 C 
ATOM     18  C   UNL     1       2.219  14.155  19.578  0.00  0.00    +0.000 C 
ATOM     19  C   UNL     1       3.018  13.916  18.285  0.00  0.00    +0.000 C 
ATOM     20  C   UNL     1       3.178  14.602  20.692  0.00  0.00    +0.000 C 
ENDBRANCH  13  18
ENDBRANCH  12  15
ENDBRANCH   6  12
ENDBRANCH   1   9
BRANCH   4  21
ATOM     21  C   UNL     1       3.204   2.609  19.083  0.00  0.00    +0.000 C 
ATOM     22  C   UNL     1       2.562   1.951  17.882  0.00  0.00    +0.000 C 
ATOM     23  C   UNL     1       3.863   1.430  18.405  0.00  0.00    +0.000 C 
ENDBRANCH   4  21
BRANCH   4  24
ATOM     24  C   UNL     1       5.211   4.061  18.939  0.00  0.00    +0.000 C 
BRANCH  24  25
ATOM     25  C   UNL     1       5.779   5.115  17.943  0.00  0.00    +0.000 C 
BRANCH  25  26
ATOM     26  C   UNL     1       5.921   4.667  16.486  0.00  0.00    +0.000 A 
ATOM     27  C   UNL     1       5.042   3.755  15.884  0.00  0.00    +0.000 A 
ATOM     28  C   UNL     1       5.176   3.406  14.534  0.00  0.00    +0.000 A 
ATOM     29  C   UNL     1       6.193   3.967  13.751  0.00  0.00    +0.000 A 
ATOM     30 CL   UNL     1       6.296   3.501  12.094  0.00  0.00    +0.000 Cl
ATOM     31  C   UNL     1       7.066   4.899  14.322  0.00  0.00    +0.000 A 
ATOM     32 CL   UNL     1       8.331   5.662  13.429  0.00  0.00    +0.000 Cl
ATOM     33  C   UNL     1       6.923   5.244  15.673  0.00  0.00    +0.000 A 
ENDBRANCH  25  26
BRANCH  25  34
ATOM     34  O   UNL     1       7.069   5.532  18.406  0.00  0.00    +0.000 OA
ATOM     35  H   UNL     1       7.358   4.892  19.079  0.00  0.00    +0.000 HD
ENDBRANCH  25  34
ENDBRANCH  24  25
ENDBRANCH   4  24
TORSDOF 9
ENDMDL
MODEL 5
REMARK VINA RESULT:      -7.6      5.815     11.711
REMARK  Name = 
REMARK  12 active torsions:
REMARK  status: ('A' for Active; 'I' for Inactive)
REMARK    1  A    between atoms: C_1  and  C_2
REMARK    2  A    between atoms: C_2  and  C_3
REMARK    3  A    between atoms: C_2  and  C_4
REMARK    4  A    between atoms: C_2  and  C_5
REMARK    5  A    between atoms: N_7  and  C_8
REMARK    6  A    between atoms: C_8  and  C_9
REMARK    7  A    between atoms: C_12  and  N_13
REMARK    8  A    between atoms: N_16  and  C_17
REMARK    9  A    between atoms: N_16  and  C_28
REMARK   10  A    between atoms: C_17  and  C_18
REMARK   11  A    between atoms: C_18  and  O_19
REMARK   12  A    between atoms: C_18  and  C_20
REMARK                            x       y       z     vdW  Elec       q    Type
REMARK                         _______ _______ _______ _____ _____    ______ ____
ROOT
ATOM      1  N   UNL     1       0.081  10.667  19.918  0.00  0.00    +0.000 N 
ATOM      2  C   UNL     1       0.579  11.940  19.691  0.00  0.00    +0.000 C 
ATOM      3  O   UNL     1       1.708  12.142  19.263  0.00  0.00    +0.000 OA
ATOM      4  N   UNL     1      -0.282  12.998  20.050  0.00  0.00    +0.000 N 
ATOM      5  H   UNL     1      -0.529  10.603  20.714  0.00  0.00    +0.000 HD
ENDROOT
BRANCH   1   9
ATOM      6  C   UNL     1       2.378   7.130  19.388  0.00  0.00    +0.000 A 
ATOM      7  C   UNL     1       1.839   7.468  20.635  0.00  0.00    +0.000 A 
ATOM      8  C   UNL     1       1.079   8.634  20.792  0.00  0.00    +0.000 A 
ATOM      9  C   UNL     1       0.864   9.498  19.711  0.00  0.00    +0.000 A 
ATOM     10  C   UNL     1       1.394   9.165  18.464  0.00  0.00    +0.000 A 
ATOM     11  C   UNL     1       2.146   7.990  18.305  0.00  0.00    +0.000 A 
BRANCH   6  12
ATOM     12  C   UNL     1       3.162   5.850  19.223  0.00  0.00    +0.000 C 
BRANCH  12  15
ATOM     13  C   UNL     1       5.526   5.723  18.486  0.00  0.00    +0.000 C 
ATOM     14  O   UNL     1       5.923   5.361  19.592  0.00  0.00    +0.000 OA
ATOM     15  N   UNL     1       4.201   5.984  18.225  0.00  0.00    +0.000 N 
ATOM     16  H   UNL     1       3.908   6.116  17.269  0.00  0.00    +0.000 HD
BRANCH  13  18
ATOM     17  C   UNL     1       5.637   6.229  16.029  0.00  0.00    +0.000 C 
ATOM     18  C   UNL     1       6.473   5.961  17.291  0.00  0.00    +0.000 C 
ATOM     19  C   UNL     1       7.337   4.710  17.060  0.00  0.00    +0.000 C 
ATOM     20  C   UNL     1       7.386   7.171  17.546  0.00  0.00    +0.000 C 
ENDBRANCH  13  18
ENDBRANCH  12  15
ENDBRANCH   6  12
ENDBRANCH   1   9
BRANCH   4  21
ATOM     21  C   UNL     1       0.234  14.356  19.965  0.00  0.00    +0.000 C 
ATOM     22  C   UNL     1      -0.068  15.214  18.756  0.00  0.00    +0.000 C 
ATOM     23  C   UNL     1      -0.647  15.578  20.086  0.00  0.00    +0.000 C 
ENDBRANCH   4  21
BRANCH   4  24
ATOM     24  C   UNL     1      -1.697  12.898  20.512  0.00  0.00    +0.000 C 
BRANCH  24  25
ATOM     25  C   UNL     1      -1.886  12.466  21.997  0.00  0.00    +0.000 C 
BRANCH  25  26
ATOM     26  C   UNL     1      -3.293  12.629  22.579  0.00  0.00    +0.000 A 
ATOM     27  C   UNL     1      -3.592  12.369  23.923  0.00  0.00    +0.000 A 
ATOM     28  C   UNL     1      -4.882  12.576  24.430  0.00  0.00    +0.000 A 
ATOM     29  C   UNL     1      -5.904  13.054  23.601  0.00  0.00    +0.000 A 
ATOM     30 CL   UNL     1      -7.466  13.295  24.290  0.00  0.00    +0.000 Cl
ATOM     31  C   UNL     1      -5.624  13.346  22.261  0.00  0.00    +0.000 A 
ATOM     32 CL   UNL     1      -6.812  13.963  21.172  0.00  0.00    +0.000 Cl
ATOM     33  C   UNL     1      -4.329  13.137  21.764  0.00  0.00    +0.000 A 
ENDBRANCH  25  26
BRANCH  25  34
ATOM     34  O   UNL     1      -0.980  13.219  22.811  0.00  0.00    +0.000 OA
ATOM     35  H   UNL     1      -0.092  13.123  22.425  0.00  0.00    +0.000 HD
ENDBRANCH  25  34
ENDBRANCH  24  25
ENDBRANCH   4  24
TORSDOF 9
ENDMDL
MODEL 6
REMARK VINA RESULT:      -7.5      6.015     11.705
REMARK  Name = 
REMARK  12 active torsions:
REMARK  status: ('A' for Active; 'I' for Inactive)
REMARK    1  A    between atoms: C_1  and  C_2
REMARK    2  A    between atoms: C_2  and  C_3
REMARK    3  A    between atoms: C_2  and  C_4
REMARK    4  A    between atoms: C_2  and  C_5
REMARK    5  A    between atoms: N_7  and  C_8
REMARK    6  A    between atoms: C_8  and  C_9
REMARK    7  A    between atoms: C_12  and  N_13
REMARK    8  A    between atoms: N_16  and  C_17
REMARK    9  A    between atoms: N_16  and  C_28
REMARK   10  A    between atoms: C_17  and  C_18
REMARK   11  A    between atoms: C_18  and  O_19
REMARK   12  A    between atoms: C_18  and  C_20
REMARK                            x       y       z     vdW  Elec       q    Type
REMARK                         _______ _______ _______ _____ _____    ______ ____
ROOT
ATOM      1  N   UNL     1      -0.334  10.868  19.641  0.00  0.00    +0.000 N 
ATOM      2  C   UNL     1       0.114  12.176  19.743  0.00  0.00    +0.000 C 
ATOM      3  O   UNL     1       1.288  12.487  19.592  0.00  0.00    +0.000 OA
ATOM      4  N   UNL     1      -0.869  13.123  20.101  0.00  0.00    +0.000 N 
ATOM      5  H   UNL     1      -1.079  10.639  20.275  0.00  0.00    +0.000 HD
ENDROOT
BRANCH   1   9
ATOM      6  C   UNL     1       2.343   7.671  18.812  0.00  0.00    +0.000 A 
ATOM      7  C   UNL     1       1.884   8.519  17.797  0.00  0.00    +0.000 A 
ATOM      8  C   UNL     1       1.007   9.571  18.086  0.00  0.00    +0.000 A 
ATOM      9  C   UNL     1       0.551   9.782  19.394  0.00  0.00    +0.000 A 
ATOM     10  C   UNL     1       1.008   8.945  20.413  0.00  0.00    +0.000 A 
ATOM     11  C   UNL     1       1.896   7.897  20.122  0.00  0.00    +0.000 A 
BRANCH   6  12
ATOM     12  C   UNL     1       3.319   6.564  18.492  0.00  0.00    +0.000 C 
BRANCH  12  15
ATOM     13  C   UNL     1       2.054   4.435  18.604  0.00  0.00    +0.000 C 
ATOM     14  O   UNL     1       1.491   4.633  17.529  0.00  0.00    +0.000 OA
ATOM     15  N   UNL     1       2.954   5.325  19.143  0.00  0.00    +0.000 N 
ATOM     16  H   UNL     1       3.506   5.040  19.937  0.00  0.00    +0.000 HD
BRANCH  13  18
ATOM     17  C   UNL     1       1.178   3.638  20.819  0.00  0.00    +0.000 C 
ATOM     18  C   UNL     1       1.782   3.191  19.477  0.00  0.00    +0.000 C 
ATOM     19  C   UNL     1       3.102   2.451  19.747  0.00  0.00    +0.000 C 
ATOM     20  C   UNL     1       0.796   2.238  18.783  0.00  0.00    +0.000 C 
ENDBRANCH  13  18
ENDBRANCH  12  15
ENDBRANCH   6  12
ENDBRANCH   1   9
BRANCH   4  21
ATOM     21  C   UNL     1      -0.437  14.488  20.359  0.00  0.00    +0.000 C 
ATOM     22  C   UNL     1      -0.333  15.484  19.225  0.00  0.00    +0.000 C 
ATOM     23  C   UNL     1      -1.373  15.673  20.283  0.00  0.00    +0.000 C 
ENDBRANCH   4  21
BRANCH   4  24
ATOM     24  C   UNL     1      -2.337  12.896  20.246  0.00  0.00    +0.000 C 
BRANCH  24  25
ATOM     25  C   UNL     1      -2.821  12.555  21.687  0.00  0.00    +0.000 C 
BRANCH  25  26
ATOM     26  C   UNL     1      -3.242  13.739  22.561  0.00  0.00    +0.000 A 
ATOM     27  C   UNL     1      -4.403  14.485  22.319  0.00  0.00    +0.000 A 
ATOM     28  C   UNL     1      -4.781  15.532  23.170  0.00  0.00    +0.000 A 
ATOM     29  C   UNL     1      -4.004  15.853  24.291  0.00  0.00    +0.000 A 
ATOM     30 CL   UNL     1      -4.530  17.147  25.302  0.00  0.00    +0.000 Cl
ATOM     31  C   UNL     1      -2.854  15.106  24.569  0.00  0.00    +0.000 A 
ATOM     32 CL   UNL     1      -1.851  15.411  25.939  0.00  0.00    +0.000 Cl
ATOM     33  C   UNL     1      -2.486  14.059  23.711  0.00  0.00    +0.000 A 
ENDBRANCH  25  26
BRANCH  25  34
ATOM     34  O   UNL     1      -1.775  11.852  22.366  0.00  0.00    +0.000 OA
ATOM     35  H   UNL     1      -2.080  10.939  22.508  0.00  0.00    +0.000 HD
ENDBRANCH  25  34
ENDBRANCH  24  25
ENDBRANCH   4  24
TORSDOF 9
ENDMDL
MODEL 7
REMARK VINA RESULT:      -7.5      1.158      1.933
REMARK  Name = 
REMARK  12 active torsions:
REMARK  status: ('A' for Active; 'I' for Inactive)
REMARK    1  A    between atoms: C_1  and  C_2
REMARK    2  A    between atoms: C_2  and  C_3
REMARK    3  A    between atoms: C_2  and  C_4
REMARK    4  A    between atoms: C_2  and  C_5
REMARK    5  A    between atoms: N_7  and  C_8
REMARK    6  A    between atoms: C_8  and  C_9
REMARK    7  A    between atoms: C_12  and  N_13
REMARK    8  A    between atoms: N_16  and  C_17
REMARK    9  A    between atoms: N_16  and  C_28
REMARK   10  A    between atoms: C_17  and  C_18
REMARK   11  A    between atoms: C_18  and  O_19
REMARK   12  A    between atoms: C_18  and  C_20
REMARK                            x       y       z     vdW  Elec       q    Type
REMARK                         _______ _______ _______ _____ _____    ______ ____
ROOT
ATOM      1  N   UNL     1       2.829   6.456  19.079  0.00  0.00    +0.000 N 
ATOM      2  C   UNL     1       2.384   5.240  19.575  0.00  0.00    +0.000 C 
ATOM      3  O   UNL     1       1.312   5.114  20.153  0.00  0.00    +0.000 OA
ATOM      4  N   UNL     1       3.283   4.163  19.427  0.00  0.00    +0.000 N 
ATOM      5  H   UNL     1       3.822   6.586  19.147  0.00  0.00    +0.000 HD
ENDROOT
BRANCH   1   9
ATOM      6  C   UNL     1       0.587  10.046  19.472  0.00  0.00    +0.000 A 
ATOM      7  C   UNL     1       1.049   9.609  18.225  0.00  0.00    +0.000 A 
ATOM      8  C   UNL     1       1.781   8.421  18.111  0.00  0.00    +0.000 A 
ATOM      9  C   UNL     1       2.088   7.659  19.246  0.00  0.00    +0.000 A 
ATOM     10  C   UNL     1       1.626   8.085  20.491  0.00  0.00    +0.000 A 
ATOM     11  C   UNL     1       0.883   9.271  20.603  0.00  0.00    +0.000 A 
BRANCH   6  12
ATOM     12  C   UNL     1      -0.235  11.309  19.575  0.00  0.00    +0.000 C 
BRANCH  12  15
ATOM     13  C   UNL     1      -2.188  11.519  18.063  0.00  0.00    +0.000 C 
ATOM     14  O   UNL     1      -1.556  12.156  17.222  0.00  0.00    +0.000 OA
ATOM     15  N   UNL     1      -1.621  11.074  19.234  0.00  0.00    +0.000 N 
ATOM     16  H   UNL     1      -2.133  10.421  19.807  0.00  0.00    +0.000 HD
BRANCH  13  18
ATOM     17  C   UNL     1      -4.156  11.596  16.504  0.00  0.00    +0.000 C 
ATOM     18  C   UNL     1      -3.688  11.190  17.912  0.00  0.00    +0.000 C 
ATOM     19  C   UNL     1      -4.498  11.979  18.953  0.00  0.00    +0.000 C 
ATOM     20  C   UNL     1      -3.942   9.686  18.103  0.00  0.00    +0.000 C 
ENDBRANCH  13  18
ENDBRANCH  12  15
ENDBRANCH   6  12
ENDBRANCH   1   9
BRANCH   4  21
ATOM     21  C   UNL     1       2.934   2.894  20.048  0.00  0.00    +0.000 C 
ATOM     22  C   UNL     1       3.934   2.171  20.923  0.00  0.00    +0.000 C 
ATOM     23  C   UNL     1       2.695   2.745  21.533  0.00  0.00    +0.000 C 
ENDBRANCH   4  21
BRANCH   4  24
ATOM     24  C   UNL     1       4.579   4.159  18.688  0.00  0.00    +0.000 C 
BRANCH  24  25
ATOM     25  C   UNL     1       4.564   3.414  17.319  0.00  0.00    +0.000 C 
BRANCH  25  26
ATOM     26  C   UNL     1       5.467   3.987  16.223  0.00  0.00    +0.000 A 
ATOM     27  C   UNL     1       6.506   4.887  16.491  0.00  0.00    +0.000 A 
ATOM     28  C   UNL     1       7.342   5.352  15.467  0.00  0.00    +0.000 A 
ATOM     29  C   UNL     1       7.158   4.921  14.147  0.00  0.00    +0.000 A 
ATOM     30 CL   UNL     1       8.226   5.525  12.936  0.00  0.00    +0.000 Cl
ATOM     31  C   UNL     1       6.143   4.002  13.858  0.00  0.00    +0.000 A 
ATOM     32 CL   UNL     1       5.858   3.395  12.268  0.00  0.00    +0.000 Cl
ATOM     33  C   UNL     1       5.313   3.541  14.891  0.00  0.00    +0.000 A 
ENDBRANCH  25  26
BRANCH  25  34
ATOM     34  O   UNL     1       3.221   3.397  16.823  0.00  0.00    +0.000 OA
ATOM     35  H   UNL     1       2.699   2.825  17.412  0.00  0.00    +0.000 HD
ENDBRANCH  25  34
ENDBRANCH  24  25
ENDBRANCH   4  24
TORSDOF 9
ENDMDL
MODEL 8
REMARK VINA RESULT:      -7.5      2.187      2.987
REMARK  Name = 
REMARK  12 active torsions:
REMARK  status: ('A' for Active; 'I' for Inactive)
REMARK    1  A    between atoms: C_1  and  C_2
REMARK    2  A    between atoms: C_2  and  C_3
REMARK    3  A    between atoms: C_2  and  C_4
REMARK    4  A    between atoms: C_2  and  C_5
REMARK    5  A    between atoms: N_7  and  C_8
REMARK    6  A    between atoms: C_8  and  C_9
REMARK    7  A    between atoms: C_12  and  N_13
REMARK    8  A    between atoms: N_16  and  C_17
REMARK    9  A    between atoms: N_16  and  C_28
REMARK   10  A    between atoms: C_17  and  C_18
REMARK   11  A    between atoms: C_18  and  O_19
REMARK   12  A    between atoms: C_18  and  C_20
REMARK                            x       y       z     vdW  Elec       q    Type
REMARK                         _______ _______ _______ _____ _____    ______ ____
ROOT
ATOM      1  N   UNL     1       2.499   6.676  18.603  0.00  0.00    +0.000 N 
ATOM      2  C   UNL     1       2.260   5.651  19.505  0.00  0.00    +0.000 C 
ATOM      3  O   UNL     1       1.599   5.808  20.523  0.00  0.00    +0.000 OA
ATOM      4  N   UNL     1       2.890   4.425  19.205  0.00  0.00    +0.000 N 
ATOM      5  H   UNL     1       3.408   6.641  18.175  0.00  0.00    +0.000 HD
ENDROOT
BRANCH   1   9
ATOM      6  C   UNL     1       1.099  10.619  19.353  0.00  0.00    +0.000 A 
ATOM      7  C   UNL     1       1.046   9.627  20.340  0.00  0.00    +0.000 A 
ATOM      8  C   UNL     1       1.516   8.334  20.079  0.00  0.00    +0.000 A 
ATOM      9  C   UNL     1       2.027   8.001  18.818  0.00  0.00    +0.000 A 
ATOM     10  C   UNL     1       2.089   8.985  17.832  0.00  0.00    +0.000 A 
ATOM     11  C   UNL     1       1.627  10.284  18.098  0.00  0.00    +0.000 A 
BRANCH   6  12
ATOM     12  C   UNL     1       0.624  12.019  19.660  0.00  0.00    +0.000 C 
BRANCH  12  15
ATOM     13  C   UNL     1      -1.378  12.449  21.057  0.00  0.00    +0.000 C 
ATOM     14  O   UNL     1      -2.074  12.749  20.089  0.00  0.00    +0.000 OA
ATOM     15  N   UNL     1      -0.057  12.085  20.935  0.00  0.00    +0.000 N 
ATOM     16  H   UNL     1       0.417  11.692  21.733  0.00  0.00    +0.000 HD
BRANCH  13  18
ATOM     17  C   UNL     1      -1.508  11.181  23.222  0.00  0.00    +0.000 C 
ATOM     18  C   UNL     1      -1.900  12.487  22.509  0.00  0.00    +0.000 C 
ATOM     19  C   UNL     1      -3.433  12.611  22.504  0.00  0.00    +0.000 C 
ATOM     20  C   UNL     1      -1.296  13.671  23.280  0.00  0.00    +0.000 C 
ENDBRANCH  13  18
ENDBRANCH  12  15
ENDBRANCH   6  12
ENDBRANCH   1   9
BRANCH   4  21
ATOM     21  C   UNL     1       2.791   3.351  20.183  0.00  0.00    +0.000 C 
ATOM     22  C   UNL     1       1.608   2.410  20.167  0.00  0.00    +0.000 C 
ATOM     23  C   UNL     1       2.969   1.895  19.822  0.00  0.00    +0.000 C 
ENDBRANCH   4  21
BRANCH   4  24
ATOM     24  C   UNL     1       3.658   4.077  17.975  0.00  0.00    +0.000 C 
BRANCH  24  25
ATOM     25  C   UNL     1       5.152   4.520  17.973  0.00  0.00    +0.000 C 
BRANCH  25  26
ATOM     26  C   UNL     1       5.811   4.685  16.600  0.00  0.00    +0.000 A 
ATOM     27  C   UNL     1       7.077   5.261  16.432  0.00  0.00    +0.000 A 
ATOM     28  C   UNL     1       7.668   5.351  15.164  0.00  0.00    +0.000 A 
ATOM     29  C   UNL     1       7.003   4.861  14.033  0.00  0.00    +0.000 A 
ATOM     30 CL   UNL     1       7.789   4.995  12.504  0.00  0.00    +0.000 Cl
ATOM     31  C   UNL     1       5.749   4.258  14.179  0.00  0.00    +0.000 A 
ATOM     32 CL   UNL     1       4.867   3.602  12.848  0.00  0.00    +0.000 Cl
ATOM     33  C   UNL     1       5.167   4.171  15.452  0.00  0.00    +0.000 A 
ENDBRANCH  25  26
BRANCH  25  34
ATOM     34  O   UNL     1       5.913   3.562  18.717  0.00  0.00    +0.000 OA
ATOM     35  H   UNL     1       6.382   2.999  18.077  0.00  0.00    +0.000 HD
ENDBRANCH  25  34
ENDBRANCH  24  25
ENDBRANCH   4  24
TORSDOF 9
ENDMDL
MODEL 9
REMARK VINA RESULT:      -7.5      5.023     10.935
REMARK  Name = 
REMARK  12 active torsions:
REMARK  status: ('A' for Active; 'I' for Inactive)
REMARK    1  A    between atoms: C_1  and  C_2
REMARK    2  A    between atoms: C_2  and  C_3
REMARK    3  A    between atoms: C_2  and  C_4
REMARK    4  A    between atoms: C_2  and  C_5
REMARK    5  A    between atoms: N_7  and  C_8
REMARK    6  A    between atoms: C_8  and  C_9
REMARK    7  A    between atoms: C_12  and  N_13
REMARK    8  A    between atoms: N_16  and  C_17
REMARK    9  A    between atoms: N_16  and  C_28
REMARK   10  A    between atoms: C_17  and  C_18
REMARK   11  A    between atoms: C_18  and  O_19
REMARK   12  A    between atoms: C_18  and  C_20
REMARK                            x       y       z     vdW  Elec       q    Type
REMARK                         _______ _______ _______ _____ _____    ______ ____
ROOT
ATOM      1  N   UNL     1       0.437  10.857  19.991  0.00  0.00    +0.000 N 
ATOM      2  C   UNL     1       1.034  12.108  20.012  0.00  0.00    +0.000 C 
ATOM      3  O   UNL     1       2.166  12.308  19.592  0.00  0.00    +0.000 OA
ATOM      4  N   UNL     1       0.271  13.129  20.616  0.00  0.00    +0.000 N 
ATOM      5  H   UNL     1      -0.158  10.674  20.779  0.00  0.00    +0.000 HD
ENDROOT
BRANCH   1   9
ATOM      6  C   UNL     1       2.508   7.462  18.489  0.00  0.00    +0.000 A 
ATOM      7  C   UNL     1       2.196   8.549  17.663  0.00  0.00    +0.000 A 
ATOM      8  C   UNL     1       1.519   9.662  18.174  0.00  0.00    +0.000 A 
ATOM      9  C   UNL     1       1.117   9.701  19.516  0.00  0.00    +0.000 A 
ATOM     10  C   UNL     1       1.430   8.625  20.346  0.00  0.00    +0.000 A 
ATOM     11  C   UNL     1       2.119   7.513  19.835  0.00  0.00    +0.000 A 
BRANCH   6  12
ATOM     12  C   UNL     1       3.274   6.284  17.935  0.00  0.00    +0.000 C 
BRANCH  12  15
ATOM     13  C   UNL     1       2.065   4.148  18.282  0.00  0.00    +0.000 C 
ATOM     14  O   UNL     1       1.385   4.289  17.267  0.00  0.00    +0.000 OA
ATOM     15  N   UNL     1       3.003   5.073  18.678  0.00  0.00    +0.000 N 
ATOM     16  H   UNL     1       3.643   4.832  19.418  0.00  0.00    +0.000 HD
BRANCH  13  18
ATOM     17  C   UNL     1       3.052   1.947  18.979  0.00  0.00    +0.000 C 
ATOM     18  C   UNL     1       1.910   2.944  19.235  0.00  0.00    +0.000 C 
ATOM     19  C   UNL     1       0.567   2.243  18.967  0.00  0.00    +0.000 C 
ATOM     20  C   UNL     1       1.965   3.395  20.703  0.00  0.00    +0.000 C 
ENDBRANCH  13  18
ENDBRANCH  12  15
ENDBRANCH   6  12
ENDBRANCH   1   9
BRANCH   4  21
ATOM     21  C   UNL     1       0.896  14.432  20.794  0.00  0.00    +0.000 C 
ATOM     22  C   UNL     1       0.727  15.510  19.746  0.00  0.00    +0.000 C 
ATOM     23  C   UNL     1       0.108  15.685  21.096  0.00  0.00    +0.000 C 
ENDBRANCH   4  21
BRANCH   4  24
ATOM     24  C   UNL     1      -1.137  13.043  21.101  0.00  0.00    +0.000 C 
BRANCH  24  25
ATOM     25  C   UNL     1      -2.231  13.333  20.031  0.00  0.00    +0.000 C 
BRANCH  25  26
ATOM     26  C   UNL     1      -3.643  12.833  20.349  0.00  0.00    +0.000 A 
ATOM     27  C   UNL     1      -4.253  13.028  21.595  0.00  0.00    +0.000 A 
ATOM     28  C   UNL     1      -5.566  12.599  21.833  0.00  0.00    +0.000 A 
ATOM     29  C   UNL     1      -6.301  11.966  20.823  0.00  0.00    +0.000 A 
ATOM     30 CL   UNL     1      -7.914  11.469  21.178  0.00  0.00    +0.000 Cl
ATOM     31  C   UNL     1      -5.723  11.783  19.562  0.00  0.00    +0.000 A 
ATOM     32 CL   UNL     1      -6.561  11.037  18.250  0.00  0.00    +0.000 Cl
ATOM     33  C   UNL     1      -4.409  12.218  19.333  0.00  0.00    +0.000 A 
ENDBRANCH  25  26
BRANCH  25  34
ATOM     34  O   UNL     1      -1.822  12.747  18.790  0.00  0.00    +0.000 OA
ATOM     35  H   UNL     1      -2.507  12.952  18.130  0.00  0.00    +0.000 HD
ENDBRANCH  25  34
ENDBRANCH  24  25
ENDBRANCH   4  24
TORSDOF 9
ENDMDL
