MODEL 1
REMARK VINA RESULT:      -9.3      0.000      0.000
REMARK  Name = 
REMARK  3 active torsions:
REMARK  status: ('A' for Active; 'I' for Inactive)
REMARK    1  A    between atoms: N_22  and  C_23
REMARK    2  A    between atoms: C_23  and  C_24
REMARK    3  A    between atoms: C_24  and  C_25
REMARK                            x       y       z     vdW  Elec       q    Type
REMARK                         _______ _______ _______ _____ _____    ______ ____
ROOT
ATOM      1  O   UNL     1       4.335   2.845  16.953  0.00  0.00    +0.000 OA
ATOM      2  C   UNL     1       4.195   4.027  17.245  0.00  0.00    +0.000 C 
ATOM      3  C   UNL     1       3.478   4.655  18.313  0.00  0.00    +0.000 A 
ATOM      4  C   UNL     1       3.334   6.032  17.998  0.00  0.00    +0.000 A 
ATOM      5  C   UNL     1       2.557   6.779  18.941  0.00  0.00    +0.000 A 
ATOM      6  C   UNL     1       2.150   8.124  18.863  0.00  0.00    +0.000 A 
ATOM      7  C   UNL     1       2.209   9.221  17.976  0.00  0.00    +0.000 A 
ATOM      8  C   UNL     1       1.608  10.446  18.336  0.00  0.00    +0.000 A 
ATOM      9  C   UNL     1       0.961  10.607  19.559  0.00  0.00    +0.000 A 
ATOM     10  C   UNL     1       0.880   9.546  20.453  0.00  0.00    +0.000 A 
ATOM     11  C   UNL     1       1.468   8.331  20.078  0.00  0.00    +0.000 A 
ATOM     12  N   UNL     1       1.482   7.150  20.787  0.00  0.00    +0.000 N 
ATOM     13  C   UNL     1       2.131   6.158  20.093  0.00  0.00    +0.000 A 
ATOM     14  C   UNL     1       2.354   4.808  20.417  0.00  0.00    +0.000 A 
ATOM     15  C   UNL     1       1.934   4.237  21.635  0.00  0.00    +0.000 A 
ATOM     16  C   UNL     1       2.196   2.892  21.895  0.00  0.00    +0.000 A 
ATOM     17  C   UNL     1       2.859   2.113  20.948  0.00  0.00    +0.000 A 
ATOM     18  C   UNL     1       3.273   2.674  19.740  0.00  0.00    +0.000 A 
ATOM     19  C   UNL     1       3.029   4.022  19.474  0.00  0.00    +0.000 A 
ATOM     20  C   UNL     1       4.058   6.294  16.774  0.00  0.00    +0.000 C 
ATOM     21  O   UNL     1       4.149   7.292  16.069  0.00  0.00    +0.000 OA
ATOM     22  N   UNL     1       4.683   5.081  16.502  0.00  0.00    +0.000 N 
ATOM     23  H   UNL     1       1.046   7.028  21.688  0.00  0.00    +0.000 HD
ENDROOT
BRANCH  22  24
ATOM     24  C   UNL     1       5.539   4.758  15.361  0.00  0.00    +0.000 C 
BRANCH  24  25
ATOM     25  C   UNL     1       7.049   4.857  15.560  0.00  0.00    +0.000 C 
BRANCH  25  26
ATOM     26  C   UNL     1       7.450   5.551  16.815  0.00  0.00    +0.000 A 
ATOM     27  C   UNL     1       7.682   5.008  18.059  0.00  0.00    +0.000 A 
ATOM     28  N   UNL     1       7.969   6.070  18.876  0.00  0.00    +0.000 N 
ATOM     29  C   UNL     1       7.895   7.199  18.111  0.00  0.00    +0.000 A 
ATOM     30  N   UNL     1       7.595   6.915  16.864  0.00  0.00    +0.000 NA
ATOM     31  H   UNL     1       8.181   6.028  19.863  0.00  0.00    +0.000 HD
ENDBRANCH  25  26
ENDBRANCH  24  25
ENDBRANCH  22  24
TORSDOF 3
ENDMDL
MODEL 2
REMARK VINA RESULT:      -9.2      2.345      6.529
REMARK  Name = 
REMARK  3 active torsions:
REMARK  status: ('A' for Active; 'I' for Inactive)
REMARK    1  A    between atoms: N_22  and  C_23
REMARK    2  A    between atoms: C_23  and  C_24
REMARK    3  A    between atoms: C_24  and  C_25
REMARK                            x       y       z     vdW  Elec       q    Type
REMARK                         _______ _______ _______ _____ _____    ______ ____
ROOT
ATOM      1  O   UNL     1       1.421   7.549  21.062  0.00  0.00    +0.000 OA
ATOM      2  C   UNL     1       1.877   7.274  19.958  0.00  0.00    +0.000 C 
ATOM      3  C   UNL     1       2.535   6.096  19.478  0.00  0.00    +0.000 A 
ATOM      4  C   UNL     1       3.178   6.418  18.254  0.00  0.00    +0.000 A 
ATOM      5  C   UNL     1       3.953   5.353  17.692  0.00  0.00    +0.000 A 
ATOM      6  C   UNL     1       4.784   5.386  16.556  0.00  0.00    +0.000 A 
ATOM      7  C   UNL     1       5.261   6.300  15.593  0.00  0.00    +0.000 A 
ATOM      8  C   UNL     1       6.144   5.859  14.585  0.00  0.00    +0.000 A 
ATOM      9  C   UNL     1       6.553   4.530  14.508  0.00  0.00    +0.000 A 
ATOM     10  C   UNL     1       6.106   3.604  15.444  0.00  0.00    +0.000 A 
ATOM     11  C   UNL     1       5.242   4.058  16.448  0.00  0.00    +0.000 A 
ATOM     12  N   UNL     1       4.704   3.330  17.486  0.00  0.00    +0.000 N 
ATOM     13  C   UNL     1       3.917   4.115  18.292  0.00  0.00    +0.000 A 
ATOM     14  C   UNL     1       3.207   3.802  19.465  0.00  0.00    +0.000 A 
ATOM     15  C   UNL     1       3.170   2.504  20.010  0.00  0.00    +0.000 A 
ATOM     16  C   UNL     1       2.438   2.262  21.173  0.00  0.00    +0.000 A 
ATOM     17  C   UNL     1       1.758   3.304  21.800  0.00  0.00    +0.000 A 
ATOM     18  C   UNL     1       1.796   4.592  21.267  0.00  0.00    +0.000 A 
ATOM     19  C   UNL     1       2.513   4.844  20.096  0.00  0.00    +0.000 A 
ATOM     20  C   UNL     1       2.836   7.780  17.908  0.00  0.00    +0.000 C 
ATOM     21  O   UNL     1       3.216   8.521  17.010  0.00  0.00    +0.000 OA
ATOM     22  N   UNL     1       1.916   8.141  18.888  0.00  0.00    +0.000 N 
ATOM     23  H   UNL     1       4.889   2.351  17.643  0.00  0.00    +0.000 HD
ENDROOT
BRANCH  22  24
ATOM     24  C   UNL     1       1.245   9.430  19.045  0.00  0.00    +0.000 C 
BRANCH  24  25
ATOM     25  C   UNL     1       0.121   9.767  18.067  0.00  0.00    +0.000 C 
BRANCH  25  26
ATOM     26  C   UNL     1      -0.830  10.797  18.569  0.00  0.00    +0.000 A 
ATOM     27  C   UNL     1      -1.734  11.551  17.855  0.00  0.00    +0.000 A 
ATOM     28  N   UNL     1      -2.323  12.382  18.771  0.00  0.00    +0.000 N 
ATOM     29  C   UNL     1      -1.761  12.110  19.985  0.00  0.00    +0.000 A 
ATOM     30  N   UNL     1      -0.866  11.153  19.895  0.00  0.00    +0.000 NA
ATOM     31  H   UNL     1      -3.033  13.076  18.583  0.00  0.00    +0.000 HD
ENDBRANCH  25  26
ENDBRANCH  24  25
ENDBRANCH  22  24
TORSDOF 3
ENDMDL
MODEL 3
REMARK VINA RESULT:      -8.4      2.389      6.261
REMARK  Name = 
REMARK  3 active torsions:
REMARK  status: ('A' for Active; 'I' for Inactive)
REMARK    1  A    between atoms: N_22  and  C_23
REMARK    2  A    between atoms: C_23  and  C_24
REMARK    3  A    between atoms: C_24  and  C_25
REMARK                            x       y       z     vdW  Elec       q    Type
REMARK                         _______ _______ _______ _____ _____    ______ ____
ROOT
ATOM      1  O   UNL     1       1.353   7.264  21.266  0.00  0.00    +0.000 OA
ATOM      2  C   UNL     1       1.814   7.069  20.146  0.00  0.00    +0.000 C 
ATOM      3  C   UNL     1       2.414   5.907  19.564  0.00  0.00    +0.000 A 
ATOM      4  C   UNL     1       3.096   6.307  18.385  0.00  0.00    +0.000 A 
ATOM      5  C   UNL     1       3.821   5.258  17.734  0.00  0.00    +0.000 A 
ATOM      6  C   UNL     1       4.673   5.352  16.616  0.00  0.00    +0.000 A 
ATOM      7  C   UNL     1       5.217   6.324  15.751  0.00  0.00    +0.000 A 
ATOM      8  C   UNL     1       6.092   5.932  14.716  0.00  0.00    +0.000 A 
ATOM      9  C   UNL     1       6.430   4.595  14.518  0.00  0.00    +0.000 A 
ATOM     10  C   UNL     1       5.916   3.612  15.356  0.00  0.00    +0.000 A 
ATOM     11  C   UNL     1       5.060   4.016  16.387  0.00  0.00    +0.000 A 
ATOM     12  N   UNL     1       4.464   3.225  17.344  0.00  0.00    +0.000 N 
ATOM     13  C   UNL     1       3.708   3.973  18.212  0.00  0.00    +0.000 A 
ATOM     14  C   UNL     1       2.961   3.591  19.341  0.00  0.00    +0.000 A 
ATOM     15  C   UNL     1       2.842   2.250  19.759  0.00  0.00    +0.000 A 
ATOM     16  C   UNL     1       2.078   1.942  20.884  0.00  0.00    +0.000 A 
ATOM     17  C   UNL     1       1.445   2.956  21.599  0.00  0.00    +0.000 A 
ATOM     18  C   UNL     1       1.563   4.284  21.192  0.00  0.00    +0.000 A 
ATOM     19  C   UNL     1       2.314   4.606  20.059  0.00  0.00    +0.000 A 
ATOM     20  C   UNL     1       2.835   7.712  18.166  0.00  0.00    +0.000 C 
ATOM     21  O   UNL     1       3.271   8.512  17.347  0.00  0.00    +0.000 OA
ATOM     22  N   UNL     1       1.919   8.030  19.164  0.00  0.00    +0.000 N 
ATOM     23  H   UNL     1       4.593   2.226  17.410  0.00  0.00    +0.000 HD
ENDROOT
BRANCH  22  24
ATOM     24  C   UNL     1       1.316   9.335  19.435  0.00  0.00    +0.000 C 
BRANCH  24  25
ATOM     25  C   UNL     1       0.488   9.976  18.324  0.00  0.00    +0.000 C 
BRANCH  25  26
ATOM     26  C   UNL     1       0.377  11.457  18.430  0.00  0.00    +0.000 A 
ATOM     27  C   UNL     1       1.373  12.377  18.671  0.00  0.00    +0.000 A 
ATOM     28  N   UNL     1       0.745  13.593  18.725  0.00  0.00    +0.000 N 
ATOM     29  C   UNL     1      -0.587  13.369  18.524  0.00  0.00    +0.000 A 
ATOM     30  N   UNL     1      -0.835  12.093  18.334  0.00  0.00    +0.000 NA
ATOM     31  H   UNL     1       1.183  14.488  18.895  0.00  0.00    +0.000 HD
ENDBRANCH  25  26
ENDBRANCH  24  25
ENDBRANCH  22  24
TORSDOF 3
ENDMDL
MODEL 4
REMARK VINA RESULT:      -8.2      2.129      6.425
REMARK  Name = 
REMARK  3 active torsions:
REMARK  status: ('A' for Active; 'I' for Inactive)
REMARK    1  A    between atoms: N_22  and  C_23
REMARK    2  A    between atoms: C_23  and  C_24
REMARK    3  A    between atoms: C_24  and  C_25
REMARK                            x       y       z     vdW  Elec       q    Type
REMARK                         _______ _______ _______ _____ _____    ______ ____
ROOT
ATOM      1  O   UNL     1       1.348   7.437  21.141  0.00  0.00    +0.000 OA
ATOM      2  C   UNL     1       1.808   7.179  20.034  0.00  0.00    +0.000 C 
ATOM      3  C   UNL     1       2.531   6.039  19.558  0.00  0.00    +0.000 A 
ATOM      4  C   UNL     1       3.140   6.387  18.324  0.00  0.00    +0.000 A 
ATOM      5  C   UNL     1       3.973   5.366  17.763  0.00  0.00    +0.000 A 
ATOM      6  C   UNL     1       4.787   5.438  16.617  0.00  0.00    +0.000 A 
ATOM      7  C   UNL     1       5.196   6.370  15.639  0.00  0.00    +0.000 A 
ATOM      8  C   UNL     1       6.094   5.973  14.625  0.00  0.00    +0.000 A 
ATOM      9  C   UNL     1       6.583   4.671  14.557  0.00  0.00    +0.000 A 
ATOM     10  C   UNL     1       6.205   3.730  15.506  0.00  0.00    +0.000 A 
ATOM     11  C   UNL     1       5.325   4.140  16.516  0.00  0.00    +0.000 A 
ATOM     12  N   UNL     1       4.845   3.391  17.568  0.00  0.00    +0.000 N 
ATOM     13  C   UNL     1       4.020   4.135  18.376  0.00  0.00    +0.000 A 
ATOM     14  C   UNL     1       3.344   3.791  19.560  0.00  0.00    +0.000 A 
ATOM     15  C   UNL     1       3.393   2.498  20.118  0.00  0.00    +0.000 A 
ATOM     16  C   UNL     1       2.691   2.225  21.291  0.00  0.00    +0.000 A 
ATOM     17  C   UNL     1       1.955   3.229  21.917  0.00  0.00    +0.000 A 
ATOM     18  C   UNL     1       1.908   4.511  21.370  0.00  0.00    +0.000 A 
ATOM     19  C   UNL     1       2.594   4.795  20.188  0.00  0.00    +0.000 A 
ATOM     20  C   UNL     1       2.710   7.721  17.968  0.00  0.00    +0.000 C 
ATOM     21  O   UNL     1       3.033   8.475  17.058  0.00  0.00    +0.000 OA
ATOM     22  N   UNL     1       1.781   8.035  18.955  0.00  0.00    +0.000 N 
ATOM     23  H   UNL     1       5.092   2.427  17.732  0.00  0.00    +0.000 HD
ENDROOT
BRANCH  22  24
ATOM     24  C   UNL     1       1.033   9.283  19.107  0.00  0.00    +0.000 C 
BRANCH  24  25
ATOM     25  C   UNL     1       1.445  10.221  20.239  0.00  0.00    +0.000 C 
BRANCH  25  26
ATOM     26  C   UNL     1       0.303  10.728  21.050  0.00  0.00    +0.000 A 
ATOM     27  C   UNL     1      -0.755  11.511  20.646  0.00  0.00    +0.000 A 
ATOM     28  N   UNL     1      -1.493  11.742  21.777  0.00  0.00    +0.000 N 
ATOM     29  C   UNL     1      -0.863  11.107  22.808  0.00  0.00    +0.000 A 
ATOM     30  N   UNL     1       0.216  10.480  22.397  0.00  0.00    +0.000 NA
ATOM     31  H   UNL     1      -2.339  12.291  21.840  0.00  0.00    +0.000 HD
ENDBRANCH  25  26
ENDBRANCH  24  25
ENDBRANCH  22  24
TORSDOF 3
ENDMDL
MODEL 5
REMARK VINA RESULT:      -8.0      1.784      2.832
REMARK  Name = 
REMARK  3 active torsions:
REMARK  status: ('A' for Active; 'I' for Inactive)
REMARK    1  A    between atoms: N_22  and  C_23
REMARK    2  A    between atoms: C_23  and  C_24
REMARK    3  A    between atoms: C_24  and  C_25
REMARK                            x       y       z     vdW  Elec       q    Type
REMARK                         _______ _______ _______ _____ _____    ______ ____
ROOT
ATOM      1  O   UNL     1       4.856   2.832  16.988  0.00  0.00    +0.000 OA
ATOM      2  C   UNL     1       4.647   4.007  17.270  0.00  0.00    +0.000 C 
ATOM      3  C   UNL     1       3.834   4.600  18.289  0.00  0.00    +0.000 A 
ATOM      4  C   UNL     1       3.652   5.970  17.966  0.00  0.00    +0.000 A 
ATOM      5  C   UNL     1       2.784   6.680  18.857  0.00  0.00    +0.000 A 
ATOM      6  C   UNL     1       2.325   8.007  18.752  0.00  0.00    +0.000 A 
ATOM      7  C   UNL     1       2.395   9.107  17.872  0.00  0.00    +0.000 A 
ATOM      8  C   UNL     1       1.720  10.305  18.192  0.00  0.00    +0.000 A 
ATOM      9  C   UNL     1       0.987  10.433  19.370  0.00  0.00    +0.000 A 
ATOM     10  C   UNL     1       0.893   9.366  20.256  0.00  0.00    +0.000 A 
ATOM     11  C   UNL     1       1.555   8.179  19.919  0.00  0.00    +0.000 A 
ATOM     12  N   UNL     1       1.573   6.998  20.627  0.00  0.00    +0.000 N 
ATOM     13  C   UNL     1       2.309   6.037  19.977  0.00  0.00    +0.000 A 
ATOM     14  C   UNL     1       2.568   4.697  20.315  0.00  0.00    +0.000 A 
ATOM     15  C   UNL     1       2.093   4.104  21.501  0.00  0.00    +0.000 A 
ATOM     16  C   UNL     1       2.395   2.771  21.777  0.00  0.00    +0.000 A 
ATOM     17  C   UNL     1       3.152   2.024  20.876  0.00  0.00    +0.000 A 
ATOM     18  C   UNL     1       3.620   2.606  19.698  0.00  0.00    +0.000 A 
ATOM     19  C   UNL     1       3.337   3.943  19.417  0.00  0.00    +0.000 A 
ATOM     20  C   UNL     1       4.444   6.267  16.793  0.00  0.00    +0.000 C 
ATOM     21  O   UNL     1       4.538   7.270  16.097  0.00  0.00    +0.000 OA
ATOM     22  N   UNL     1       5.137   5.083  16.563  0.00  0.00    +0.000 N 
ATOM     23  H   UNL     1       1.085   6.854  21.498  0.00  0.00    +0.000 HD
ENDROOT
BRANCH  22  24
ATOM     24  C   UNL     1       6.080   4.801  15.481  0.00  0.00    +0.000 C 
BRANCH  24  25
ATOM     25  C   UNL     1       5.634   5.115  14.055  0.00  0.00    +0.000 C 
BRANCH  25  26
ATOM     26  C   UNL     1       5.874   4.007  13.088  0.00  0.00    +0.000 A 
ATOM     27  C   UNL     1       7.074   3.518  12.625  0.00  0.00    +0.000 A 
ATOM     28  N   UNL     1       6.748   2.542  11.720  0.00  0.00    +0.000 N 
ATOM     29  C   UNL     1       5.385   2.482  11.664  0.00  0.00    +0.000 A 
ATOM     30  N   UNL     1       4.833   3.345  12.486  0.00  0.00    +0.000 NA
ATOM     31  H   UNL     1       7.395   1.982  11.182  0.00  0.00    +0.000 HD
ENDBRANCH  25  26
ENDBRANCH  24  25
ENDBRANCH  22  24
TORSDOF 3
ENDMDL
MODEL 6
REMARK VINA RESULT:      -8.0      2.370      5.948
REMARK  Name = 
REMARK  3 active torsions:
REMARK  status: ('A' for Active; 'I' for Inactive)
REMARK    1  A    between atoms: N_22  and  C_23
REMARK    2  A    between atoms: C_23  and  C_24
REMARK    3  A    between atoms: C_24  and  C_25
REMARK                            x       y       z     vdW  Elec       q    Type
REMARK                         _______ _______ _______ _____ _____    ______ ____
ROOT
ATOM      1  O   UNL     1       1.354   7.503  21.090  0.00  0.00    +0.000 OA
ATOM      2  C   UNL     1       1.814   7.230  19.987  0.00  0.00    +0.000 C 
ATOM      3  C   UNL     1       2.556   6.093  19.532  0.00  0.00    +0.000 A 
ATOM      4  C   UNL     1       3.154   6.425  18.288  0.00  0.00    +0.000 A 
ATOM      5  C   UNL     1       4.002   5.407  17.746  0.00  0.00    +0.000 A 
ATOM      6  C   UNL     1       4.811   5.469  16.595  0.00  0.00    +0.000 A 
ATOM      7  C   UNL     1       5.200   6.386  15.596  0.00  0.00    +0.000 A 
ATOM      8  C   UNL     1       6.100   5.984  14.587  0.00  0.00    +0.000 A 
ATOM      9  C   UNL     1       6.612   4.690  14.544  0.00  0.00    +0.000 A 
ATOM     10  C   UNL     1       6.254   3.762  15.516  0.00  0.00    +0.000 A 
ATOM     11  C   UNL     1       5.372   4.178  16.520  0.00  0.00    +0.000 A 
ATOM     12  N   UNL     1       4.909   3.444  17.590  0.00  0.00    +0.000 N 
ATOM     13  C   UNL     1       4.075   4.190  18.385  0.00  0.00    +0.000 A 
ATOM     14  C   UNL     1       3.410   3.860  19.579  0.00  0.00    +0.000 A 
ATOM     15  C   UNL     1       3.484   2.581  20.165  0.00  0.00    +0.000 A 
ATOM     16  C   UNL     1       2.791   2.320  21.347  0.00  0.00    +0.000 A 
ATOM     17  C   UNL     1       2.040   3.325  21.953  0.00  0.00    +0.000 A 
ATOM     18  C   UNL     1       1.967   4.594  21.380  0.00  0.00    +0.000 A 
ATOM     19  C   UNL     1       2.644   4.864  20.189  0.00  0.00    +0.000 A 
ATOM     20  C   UNL     1       2.699   7.743  17.906  0.00  0.00    +0.000 C 
ATOM     21  O   UNL     1       3.005   8.483  16.979  0.00  0.00    +0.000 OA
ATOM     22  N   UNL     1       1.768   8.062  18.890  0.00  0.00    +0.000 N 
ATOM     23  H   UNL     1       5.174   2.488  17.774  0.00  0.00    +0.000 HD
ENDROOT
BRANCH  22  24
ATOM     24  C   UNL     1       0.998   9.299  19.019  0.00  0.00    +0.000 C 
BRANCH  24  25
ATOM     25  C   UNL     1       1.611  10.431  19.839  0.00  0.00    +0.000 C 
BRANCH  25  26
ATOM     26  C   UNL     1       1.852  11.679  19.062  0.00  0.00    +0.000 A 
ATOM     27  C   UNL     1       2.414  11.817  17.813  0.00  0.00    +0.000 A 
ATOM     28  N   UNL     1       2.457  13.166  17.576  0.00  0.00    +0.000 N 
ATOM     29  C   UNL     1       1.935  13.786  18.675  0.00  0.00    +0.000 A 
ATOM     30  N   UNL     1       1.553  12.914  19.580  0.00  0.00    +0.000 NA
ATOM     31  H   UNL     1       2.821  13.619  16.749  0.00  0.00    +0.000 HD
ENDBRANCH  25  26
ENDBRANCH  24  25
ENDBRANCH  22  24
TORSDOF 3
ENDMDL
MODEL 7
REMARK VINA RESULT:      -8.0      1.641      2.405
REMARK  Name = 
REMARK  3 active torsions:
REMARK  status: ('A' for Active; 'I' for Inactive)
REMARK    1  A    between atoms: N_22  and  C_23
REMARK    2  A    between atoms: C_23  and  C_24
REMARK    3  A    between atoms: C_24  and  C_25
REMARK                            x       y       z     vdW  Elec       q    Type
REMARK                         _______ _______ _______ _____ _____    ______ ____
ROOT
ATOM      1  O   UNL     1       4.449   3.953  16.727  0.00  0.00    +0.000 OA
ATOM      2  C   UNL     1       4.155   5.010  17.275  0.00  0.00    +0.000 C 
ATOM      3  C   UNL     1       3.406   5.277  18.466  0.00  0.00    +0.000 A 
ATOM      4  C   UNL     1       3.050   6.651  18.464  0.00  0.00    +0.000 A 
ATOM      5  C   UNL     1       2.220   7.050  19.561  0.00  0.00    +0.000 A 
ATOM      6  C   UNL     1       1.619   8.303  19.787  0.00  0.00    +0.000 A 
ATOM      7  C   UNL     1       1.476   9.561  19.164  0.00  0.00    +0.000 A 
ATOM      8  C   UNL     1       0.723  10.575  19.794  0.00  0.00    +0.000 A 
ATOM      9  C   UNL     1       0.120  10.368  21.032  0.00  0.00    +0.000 A 
ATOM     10  C   UNL     1       0.236   9.139  21.671  0.00  0.00    +0.000 A 
ATOM     11  C   UNL     1       0.974   8.137  21.029  0.00  0.00    +0.000 A 
ATOM     12  N   UNL     1       1.192   6.847  21.459  0.00  0.00    +0.000 N 
ATOM     13  C   UNL     1       1.944   6.139  20.554  0.00  0.00    +0.000 A 
ATOM     14  C   UNL     1       2.375   4.800  20.569  0.00  0.00    +0.000 A 
ATOM     15  C   UNL     1       2.101   3.923  21.637  0.00  0.00    +0.000 A 
ATOM     16  C   UNL     1       2.566   2.609  21.590  0.00  0.00    +0.000 A 
ATOM     17  C   UNL     1       3.288   2.162  20.485  0.00  0.00    +0.000 A 
ATOM     18  C   UNL     1       3.559   3.026  19.424  0.00  0.00    +0.000 A 
ATOM     19  C   UNL     1       3.110   4.347  19.465  0.00  0.00    +0.000 A 
ATOM     20  C   UNL     1       3.669   7.277  17.318  0.00  0.00    +0.000 C 
ATOM     21  O   UNL     1       3.580   8.406  16.849  0.00  0.00    +0.000 OA
ATOM     22  N   UNL     1       4.448   6.261  16.776  0.00  0.00    +0.000 N 
ATOM     23  H   UNL     1       0.823   6.469  22.318  0.00  0.00    +0.000 HD
ENDROOT
BRANCH  22  24
ATOM     24  C   UNL     1       5.286   6.324  15.579  0.00  0.00    +0.000 C 
BRANCH  24  25
ATOM     25  C   UNL     1       6.478   5.373  15.498  0.00  0.00    +0.000 C 
BRANCH  25  26
ATOM     26  C   UNL     1       6.671   4.759  14.155  0.00  0.00    +0.000 A 
ATOM     27  C   UNL     1       6.094   3.619  13.642  0.00  0.00    +0.000 A 
ATOM     28  N   UNL     1       6.641   3.459  12.396  0.00  0.00    +0.000 N 
ATOM     29  C   UNL     1       7.519   4.487  12.205  0.00  0.00    +0.000 A 
ATOM     30  N   UNL     1       7.549   5.290  13.244  0.00  0.00    +0.000 NA
ATOM     31  H   UNL     1       6.442   2.712  11.745  0.00  0.00    +0.000 HD
ENDBRANCH  25  26
ENDBRANCH  24  25
ENDBRANCH  22  24
TORSDOF 3
ENDMDL
MODEL 8
REMARK VINA RESULT:      -7.9      1.679      2.404
REMARK  Name = 
REMARK  3 active torsions:
REMARK  status: ('A' for Active; 'I' for Inactive)
REMARK    1  A    between atoms: N_22  and  C_23
REMARK    2  A    between atoms: C_23  and  C_24
REMARK    3  A    between atoms: C_24  and  C_25
REMARK                            x       y       z     vdW  Elec       q    Type
REMARK                         _______ _______ _______ _____ _____    ______ ____
ROOT
ATOM      1  O   UNL     1       4.661   2.495  17.460  0.00  0.00    +0.000 OA
ATOM      2  C   UNL     1       4.509   3.694  17.667  0.00  0.00    +0.000 C 
ATOM      3  C   UNL     1       3.664   4.391  18.590  0.00  0.00    +0.000 A 
ATOM      4  C   UNL     1       3.596   5.750  18.185  0.00  0.00    +0.000 A 
ATOM      5  C   UNL     1       2.714   6.560  18.970  0.00  0.00    +0.000 A 
ATOM      6  C   UNL     1       2.351   7.905  18.764  0.00  0.00    +0.000 A 
ATOM      7  C   UNL     1       2.557   8.949  17.838  0.00  0.00    +0.000 A 
ATOM      8  C   UNL     1       1.940  10.201  18.045  0.00  0.00    +0.000 A 
ATOM      9  C   UNL     1       1.134  10.439  19.155  0.00  0.00    +0.000 A 
ATOM     10  C   UNL     1       0.906   9.431  20.085  0.00  0.00    +0.000 A 
ATOM     11  C   UNL     1       1.512   8.188  19.860  0.00  0.00    +0.000 A 
ATOM     12  N   UNL     1       1.402   7.048  20.625  0.00  0.00    +0.000 N 
ATOM     13  C   UNL     1       2.119   6.011  20.083  0.00  0.00    +0.000 A 
ATOM     14  C   UNL     1       2.264   4.678  20.506  0.00  0.00    +0.000 A 
ATOM     15  C   UNL     1       1.667   4.181  21.681  0.00  0.00    +0.000 A 
ATOM     16  C   UNL     1       1.860   2.849  22.046  0.00  0.00    +0.000 A 
ATOM     17  C   UNL     1       2.630   2.009  21.244  0.00  0.00    +0.000 A 
ATOM     18  C   UNL     1       3.220   2.495  20.078  0.00  0.00    +0.000 A 
ATOM     19  C   UNL     1       3.046   3.830  19.709  0.00  0.00    +0.000 A 
ATOM     20  C   UNL     1       4.489   5.933  17.062  0.00  0.00    +0.000 C 
ATOM     21  O   UNL     1       4.699   6.888  16.325  0.00  0.00    +0.000 OA
ATOM     22  N   UNL     1       5.118   4.698  16.945  0.00  0.00    +0.000 N 
ATOM     23  H   UNL     1       0.843   6.984  21.463  0.00  0.00    +0.000 HD
ENDROOT
BRANCH  22  24
ATOM     24  C   UNL     1       6.116   4.299  15.954  0.00  0.00    +0.000 C 
BRANCH  24  25
ATOM     25  C   UNL     1       5.611   3.811  14.598  0.00  0.00    +0.000 C 
BRANCH  25  26
ATOM     26  C   UNL     1       6.458   4.234  13.448  0.00  0.00    +0.000 A 
ATOM     27  C   UNL     1       6.553   3.667  12.197  0.00  0.00    +0.000 A 
ATOM     28  N   UNL     1       7.505   4.396  11.535  0.00  0.00    +0.000 N 
ATOM     29  C   UNL     1       7.950   5.357  12.396  0.00  0.00    +0.000 A 
ATOM     30  N   UNL     1       7.329   5.290  13.552  0.00  0.00    +0.000 NA
ATOM     31  H   UNL     1       7.829   4.242  10.590  0.00  0.00    +0.000 HD
ENDBRANCH  25  26
ENDBRANCH  24  25
ENDBRANCH  22  24
TORSDOF 3
ENDMDL
MODEL 9
REMARK VINA RESULT:      -7.8      4.344      7.686
REMARK  Name = 
REMARK  3 active torsions:
REMARK  status: ('A' for Active; 'I' for Inactive)
REMARK    1  A    between atoms: N_22  and  C_23
REMARK    2  A    between atoms: C_23  and  C_24
REMARK    3  A    between atoms: C_24  and  C_25
REMARK                            x       y       z     vdW  Elec       q    Type
REMARK                         _______ _______ _______ _____ _____    ______ ____
ROOT
ATOM      1  O   UNL     1       0.697   9.125  17.761  0.00  0.00    +0.000 OA
ATOM      2  C   UNL     1       0.211   9.634  18.765  0.00  0.00    +0.000 C 
ATOM      3  C   UNL     1      -0.924  10.491  18.931  0.00  0.00    +0.000 A 
ATOM      4  C   UNL     1      -0.845  11.083  20.219  0.00  0.00    +0.000 A 
ATOM      5  C   UNL     1      -1.876  12.037  20.498  0.00  0.00    +0.000 A 
ATOM      6  C   UNL     1      -2.016  12.863  21.630  0.00  0.00    +0.000 A 
ATOM      7  C   UNL     1      -1.333  13.187  22.821  0.00  0.00    +0.000 A 
ATOM      8  C   UNL     1      -1.877  14.144  23.703  0.00  0.00    +0.000 A 
ATOM      9  C   UNL     1      -3.087  14.778  23.431  0.00  0.00    +0.000 A 
ATOM     10  C   UNL     1      -3.783  14.487  22.263  0.00  0.00    +0.000 A 
ATOM     11  C   UNL     1      -3.225  13.545  21.390  0.00  0.00    +0.000 A 
ATOM     12  N   UNL     1      -3.721  13.129  20.174  0.00  0.00    +0.000 N 
ATOM     13  C   UNL     1      -2.890  12.209  19.583  0.00  0.00    +0.000 A 
ATOM     14  C   UNL     1      -2.985  11.551  18.344  0.00  0.00    +0.000 A 
ATOM     15  C   UNL     1      -4.072  11.732  17.466  0.00  0.00    +0.000 A 
ATOM     16  C   UNL     1      -4.106  11.039  16.256  0.00  0.00    +0.000 A 
ATOM     17  C   UNL     1      -3.062  10.183  15.911  0.00  0.00    +0.000 A 
ATOM     18  C   UNL     1      -1.983  10.004  16.775  0.00  0.00    +0.000 A 
ATOM     19  C   UNL     1      -1.943  10.680  17.996  0.00  0.00    +0.000 A 
ATOM     20  C   UNL     1       0.291  10.515  20.909  0.00  0.00    +0.000 C 
ATOM     21  O   UNL     1       0.811  10.771  21.988  0.00  0.00    +0.000 OA
ATOM     22  N   UNL     1       0.745   9.536  20.032  0.00  0.00    +0.000 N 
ATOM     23  H   UNL     1      -4.573  13.479  19.763  0.00  0.00    +0.000 HD
ENDROOT
BRANCH  22  24
ATOM     24  C   UNL     1       1.896   8.649  20.207  0.00  0.00    +0.000 C 
BRANCH  24  25
ATOM     25  C   UNL     1       1.631   7.243  20.740  0.00  0.00    +0.000 C 
BRANCH  25  26
ATOM     26  C   UNL     1       2.244   6.161  19.921  0.00  0.00    +0.000 A 
ATOM     27  C   UNL     1       2.536   4.867  20.291  0.00  0.00    +0.000 A 
ATOM     28  N   UNL     1       3.136   4.299  19.197  0.00  0.00    +0.000 N 
ATOM     29  C   UNL     1       3.190   5.255  18.224  0.00  0.00    +0.000 A 
ATOM     30  N   UNL     1       2.651   6.383  18.629  0.00  0.00    +0.000 NA
ATOM     31  H   UNL     1       3.486   3.354  19.128  0.00  0.00    +0.000 HD
ENDBRANCH  25  26
ENDBRANCH  24  25
ENDBRANCH  22  24
TORSDOF 3
ENDMDL
