MODEL 1
REMARK VINA RESULT:      -8.3      0.000      0.000
REMARK  Name = 
REMARK  9 active torsions:
REMARK  status: ('A' for Active; 'I' for Inactive)
REMARK    1  A    between atoms: C_1  and  O_2
REMARK    2  A    between atoms: O_2  and  C_3
REMARK    3  A    between atoms: C_8  and  N_9
REMARK    4  A    between atoms: C_10  and  C_12
REMARK    5  A    between atoms: C_13  and  N_14
REMARK    6  A    between atoms: C_18  and  S_19
REMARK    7  A    between atoms: S_19  and  C_22
REMARK    8  A    between atoms: C_25  and  C_26
REMARK    9  A    between atoms: C_26  and  O_28
REMARK                            x       y       z     vdW  Elec       q    Type
REMARK                         _______ _______ _______ _____ _____    ______ ____
ROOT
ATOM      1  C   UNL     1       3.060   4.663  19.523  0.00  0.00    +0.000 A 
ATOM      2  C   UNL     1       2.206   3.806  20.310  0.00  0.00    +0.000 A 
ATOM      3  C   UNL     1       2.629   2.521  20.705  0.00  0.00    +0.000 A 
ATOM      4  C   UNL     1       3.879   2.051  20.366  0.00  0.00    +0.000 A 
ATOM      5  C   UNL     1       4.727   2.866  19.628  0.00  0.00    +0.000 A 
ATOM      6  C   UNL     1       4.338   4.164  19.206  0.00  0.00    +0.000 A 
ENDROOT
BRANCH   1   8
ATOM      7  N   UNL     1       2.565   7.148  19.878  0.00  0.00    +0.000 N 
ATOM      8  C   UNL     1       2.453   5.989  19.123  0.00  0.00    +0.000 C 
ATOM      9  O   UNL     1       1.830   6.010  18.055  0.00  0.00    +0.000 OA
ATOM     10  H   UNL     1       3.202   7.266  20.657  0.00  0.00    +0.000 HD
BRANCH   7  16
ATOM     11  C   UNL     1       0.989   8.970  20.448  0.00  0.00    +0.000 A 
ATOM     12  C   UNL     1       0.401  10.187  20.070  0.00  0.00    +0.000 A 
ATOM     13  C   UNL     1       0.528  10.677  18.769  0.00  0.00    +0.000 A 
ATOM     14  C   UNL     1       1.269   9.971  17.832  0.00  0.00    +0.000 A 
ATOM     15  C   UNL     1       1.933   8.810  18.217  0.00  0.00    +0.000 A 
ATOM     16  C   UNL     1       1.822   8.313  19.526  0.00  0.00    +0.000 A 
BRANCH  11  18
ATOM     17  C   UNL     1       0.334   9.273  22.714  0.00  0.00    +0.000 C 
ATOM     18  O   UNL     1       0.844   8.412  21.693  0.00  0.00    +0.000 OA
ENDBRANCH  11  18
ENDBRANCH   7  16
ENDBRANCH   1   8
BRANCH   2  19
ATOM     19  N   UNL     1       0.863   4.098  20.625  0.00  0.00    +0.000 N 
ATOM     20  H   UNL     1       0.187   3.476  20.165  0.00  0.00    +0.000 HD
ATOM     21  H   UNL     1       0.599   5.071  20.621  0.00  0.00    +0.000 HD
ENDBRANCH   2  19
BRANCH   6  22
ATOM     22  S   UNL     1       5.652   5.118  18.497  0.00  0.00    +0.000 S 
ATOM     23  O   UNL     1       5.170   6.487  18.500  0.00  0.00    +0.000 OA
ATOM     24  O   UNL     1       6.867   4.787  19.221  0.00  0.00    +0.000 OA
BRANCH  22  25
ATOM     25  C   UNL     1       6.058   4.748  16.816  0.00  0.00    +0.000 A 
ATOM     26  C   UNL     1       5.081   4.039  16.105  0.00  0.00    +0.000 A 
ATOM     27  C   UNL     1       5.262   3.768  14.752  0.00  0.00    +0.000 A 
ATOM     28  C   UNL     1       6.433   4.168  14.099  0.00  0.00    +0.000 A 
ATOM     29  C   UNL     1       7.423   4.851  14.832  0.00  0.00    +0.000 A 
ATOM     30  C   UNL     1       7.232   5.158  16.192  0.00  0.00    +0.000 A 
BRANCH  28  31
ATOM     31  C   UNL     1       6.553   3.780  12.664  0.00  0.00    +0.000 C 
ATOM     32  O   UNL     1       7.210   4.428  11.866  0.00  0.00    +0.000 OA
BRANCH  31  33
ATOM     33  O   UNL     1       5.899   2.655  12.305  0.00  0.00    +0.000 OA
ATOM     34  H   UNL     1       6.360   1.816  12.463  0.00  0.00    +0.000 HD
ENDBRANCH  31  33
ENDBRANCH  28  31
ENDBRANCH  22  25
ENDBRANCH   6  22
TORSDOF 8
ENDMDL
MODEL 2
REMARK VINA RESULT:      -8.1      4.581      7.950
REMARK  Name = 
REMARK  9 active torsions:
REMARK  status: ('A' for Active; 'I' for Inactive)
REMARK    1  A    between atoms: C_1  and  O_2
REMARK    2  A    between atoms: O_2  and  C_3
REMARK    3  A    between atoms: C_8  and  N_9
REMARK    4  A    between atoms: C_10  and  C_12
REMARK    5  A    between atoms: C_13  and  N_14
REMARK    6  A    between atoms: C_18  and  S_19
REMARK    7  A    between atoms: S_19  and  C_22
REMARK    8  A    between atoms: C_25  and  C_26
REMARK    9  A    between atoms: C_26  and  O_28
REMARK                            x       y       z     vdW  Elec       q    Type
REMARK                         _______ _______ _______ _____ _____    ______ ____
ROOT
ATOM      1  C   UNL     1      -2.132  11.609  19.271  0.00  0.00    +0.000 A 
ATOM      2  C   UNL     1      -3.331  11.537  18.473  0.00  0.00    +0.000 A 
ATOM      3  C   UNL     1      -3.391  10.730  17.319  0.00  0.00    +0.000 A 
ATOM      4  C   UNL     1      -2.308   9.972  16.928  0.00  0.00    +0.000 A 
ATOM      5  C   UNL     1      -1.150  10.007  17.693  0.00  0.00    +0.000 A 
ATOM      6  C   UNL     1      -1.048  10.811  18.859  0.00  0.00    +0.000 A 
ENDROOT
BRANCH   1   8
ATOM      7  N   UNL     1      -2.062  12.159  21.769  0.00  0.00    +0.000 N 
ATOM      8  C   UNL     1      -2.192  12.559  20.447  0.00  0.00    +0.000 C 
ATOM      9  O   UNL     1      -2.366  13.754  20.181  0.00  0.00    +0.000 OA
ATOM     10  H   UNL     1      -1.737  11.245  22.063  0.00  0.00    +0.000 HD
BRANCH   7  16
ATOM     11  C   UNL     1      -3.566  13.201  23.437  0.00  0.00    +0.000 A 
ATOM     12  C   UNL     1      -3.691  14.028  24.564  0.00  0.00    +0.000 A 
ATOM     13  C   UNL     1      -2.626  14.819  25.000  0.00  0.00    +0.000 A 
ATOM     14  C   UNL     1      -1.410  14.773  24.334  0.00  0.00    +0.000 A 
ATOM     15  C   UNL     1      -1.245  13.889  23.270  0.00  0.00    +0.000 A 
ATOM     16  C   UNL     1      -2.304  13.081  22.829  0.00  0.00    +0.000 A 
BRANCH  11  18
ATOM     17  C   UNL     1      -5.577  13.164  22.168  0.00  0.00    +0.000 C 
ATOM     18  O   UNL     1      -4.598  12.453  22.928  0.00  0.00    +0.000 OA
ENDBRANCH  11  18
ENDBRANCH   7  16
ENDBRANCH   1   8
BRANCH   2  19
ATOM     19  N   UNL     1      -4.469  12.346  18.676  0.00  0.00    +0.000 N 
ATOM     20  H   UNL     1      -5.067  12.432  17.845  0.00  0.00    +0.000 HD
ATOM     21  H   UNL     1      -4.325  13.210  19.175  0.00  0.00    +0.000 HD
ENDBRANCH   2  19
BRANCH   6  22
ATOM     22  S   UNL     1       0.417  10.518  19.811  0.00  0.00    +0.000 S 
ATOM     23  O   UNL     1       1.220  11.716  19.651  0.00  0.00    +0.000 OA
ATOM     24  O   UNL     1      -0.004  10.113  21.141  0.00  0.00    +0.000 OA
BRANCH  22  25
ATOM     25  C   UNL     1       1.434   9.175  19.274  0.00  0.00    +0.000 A 
ATOM     26  C   UNL     1       1.557   8.114  20.181  0.00  0.00    +0.000 A 
ATOM     27  C   UNL     1       2.265   6.969  19.825  0.00  0.00    +0.000 A 
ATOM     28  C   UNL     1       2.891   6.883  18.577  0.00  0.00    +0.000 A 
ATOM     29  C   UNL     1       2.790   7.969  17.687  0.00  0.00    +0.000 A 
ATOM     30  C   UNL     1       2.047   9.115  18.026  0.00  0.00    +0.000 A 
BRANCH  28  31
ATOM     31  C   UNL     1       3.672   5.638  18.318  0.00  0.00    +0.000 C 
ATOM     32  O   UNL     1       3.387   4.867  17.416  0.00  0.00    +0.000 OA
BRANCH  31  33
ATOM     33  O   UNL     1       4.725   5.425  19.134  0.00  0.00    +0.000 OA
ATOM     34  H   UNL     1       4.521   5.226  20.062  0.00  0.00    +0.000 HD
ENDBRANCH  31  33
ENDBRANCH  28  31
ENDBRANCH  22  25
ENDBRANCH   6  22
TORSDOF 8
ENDMDL
MODEL 3
REMARK VINA RESULT:      -8.0      4.401      7.851
REMARK  Name = 
REMARK  9 active torsions:
REMARK  status: ('A' for Active; 'I' for Inactive)
REMARK    1  A    between atoms: C_1  and  O_2
REMARK    2  A    between atoms: O_2  and  C_3
REMARK    3  A    between atoms: C_8  and  N_9
REMARK    4  A    between atoms: C_10  and  C_12
REMARK    5  A    between atoms: C_13  and  N_14
REMARK    6  A    between atoms: C_18  and  S_19
REMARK    7  A    between atoms: S_19  and  C_22
REMARK    8  A    between atoms: C_25  and  C_26
REMARK    9  A    between atoms: C_26  and  O_28
REMARK                            x       y       z     vdW  Elec       q    Type
REMARK                         _______ _______ _______ _____ _____    ______ ____
ROOT
ATOM      1  C   UNL     1      -2.067  11.582  19.333  0.00  0.00    +0.000 A 
ATOM      2  C   UNL     1      -3.281  11.518  18.557  0.00  0.00    +0.000 A 
ATOM      3  C   UNL     1      -3.358  10.734  17.388  0.00  0.00    +0.000 A 
ATOM      4  C   UNL     1      -2.278   9.992  16.961  0.00  0.00    +0.000 A 
ATOM      5  C   UNL     1      -1.106  10.019  17.704  0.00  0.00    +0.000 A 
ATOM      6  C   UNL     1      -0.986  10.800  18.884  0.00  0.00    +0.000 A 
ENDROOT
BRANCH   1   8
ATOM      7  N   UNL     1      -1.942  12.083  21.839  0.00  0.00    +0.000 N 
ATOM      8  C   UNL     1      -2.111  12.508  20.529  0.00  0.00    +0.000 C 
ATOM      9  O   UNL     1      -2.309  13.705  20.292  0.00  0.00    +0.000 OA
ATOM     10  H   UNL     1      -1.596  11.170  22.107  0.00  0.00    +0.000 HD
BRANCH   7  16
ATOM     11  C   UNL     1      -1.188  13.889  23.356  0.00  0.00    +0.000 A 
ATOM     12  C   UNL     1      -1.533  14.834  24.334  0.00  0.00    +0.000 A 
ATOM     13  C   UNL     1      -2.780  14.799  24.964  0.00  0.00    +0.000 A 
ATOM     14  C   UNL     1      -3.711  13.835  24.604  0.00  0.00    +0.000 A 
ATOM     15  C   UNL     1      -3.416  12.949  23.571  0.00  0.00    +0.000 A 
ATOM     16  C   UNL     1      -2.170  12.981  22.924  0.00  0.00    +0.000 A 
BRANCH  11  18
ATOM     17  C   UNL     1       0.552  15.077  22.254  0.00  0.00    +0.000 C 
ATOM     18  O   UNL     1       0.043  13.838  22.753  0.00  0.00    +0.000 OA
ENDBRANCH  11  18
ENDBRANCH   7  16
ENDBRANCH   1   8
BRANCH   2  19
ATOM     19  N   UNL     1      -4.420  12.315  18.798  0.00  0.00    +0.000 N 
ATOM     20  H   UNL     1      -4.616  12.991  18.049  0.00  0.00    +0.000 HD
ATOM     21  H   UNL     1      -4.522  12.687  19.730  0.00  0.00    +0.000 HD
ENDBRANCH   2  19
BRANCH   6  22
ATOM     22  S   UNL     1       0.498  10.497  19.803  0.00  0.00    +0.000 S 
ATOM     23  O   UNL     1       1.310  11.685  19.612  0.00  0.00    +0.000 OA
ATOM     24  O   UNL     1       0.105  10.109  21.146  0.00  0.00    +0.000 OA
BRANCH  22  25
ATOM     25  C   UNL     1       1.486   9.138  19.252  0.00  0.00    +0.000 A 
ATOM     26  C   UNL     1       1.586   8.067  20.149  0.00  0.00    +0.000 A 
ATOM     27  C   UNL     1       2.270   6.910  19.782  0.00  0.00    +0.000 A 
ATOM     28  C   UNL     1       2.893   6.822  18.532  0.00  0.00    +0.000 A 
ATOM     29  C   UNL     1       2.815   7.918  17.652  0.00  0.00    +0.000 A 
ATOM     30  C   UNL     1       2.097   9.077  18.003  0.00  0.00    +0.000 A 
BRANCH  28  31
ATOM     31  C   UNL     1       3.647   5.564  18.261  0.00  0.00    +0.000 C 
ATOM     32  O   UNL     1       3.301   4.770  17.401  0.00  0.00    +0.000 OA
BRANCH  31  33
ATOM     33  O   UNL     1       4.747   5.364  19.016  0.00  0.00    +0.000 OA
ATOM     34  H   UNL     1       4.781   5.832  19.866  0.00  0.00    +0.000 HD
ENDBRANCH  31  33
ENDBRANCH  28  31
ENDBRANCH  22  25
ENDBRANCH   6  22
TORSDOF 8
ENDMDL
MODEL 4
REMARK VINA RESULT:      -7.8      4.443      7.854
REMARK  Name = 
REMARK  9 active torsions:
REMARK  status: ('A' for Active; 'I' for Inactive)
REMARK    1  A    between atoms: C_1  and  O_2
REMARK    2  A    between atoms: O_2  and  C_3
REMARK    3  A    between atoms: C_8  and  N_9
REMARK    4  A    between atoms: C_10  and  C_12
REMARK    5  A    between atoms: C_13  and  N_14
REMARK    6  A    between atoms: C_18  and  S_19
REMARK    7  A    between atoms: S_19  and  C_22
REMARK    8  A    between atoms: C_25  and  C_26
REMARK    9  A    between atoms: C_26  and  O_28
REMARK                            x       y       z     vdW  Elec       q    Type
REMARK                         _______ _______ _______ _____ _____    ______ ____
ROOT
ATOM      1  C   UNL     1      -2.116  11.623  19.262  0.00  0.00    +0.000 A 
ATOM      2  C   UNL     1      -3.363  11.513  18.545  0.00  0.00    +0.000 A 
ATOM      3  C   UNL     1      -3.469  10.721  17.385  0.00  0.00    +0.000 A 
ATOM      4  C   UNL     1      -2.385  10.014  16.908  0.00  0.00    +0.000 A 
ATOM      5  C   UNL     1      -1.180  10.086  17.594  0.00  0.00    +0.000 A 
ATOM      6  C   UNL     1      -1.031  10.877  18.764  0.00  0.00    +0.000 A 
ENDROOT
BRANCH   1   8
ATOM      7  N   UNL     1      -1.988  12.126  21.768  0.00  0.00    +0.000 N 
ATOM      8  C   UNL     1      -2.136  12.553  20.455  0.00  0.00    +0.000 C 
ATOM      9  O   UNL     1      -2.291  13.756  20.214  0.00  0.00    +0.000 OA
ATOM     10  H   UNL     1      -1.675  11.202  22.039  0.00  0.00    +0.000 HD
BRANCH   7  16
ATOM     11  C   UNL     1      -1.159  13.855  23.334  0.00  0.00    +0.000 A 
ATOM     12  C   UNL     1      -1.470  14.820  24.303  0.00  0.00    +0.000 A 
ATOM     13  C   UNL     1      -2.743  14.885  24.875  0.00  0.00    +0.000 A 
ATOM     14  C   UNL     1      -3.732  14.004  24.464  0.00  0.00    +0.000 A 
ATOM     15  C   UNL     1      -3.464  13.101  23.438  0.00  0.00    +0.000 A 
ATOM     16  C   UNL     1      -2.191  13.034  22.848  0.00  0.00    +0.000 A 
BRANCH  11  18
ATOM     17  C   UNL     1       0.588  14.820  22.040  0.00  0.00    +0.000 C 
ATOM     18  O   UNL     1       0.091  13.707  22.786  0.00  0.00    +0.000 OA
ENDBRANCH  11  18
ENDBRANCH   7  16
ENDBRANCH   1   8
BRANCH   2  19
ATOM     19  N   UNL     1      -4.516  12.270  18.838  0.00  0.00    +0.000 N 
ATOM     20  H   UNL     1      -5.116  11.847  19.557  0.00  0.00    +0.000 HD
ATOM     21  H   UNL     1      -5.019  12.651  18.051  0.00  0.00    +0.000 HD
ENDBRANCH   2  19
BRANCH   6  22
ATOM     22  S   UNL     1       0.505  10.631  19.611  0.00  0.00    +0.000 S 
ATOM     23  O   UNL     1       1.351  11.733  19.189  0.00  0.00    +0.000 OA
ATOM     24  O   UNL     1       0.201  10.464  21.021  0.00  0.00    +0.000 OA
BRANCH  22  25
ATOM     25  C   UNL     1       1.388   9.155  19.201  0.00  0.00    +0.000 A 
ATOM     26  C   UNL     1       1.987   9.145  17.935  0.00  0.00    +0.000 A 
ATOM     27  C   UNL     1       2.776   8.067  17.544  0.00  0.00    +0.000 A 
ATOM     28  C   UNL     1       2.947   6.969  18.394  0.00  0.00    +0.000 A 
ATOM     29  C   UNL     1       2.312   6.974  19.651  0.00  0.00    +0.000 A 
ATOM     30  C   UNL     1       1.541   8.076  20.066  0.00  0.00    +0.000 A 
BRANCH  28  31
ATOM     31  C   UNL     1       3.764   5.842  17.857  0.00  0.00    +0.000 C 
ATOM     32  O   UNL     1       3.643   4.698  18.264  0.00  0.00    +0.000 OA
BRANCH  31  33
ATOM     33  O   UNL     1       4.638   6.164  16.881  0.00  0.00    +0.000 OA
ATOM     34  H   UNL     1       4.335   6.811  16.223  0.00  0.00    +0.000 HD
ENDBRANCH  31  33
ENDBRANCH  28  31
ENDBRANCH  22  25
ENDBRANCH   6  22
TORSDOF 8
ENDMDL
MODEL 5
REMARK VINA RESULT:      -7.8      1.095      1.920
REMARK  Name = 
REMARK  9 active torsions:
REMARK  status: ('A' for Active; 'I' for Inactive)
REMARK    1  A    between atoms: C_1  and  O_2
REMARK    2  A    between atoms: O_2  and  C_3
REMARK    3  A    between atoms: C_8  and  N_9
REMARK    4  A    between atoms: C_10  and  C_12
REMARK    5  A    between atoms: C_13  and  N_14
REMARK    6  A    between atoms: C_18  and  S_19
REMARK    7  A    between atoms: S_19  and  C_22
REMARK    8  A    between atoms: C_25  and  C_26
REMARK    9  A    between atoms: C_26  and  O_28
REMARK                            x       y       z     vdW  Elec       q    Type
REMARK                         _______ _______ _______ _____ _____    ______ ____
ROOT
ATOM      1  C   UNL     1       2.991   4.521  20.032  0.00  0.00    +0.000 A 
ATOM      2  C   UNL     1       2.756   3.426  20.942  0.00  0.00    +0.000 A 
ATOM      3  C   UNL     1       3.505   2.236  20.858  0.00  0.00    +0.000 A 
ATOM      4  C   UNL     1       4.497   2.088  19.912  0.00  0.00    +0.000 A 
ATOM      5  C   UNL     1       4.756   3.136  19.039  0.00  0.00    +0.000 A 
ATOM      6  C   UNL     1       4.021   4.349  19.088  0.00  0.00    +0.000 A 
ENDROOT
BRANCH   1   8
ATOM      7  N   UNL     1       2.522   7.021  20.305  0.00  0.00    +0.000 N 
ATOM      8  C   UNL     1       2.074   5.712  20.201  0.00  0.00    +0.000 C 
ATOM      9  O   UNL     1       0.861   5.473  20.244  0.00  0.00    +0.000 OA
ATOM     10  H   UNL     1       3.466   7.323  20.097  0.00  0.00    +0.000 HD
BRANCH   7  16
ATOM     11  C   UNL     1       1.111   8.953  19.667  0.00  0.00    +0.000 A 
ATOM     12  C   UNL     1       0.118   9.869  20.046  0.00  0.00    +0.000 A 
ATOM     13  C   UNL     1      -0.275   9.997  21.380  0.00  0.00    +0.000 A 
ATOM     14  C   UNL     1       0.300   9.192  22.352  0.00  0.00    +0.000 A 
ATOM     15  C   UNL     1       1.221   8.217  21.978  0.00  0.00    +0.000 A 
ATOM     16  C   UNL     1       1.615   8.070  20.638  0.00  0.00    +0.000 A 
BRANCH  11  18
ATOM     17  C   UNL     1       2.074  10.026  17.775  0.00  0.00    +0.000 C 
ATOM     18  O   UNL     1       1.579   8.830  18.383  0.00  0.00    +0.000 OA
ENDBRANCH  11  18
ENDBRANCH   7  16
ENDBRANCH   1   8
BRANCH   2  19
ATOM     19  N   UNL     1       1.699   3.384  21.875  0.00  0.00    +0.000 N 
ATOM     20  H   UNL     1       1.566   4.264  22.388  0.00  0.00    +0.000 HD
ATOM     21  H   UNL     1       1.635   2.556  22.448  0.00  0.00    +0.000 HD
ENDBRANCH   2  19
BRANCH   6  22
ATOM     22  S   UNL     1       4.677   5.632  18.057  0.00  0.00    +0.000 S 
ATOM     23  O   UNL     1       3.532   6.444  17.687  0.00  0.00    +0.000 OA
ATOM     24  O   UNL     1       5.782   6.243  18.774  0.00  0.00    +0.000 OA
BRANCH  22  25
ATOM     25  C   UNL     1       5.411   5.105  16.537  0.00  0.00    +0.000 A 
ATOM     26  C   UNL     1       4.556   4.424  15.661  0.00  0.00    +0.000 A 
ATOM     27  C   UNL     1       5.008   4.039  14.402  0.00  0.00    +0.000 A 
ATOM     28  C   UNL     1       6.329   4.293  14.015  0.00  0.00    +0.000 A 
ATOM     29  C   UNL     1       7.189   4.948  14.917  0.00  0.00    +0.000 A 
ATOM     30  C   UNL     1       6.729   5.371  16.178  0.00  0.00    +0.000 A 
BRANCH  28  31
ATOM     31  C   UNL     1       6.729   3.789  12.669  0.00  0.00    +0.000 C 
ATOM     32  O   UNL     1       7.445   4.432  11.919  0.00  0.00    +0.000 OA
BRANCH  31  33
ATOM     33  O   UNL     1       6.261   2.568  12.338  0.00  0.00    +0.000 OA
ATOM     34  H   UNL     1       6.802   2.048  11.722  0.00  0.00    +0.000 HD
ENDBRANCH  31  33
ENDBRANCH  28  31
ENDBRANCH  22  25
ENDBRANCH   6  22
TORSDOF 8
ENDMDL
MODEL 6
REMARK VINA RESULT:      -7.7      2.258      7.827
REMARK  Name = 
REMARK  9 active torsions:
REMARK  status: ('A' for Active; 'I' for Inactive)
REMARK    1  A    between atoms: C_1  and  O_2
REMARK    2  A    between atoms: O_2  and  C_3
REMARK    3  A    between atoms: C_8  and  N_9
REMARK    4  A    between atoms: C_10  and  C_12
REMARK    5  A    between atoms: C_13  and  N_14
REMARK    6  A    between atoms: C_18  and  S_19
REMARK    7  A    between atoms: S_19  and  C_22
REMARK    8  A    between atoms: C_25  and  C_26
REMARK    9  A    between atoms: C_26  and  O_28
REMARK                            x       y       z     vdW  Elec       q    Type
REMARK                         _______ _______ _______ _____ _____    ______ ____
ROOT
ATOM      1  C   UNL     1       3.776   4.264  19.262  0.00  0.00    +0.000 A 
ATOM      2  C   UNL     1       3.788   2.986  19.931  0.00  0.00    +0.000 A 
ATOM      3  C   UNL     1       2.952   2.735  21.037  0.00  0.00    +0.000 A 
ATOM      4  C   UNL     1       2.085   3.700  21.503  0.00  0.00    +0.000 A 
ATOM      5  C   UNL     1       2.040   4.930  20.862  0.00  0.00    +0.000 A 
ATOM      6  C   UNL     1       2.869   5.225  19.748  0.00  0.00    +0.000 A 
ENDROOT
BRANCH   1   8
ATOM      7  N   UNL     1       4.435   4.897  16.872  0.00  0.00    +0.000 N 
ATOM      8  C   UNL     1       4.767   4.410  18.128  0.00  0.00    +0.000 C 
ATOM      9  O   UNL     1       5.932   4.070  18.367  0.00  0.00    +0.000 OA
ATOM     10  H   UNL     1       3.564   5.366  16.650  0.00  0.00    +0.000 HD
BRANCH   7  16
ATOM     11  C   UNL     1       6.373   5.822  15.641  0.00  0.00    +0.000 A 
ATOM     12  C   UNL     1       7.350   5.626  14.653  0.00  0.00    +0.000 A 
ATOM     13  C   UNL     1       7.269   4.554  13.761  0.00  0.00    +0.000 A 
ATOM     14  C   UNL     1       6.226   3.646  13.862  0.00  0.00    +0.000 A 
ATOM     15  C   UNL     1       5.301   3.776  14.895  0.00  0.00    +0.000 A 
ATOM     16  C   UNL     1       5.378   4.843  15.804  0.00  0.00    +0.000 A 
BRANCH  11  18
ATOM     17  C   UNL     1       7.470   6.973  17.409  0.00  0.00    +0.000 C 
ATOM     18  O   UNL     1       6.369   6.891  16.501  0.00  0.00    +0.000 OA
ENDBRANCH  11  18
ENDBRANCH   7  16
ENDBRANCH   1   8
BRANCH   2  19
ATOM     19  N   UNL     1       4.704   1.951  19.648  0.00  0.00    +0.000 N 
ATOM     20  H   UNL     1       4.382   1.305  18.917  0.00  0.00    +0.000 HD
ATOM     21  H   UNL     1       5.134   1.499  20.441  0.00  0.00    +0.000 HD
ENDBRANCH   2  19
BRANCH   6  22
ATOM     22  S   UNL     1       2.475   6.750  18.937  0.00  0.00    +0.000 S 
ATOM     23  O   UNL     1       3.751   7.291  18.508  0.00  0.00    +0.000 OA
ATOM     24  O   UNL     1       1.452   6.463  17.948  0.00  0.00    +0.000 OA
BRANCH  22  25
ATOM     25  C   UNL     1       1.734   7.996  19.950  0.00  0.00    +0.000 A 
ATOM     26  C   UNL     1       1.233   9.108  19.262  0.00  0.00    +0.000 A 
ATOM     27  C   UNL     1       0.554  10.109  19.952  0.00  0.00    +0.000 A 
ATOM     28  C   UNL     1       0.399  10.031  21.341  0.00  0.00    +0.000 A 
ATOM     29  C   UNL     1       0.936   8.925  22.026  0.00  0.00    +0.000 A 
ATOM     30  C   UNL     1       1.593   7.893  21.330  0.00  0.00    +0.000 A 
BRANCH  28  31
ATOM     31  C   UNL     1      -0.293  11.182  21.991  0.00  0.00    +0.000 C 
ATOM     32  O   UNL     1      -0.558  11.195  23.182  0.00  0.00    +0.000 OA
BRANCH  31  33
ATOM     33  O   UNL     1      -0.596  12.218  21.181  0.00  0.00    +0.000 OA
ATOM     34  H   UNL     1      -1.197  12.890  21.541  0.00  0.00    +0.000 HD
ENDBRANCH  31  33
ENDBRANCH  28  31
ENDBRANCH  22  25
ENDBRANCH   6  22
TORSDOF 8
ENDMDL
MODEL 7
REMARK VINA RESULT:      -7.7      2.310      7.821
REMARK  Name = 
REMARK  9 active torsions:
REMARK  status: ('A' for Active; 'I' for Inactive)
REMARK    1  A    between atoms: C_1  and  O_2
REMARK    2  A    between atoms: O_2  and  C_3
REMARK    3  A    between atoms: C_8  and  N_9
REMARK    4  A    between atoms: C_10  and  C_12
REMARK    5  A    between atoms: C_13  and  N_14
REMARK    6  A    between atoms: C_18  and  S_19
REMARK    7  A    between atoms: S_19  and  C_22
REMARK    8  A    between atoms: C_25  and  C_26
REMARK    9  A    between atoms: C_26  and  O_28
REMARK                            x       y       z     vdW  Elec       q    Type
REMARK                         _______ _______ _______ _____ _____    ______ ____
ROOT
ATOM      1  C   UNL     1       2.850   3.960  18.561  0.00  0.00    +0.000 A 
ATOM      2  C   UNL     1       2.267   2.666  18.820  0.00  0.00    +0.000 A 
ATOM      3  C   UNL     1       1.222   2.511  19.751  0.00  0.00    +0.000 A 
ATOM      4  C   UNL     1       0.712   3.596  20.432  0.00  0.00    +0.000 A 
ATOM      5  C   UNL     1       1.241   4.855  20.183  0.00  0.00    +0.000 A 
ATOM      6  C   UNL     1       2.299   5.053  19.257  0.00  0.00    +0.000 A 
ENDROOT
BRANCH   1   8
ATOM      7  N   UNL     1       4.241   4.994  16.679  0.00  0.00    +0.000 N 
ATOM      8  C   UNL     1       4.002   3.967  17.581  0.00  0.00    +0.000 C 
ATOM      9  O   UNL     1       4.758   2.988  17.612  0.00  0.00    +0.000 OA
ATOM     10  H   UNL     1       3.793   5.902  16.711  0.00  0.00    +0.000 HD
BRANCH   7  16
ATOM     11  C   UNL     1       6.548   5.334  15.847  0.00  0.00    +0.000 A 
ATOM     12  C   UNL     1       7.510   5.033  14.871  0.00  0.00    +0.000 A 
ATOM     13  C   UNL     1       7.157   4.384  13.686  0.00  0.00    +0.000 A 
ATOM     14  C   UNL     1       5.841   4.000  13.472  0.00  0.00    +0.000 A 
ATOM     15  C   UNL     1       4.894   4.210  14.471  0.00  0.00    +0.000 A 
ATOM     16  C   UNL     1       5.240   4.851  15.671  0.00  0.00    +0.000 A 
BRANCH  11  18
ATOM     17  C   UNL     1       7.548   5.307  18.005  0.00  0.00    +0.000 C 
ATOM     18  O   UNL     1       6.828   6.024  17.000  0.00  0.00    +0.000 OA
ENDBRANCH  11  18
ENDBRANCH   7  16
ENDBRANCH   1   8
BRANCH   2  19
ATOM     19  N   UNL     1       2.764   1.453  18.296  0.00  0.00    +0.000 N 
ATOM     20  H   UNL     1       3.641   1.145  18.732  0.00  0.00    +0.000 HD
ATOM     21  H   UNL     1       2.741   1.352  17.293  0.00  0.00    +0.000 HD
ENDBRANCH   2  19
BRANCH   6  22
ATOM     22  S   UNL     1       2.650   6.755  18.914  0.00  0.00    +0.000 S 
ATOM     23  O   UNL     1       4.053   6.926  19.240  0.00  0.00    +0.000 OA
ATOM     24  O   UNL     1       2.192   7.028  17.563  0.00  0.00    +0.000 OA
BRANCH  22  25
ATOM     25  C   UNL     1       1.774   7.938  19.893  0.00  0.00    +0.000 A 
ATOM     26  C   UNL     1       1.274   9.044  19.194  0.00  0.00    +0.000 A 
ATOM     27  C   UNL     1       0.497   9.994  19.852  0.00  0.00    +0.000 A 
ATOM     28  C   UNL     1       0.241   9.873  21.222  0.00  0.00    +0.000 A 
ATOM     29  C   UNL     1       0.777   8.776  21.922  0.00  0.00    +0.000 A 
ATOM     30  C   UNL     1       1.534   7.794  21.256  0.00  0.00    +0.000 A 
BRANCH  28  31
ATOM     31  C   UNL     1      -0.554  10.974  21.842  0.00  0.00    +0.000 C 
ATOM     32  O   UNL     1      -1.294  11.691  21.189  0.00  0.00    +0.000 OA
BRANCH  31  33
ATOM     33  O   UNL     1      -0.413  11.118  23.176  0.00  0.00    +0.000 OA
ATOM     34  H   UNL     1       0.468  11.371  23.495  0.00  0.00    +0.000 HD
ENDBRANCH  31  33
ENDBRANCH  28  31
ENDBRANCH  22  25
ENDBRANCH   6  22
TORSDOF 8
ENDMDL
MODEL 8
REMARK VINA RESULT:      -7.5      2.228      7.858
REMARK  Name = 
REMARK  9 active torsions:
REMARK  status: ('A' for Active; 'I' for Inactive)
REMARK    1  A    between atoms: C_1  and  O_2
REMARK    2  A    between atoms: O_2  and  C_3
REMARK    3  A    between atoms: C_8  and  N_9
REMARK    4  A    between atoms: C_10  and  C_12
REMARK    5  A    between atoms: C_13  and  N_14
REMARK    6  A    between atoms: C_18  and  S_19
REMARK    7  A    between atoms: S_19  and  C_22
REMARK    8  A    between atoms: C_25  and  C_26
REMARK    9  A    between atoms: C_26  and  O_28
REMARK                            x       y       z     vdW  Elec       q    Type
REMARK                         _______ _______ _______ _____ _____    ______ ____
ROOT
ATOM      1  C   UNL     1       3.628   4.306  19.064  0.00  0.00    +0.000 A 
ATOM      2  C   UNL     1       3.540   3.015  19.701  0.00  0.00    +0.000 A 
ATOM      3  C   UNL     1       2.667   2.795  20.784  0.00  0.00    +0.000 A 
ATOM      4  C   UNL     1       1.858   3.805  21.259  0.00  0.00    +0.000 A 
ATOM      5  C   UNL     1       1.909   5.051  20.648  0.00  0.00    +0.000 A 
ATOM      6  C   UNL     1       2.778   5.314  19.557  0.00  0.00    +0.000 A 
ENDROOT
BRANCH   1   8
ATOM      7  N   UNL     1       4.380   4.965  16.709  0.00  0.00    +0.000 N 
ATOM      8  C   UNL     1       4.649   4.412  17.953  0.00  0.00    +0.000 C 
ATOM      9  O   UNL     1       5.779   3.973  18.199  0.00  0.00    +0.000 OA
ATOM     10  H   UNL     1       3.553   5.507  16.488  0.00  0.00    +0.000 HD
BRANCH   7  16
ATOM     11  C   UNL     1       6.389   5.794  15.524  0.00  0.00    +0.000 A 
ATOM     12  C   UNL     1       7.370   5.556  14.549  0.00  0.00    +0.000 A 
ATOM     13  C   UNL     1       7.242   4.505  13.638  0.00  0.00    +0.000 A 
ATOM     14  C   UNL     1       6.147   3.657  13.708  0.00  0.00    +0.000 A 
ATOM     15  C   UNL     1       5.213   3.825  14.728  0.00  0.00    +0.000 A 
ATOM     16  C   UNL     1       5.337   4.871  15.656  0.00  0.00    +0.000 A 
BRANCH  11  18
ATOM     17  C   UNL     1       7.488   6.823  17.365  0.00  0.00    +0.000 C 
ATOM     18  O   UNL     1       6.433   6.848  16.402  0.00  0.00    +0.000 OA
ENDBRANCH  11  18
ENDBRANCH   7  16
ENDBRANCH   1   8
BRANCH   2  19
ATOM     19  N   UNL     1       4.389   1.927  19.409  0.00  0.00    +0.000 N 
ATOM     20  H   UNL     1       3.903   1.127  18.985  0.00  0.00    +0.000 HD
ATOM     21  H   UNL     1       5.061   1.675  20.118  0.00  0.00    +0.000 HD
ENDBRANCH   2  19
BRANCH   6  22
ATOM     22  S   UNL     1       2.505   6.882  18.778  0.00  0.00    +0.000 S 
ATOM     23  O   UNL     1       3.830   7.428  18.551  0.00  0.00    +0.000 OA
ATOM     24  O   UNL     1       1.622   6.655  17.647  0.00  0.00    +0.000 OA
BRANCH  22  25
ATOM     25  C   UNL     1       1.640   8.085  19.743  0.00  0.00    +0.000 A 
ATOM     26  C   UNL     1       1.506   7.780  21.104  0.00  0.00    +0.000 A 
ATOM     27  C   UNL     1       0.916   8.697  21.970  0.00  0.00    +0.000 A 
ATOM     28  C   UNL     1       0.419   9.912  21.484  0.00  0.00    +0.000 A 
ATOM     29  C   UNL     1       0.529  10.193  20.109  0.00  0.00    +0.000 A 
ATOM     30  C   UNL     1       1.154   9.286  19.234  0.00  0.00    +0.000 A 
BRANCH  28  31
ATOM     31  C   UNL     1      -0.245  10.798  22.485  0.00  0.00    +0.000 C 
ATOM     32  O   UNL     1      -0.281  12.011  22.358  0.00  0.00    +0.000 OA
BRANCH  31  33
ATOM     33  O   UNL     1      -0.817  10.172  23.534  0.00  0.00    +0.000 OA
ATOM     34  H   UNL     1      -0.977  10.710  24.326  0.00  0.00    +0.000 HD
ENDBRANCH  31  33
ENDBRANCH  28  31
ENDBRANCH  22  25
ENDBRANCH   6  22
TORSDOF 8
ENDMDL
MODEL 9
REMARK VINA RESULT:      -7.5      4.845      8.183
REMARK  Name = 
REMARK  9 active torsions:
REMARK  status: ('A' for Active; 'I' for Inactive)
REMARK    1  A    between atoms: C_1  and  O_2
REMARK    2  A    between atoms: O_2  and  C_3
REMARK    3  A    between atoms: C_8  and  N_9
REMARK    4  A    between atoms: C_10  and  C_12
REMARK    5  A    between atoms: C_13  and  N_14
REMARK    6  A    between atoms: C_18  and  S_19
REMARK    7  A    between atoms: S_19  and  C_22
REMARK    8  A    between atoms: C_25  and  C_26
REMARK    9  A    between atoms: C_26  and  O_28
REMARK                            x       y       z     vdW  Elec       q    Type
REMARK                         _______ _______ _______ _____ _____    ______ ____
ROOT
ATOM      1  C   UNL     1      -2.357  11.652  19.004  0.00  0.00    +0.000 A 
ATOM      2  C   UNL     1      -3.492  11.558  18.118  0.00  0.00    +0.000 A 
ATOM      3  C   UNL     1      -3.473  10.703  16.999  0.00  0.00    +0.000 A 
ATOM      4  C   UNL     1      -2.373   9.917  16.726  0.00  0.00    +0.000 A 
ATOM      5  C   UNL     1      -1.278   9.974  17.576  0.00  0.00    +0.000 A 
ATOM      6  C   UNL     1      -1.255  10.826  18.712  0.00  0.00    +0.000 A 
ENDROOT
BRANCH   1   8
ATOM      7  N   UNL     1      -1.544  13.619  20.425  0.00  0.00    +0.000 N 
ATOM      8  C   UNL     1      -2.496  12.653  20.130  0.00  0.00    +0.000 C 
ATOM      9  O   UNL     1      -3.529  12.581  20.807  0.00  0.00    +0.000 OA
ATOM     10  H   UNL     1      -0.771  13.867  19.820  0.00  0.00    +0.000 HD
BRANCH   7  16
ATOM     11  C   UNL     1      -2.247  15.689  21.588  0.00  0.00    +0.000 A 
ATOM     12  C   UNL     1      -2.453  16.347  22.810  0.00  0.00    +0.000 A 
ATOM     13  C   UNL     1      -1.975  15.813  24.008  0.00  0.00    +0.000 A 
ATOM     14  C   UNL     1      -1.307  14.597  24.006  0.00  0.00    +0.000 A 
ATOM     15  C   UNL     1      -1.175  13.889  22.815  0.00  0.00    +0.000 A 
ATOM     16  C   UNL     1      -1.662  14.411  21.606  0.00  0.00    +0.000 A 
BRANCH  11  18
ATOM     17  C   UNL     1      -1.805  17.218  19.821  0.00  0.00    +0.000 C 
ATOM     18  O   UNL     1      -2.639  16.199  20.376  0.00  0.00    +0.000 OA
ENDBRANCH  11  18
ENDBRANCH   7  16
ENDBRANCH   1   8
BRANCH   2  19
ATOM     19  N   UNL     1      -4.631  12.386  18.198  0.00  0.00    +0.000 N 
ATOM     20  H   UNL     1      -4.490  13.320  17.794  0.00  0.00    +0.000 HD
ATOM     21  H   UNL     1      -5.130  12.384  19.074  0.00  0.00    +0.000 HD
ENDBRANCH   2  19
BRANCH   6  22
ATOM     22  S   UNL     1       0.127  10.560  19.787  0.00  0.00    +0.000 S 
ATOM     23  O   UNL     1       0.902  11.785  19.719  0.00  0.00    +0.000 OA
ATOM     24  O   UNL     1      -0.398  10.117  21.067  0.00  0.00    +0.000 OA
BRANCH  22  25
ATOM     25  C   UNL     1       1.231   9.259  19.322  0.00  0.00    +0.000 A 
ATOM     26  C   UNL     1       1.392   8.240  20.270  0.00  0.00    +0.000 A 
ATOM     27  C   UNL     1       2.172   7.126  19.972  0.00  0.00    +0.000 A 
ATOM     28  C   UNL     1       2.831   7.031  18.741  0.00  0.00    +0.000 A 
ATOM     29  C   UNL     1       2.690   8.077  17.810  0.00  0.00    +0.000 A 
ATOM     30  C   UNL     1       1.875   9.190  18.090  0.00  0.00    +0.000 A 
BRANCH  28  31
ATOM     31  C   UNL     1       3.687   5.825  18.545  0.00  0.00    +0.000 C 
ATOM     32  O   UNL     1       4.527   5.483  19.360  0.00  0.00    +0.000 OA
BRANCH  31  33
ATOM     33  O   UNL     1       3.464   5.126  17.412  0.00  0.00    +0.000 OA
ATOM     34  H   UNL     1       3.356   5.642  16.598  0.00  0.00    +0.000 HD
ENDBRANCH  31  33
ENDBRANCH  28  31
ENDBRANCH  22  25
ENDBRANCH   6  22
TORSDOF 8
ENDMDL
