MODEL 1
REMARK VINA RESULT:      -9.5      0.000      0.000
REMARK  Name = 
REMARK  7 active torsions:
REMARK  status: ('A' for Active; 'I' for Inactive)
REMARK    1  A    between atoms: C_1  and  C_2
REMARK    2  A    between atoms: C_8  and  N_9
REMARK    3  A    between atoms: C_10  and  C_12
REMARK    4  A    between atoms: C_12  and  C_13
REMARK    5  A    between atoms: C_13  and  C_14
REMARK    6  A    between atoms: C_13  and  C_15
REMARK    7  A    between atoms: N_17  and  C_18
REMARK                            x       y       z     vdW  Elec       q    Type
REMARK                         _______ _______ _______ _____ _____    ______ ____
ROOT
ATOM      1  C   UNL     1       1.664   8.337  20.277  0.00  0.00    +0.000 C 
ATOM      2  O   UNL     1       2.196   8.977  19.350  0.00  0.00    +0.000 OA
ATOM      3  N   UNL     1       1.837   6.958  20.361  0.00  0.00    +0.000 N 
ATOM      4  H   UNL     1       1.457   6.444  21.147  0.00  0.00    +0.000 HD
ENDROOT
BRANCH   3   5
ATOM      5  C   UNL     1       2.989   6.324  19.612  0.00  0.00    +0.000 C 
ATOM      6  C   UNL     1       3.399   6.669  18.031  0.00  0.00    +0.000 C 
ATOM      7  O   UNL     1       2.609   7.278  17.298  0.00  0.00    +0.000 OA
ATOM      8  N   UNL     1       4.621   6.118  17.499  0.00  0.00    +0.000 N 
ATOM      9  C   UNL     1       4.963   6.056  16.057  0.00  0.00    +0.000 C 
ATOM     10  C   UNL     1       5.922   4.882  15.897  0.00  0.00    +0.000 C 
ATOM     11  C   UNL     1       6.477   4.645  17.286  0.00  0.00    +0.000 C 
ATOM     12  N   UNL     1       5.655   5.438  18.234  0.00  0.00    +0.000 NA
ATOM     13  C   UNL     1       5.182   4.558  19.292  0.00  0.00    +0.000 C 
ATOM     14  C   UNL     1       3.790   4.052  19.061  0.00  0.00    +0.000 A 
ATOM     15  C   UNL     1       3.438   3.093  18.119  0.00  0.00    +0.000 A 
ATOM     16  F   UNL     1       4.311   2.706  17.181  0.00  0.00    +0.000 F 
ATOM     17  C   UNL     1       2.139   2.616  18.036  0.00  0.00    +0.000 A 
ATOM     18  C   UNL     1       1.193   3.069  18.946  0.00  0.00    +0.000 A 
ATOM     19  C   UNL     1       1.481   4.196  19.713  0.00  0.00    +0.000 A 
ATOM     20  C   UNL     1       2.747   4.791  19.620  0.00  0.00    +0.000 A 
ENDBRANCH   3   5
BRANCH   1  21
ATOM     21  C   UNL     1       0.837   9.138  21.304  0.00  0.00    +0.000 C 
ATOM     22  C   UNL     1      -0.504   8.529  21.715  0.00  0.00    +0.000 C 
BRANCH  21  23
ATOM     23  C   UNL     1       0.661  10.620  21.018  0.00  0.00    +0.000 C 
BRANCH  23  25
ATOM     24  N   UNL     1      -1.311  10.441  19.540  0.00  0.00    +0.000 N 
ATOM     25  C   UNL     1      -0.087  11.043  19.768  0.00  0.00    +0.000 C 
ATOM     26  O   UNL     1       0.491  11.801  18.994  0.00  0.00    +0.000 OA
ATOM     27  H   UNL     1      -1.717   9.883  20.279  0.00  0.00    +0.000 HD
BRANCH  24  35
ATOM     28  C   UNL     1      -3.607  12.319  19.547  0.00  0.00    +0.000 C 
ATOM     29  C   UNL     1      -3.216  11.491  18.357  0.00  0.00    +0.000 A 
ATOM     30  N   UNL     1      -4.010  11.686  17.263  0.00  0.00    +0.000 NA
ATOM     31  C   UNL     1      -3.723  10.992  16.140  0.00  0.00    +0.000 A 
ATOM     32  C   UNL     1      -2.676  10.103  16.062  0.00  0.00    +0.000 A 
ATOM     33  F   UNL     1      -2.431   9.432  14.929  0.00  0.00    +0.000 F 
ATOM     34  C   UNL     1      -1.875   9.900  17.183  0.00  0.00    +0.000 A 
ATOM     35  C   UNL     1      -2.116  10.601  18.369  0.00  0.00    +0.000 A 
ENDBRANCH  24  35
ENDBRANCH  23  25
ENDBRANCH  21  23
ENDBRANCH   1  21
TORSDOF 5
ENDMDL
MODEL 2
REMARK VINA RESULT:      -9.3      2.458      8.860
REMARK  Name = 
REMARK  7 active torsions:
REMARK  status: ('A' for Active; 'I' for Inactive)
REMARK    1  A    between atoms: C_1  and  C_2
REMARK    2  A    between atoms: C_8  and  N_9
REMARK    3  A    between atoms: C_10  and  C_12
REMARK    4  A    between atoms: C_12  and  C_13
REMARK    5  A    between atoms: C_13  and  C_14
REMARK    6  A    between atoms: C_13  and  C_15
REMARK    7  A    between atoms: N_17  and  C_18
REMARK                            x       y       z     vdW  Elec       q    Type
REMARK                         _______ _______ _______ _____ _____    ______ ____
ROOT
ATOM      1  C   UNL     1       1.566   7.306  20.366  0.00  0.00    +0.000 C 
ATOM      2  O   UNL     1       1.673   7.552  21.583  0.00  0.00    +0.000 OA
ATOM      3  N   UNL     1       0.971   8.235  19.517  0.00  0.00    +0.000 N 
ATOM      4  H   UNL     1       0.938   8.064  18.519  0.00  0.00    +0.000 HD
ENDROOT
BRANCH   3   5
ATOM      5  C   UNL     1       0.857   9.671  19.977  0.00  0.00    +0.000 C 
ATOM      6  C   UNL     1       0.013  10.173  21.327  0.00  0.00    +0.000 C 
ATOM      7  O   UNL     1      -0.792   9.412  21.880  0.00  0.00    +0.000 OA
ATOM      8  N   UNL     1       0.130  11.549  21.743  0.00  0.00    +0.000 N 
ATOM      9  C   UNL     1      -0.781  12.223  22.699  0.00  0.00    +0.000 C 
ATOM     10  C   UNL     1      -0.737  13.708  22.354  0.00  0.00    +0.000 C 
ATOM     11  C   UNL     1       0.549  13.885  21.573  0.00  0.00    +0.000 C 
ATOM     12  N   UNL     1       1.052  12.531  21.234  0.00  0.00    +0.000 NA
ATOM     13  C   UNL     1       1.292  12.466  19.800  0.00  0.00    +0.000 C 
ATOM     14  C   UNL     1       0.158  11.848  19.039  0.00  0.00    +0.000 A 
ATOM     15  C   UNL     1      -1.066  12.461  18.797  0.00  0.00    +0.000 A 
ATOM     16  F   UNL     1      -1.400  13.590  19.434  0.00  0.00    +0.000 F 
ATOM     17  C   UNL     1      -2.025  11.851  18.004  0.00  0.00    +0.000 A 
ATOM     18  C   UNL     1      -1.732  10.635  17.402  0.00  0.00    +0.000 A 
ATOM     19  C   UNL     1      -0.622   9.917  17.841  0.00  0.00    +0.000 A 
ATOM     20  C   UNL     1       0.224  10.474  18.809  0.00  0.00    +0.000 A 
ENDBRANCH   3   5
BRANCH   1  21
ATOM     21  C   UNL     1       2.129   5.959  19.867  0.00  0.00    +0.000 C 
ATOM     22  C   UNL     1       1.673   4.713  20.629  0.00  0.00    +0.000 C 
BRANCH  21  23
ATOM     23  C   UNL     1       3.630   5.898  19.638  0.00  0.00    +0.000 C 
BRANCH  23  25
ATOM     24  N   UNL     1       5.004   4.984  17.799  0.00  0.00    +0.000 N 
ATOM     25  C   UNL     1       4.160   5.996  18.220  0.00  0.00    +0.000 C 
ATOM     26  O   UNL     1       3.895   7.013  17.587  0.00  0.00    +0.000 OA
ATOM     27  H   UNL     1       5.098   4.163  18.382  0.00  0.00    +0.000 HD
BRANCH  24  35
ATOM     28  C   UNL     1       7.502   6.543  17.447  0.00  0.00    +0.000 C 
ATOM     29  C   UNL     1       6.901   5.686  16.372  0.00  0.00    +0.000 A 
ATOM     30  N   UNL     1       7.616   5.675  15.208  0.00  0.00    +0.000 NA
ATOM     31  C   UNL     1       7.156   4.919  14.188  0.00  0.00    +0.000 A 
ATOM     32  C   UNL     1       6.006   4.171  14.277  0.00  0.00    +0.000 A 
ATOM     33  F   UNL     1       5.583   3.438  13.238  0.00  0.00    +0.000 F 
ATOM     34  C   UNL     1       5.274   4.191  15.462  0.00  0.00    +0.000 A 
ATOM     35  C   UNL     1       5.709   4.945  16.555  0.00  0.00    +0.000 A 
ENDBRANCH  24  35
ENDBRANCH  23  25
ENDBRANCH  21  23
ENDBRANCH   1  21
TORSDOF 5
ENDMDL
MODEL 3
REMARK VINA RESULT:      -9.2      2.219      3.708
REMARK  Name = 
REMARK  7 active torsions:
REMARK  status: ('A' for Active; 'I' for Inactive)
REMARK    1  A    between atoms: C_1  and  C_2
REMARK    2  A    between atoms: C_8  and  N_9
REMARK    3  A    between atoms: C_10  and  C_12
REMARK    4  A    between atoms: C_12  and  C_13
REMARK    5  A    between atoms: C_13  and  C_14
REMARK    6  A    between atoms: C_13  and  C_15
REMARK    7  A    between atoms: N_17  and  C_18
REMARK                            x       y       z     vdW  Elec       q    Type
REMARK                         _______ _______ _______ _____ _____    ______ ____
ROOT
ATOM      1  C   UNL     1       1.425   9.262  18.811  0.00  0.00    +0.000 C 
ATOM      2  O   UNL     1       0.555   8.879  19.617  0.00  0.00    +0.000 OA
ATOM      3  N   UNL     1       2.405   8.376  18.371  0.00  0.00    +0.000 N 
ATOM      4  H   UNL     1       3.077   8.666  17.670  0.00  0.00    +0.000 HD
ENDROOT
BRANCH   3   5
ATOM      5  C   UNL     1       2.161   6.891  18.520  0.00  0.00    +0.000 C 
ATOM      6  C   UNL     1       2.014   6.094  19.980  0.00  0.00    +0.000 C 
ATOM      7  O   UNL     1       2.364   6.645  21.032  0.00  0.00    +0.000 OA
ATOM      8  N   UNL     1       1.613   4.708  19.973  0.00  0.00    +0.000 N 
ATOM      9  C   UNL     1       1.747   3.784  21.126  0.00  0.00    +0.000 C 
ATOM     10  C   UNL     1       1.853   2.382  20.536  0.00  0.00    +0.000 C 
ATOM     11  C   UNL     1       1.277   2.505  19.141  0.00  0.00    +0.000 C 
ATOM     12  N   UNL     1       1.133   3.952  18.846  0.00  0.00    +0.000 NA
ATOM     13  C   UNL     1       1.797   4.241  17.583  0.00  0.00    +0.000 C 
ATOM     14  C   UNL     1       3.186   4.776  17.755  0.00  0.00    +0.000 A 
ATOM     15  C   UNL     1       4.286   4.024  18.149  0.00  0.00    +0.000 A 
ATOM     16  F   UNL     1       4.127   2.784  18.626  0.00  0.00    +0.000 F 
ATOM     17  C   UNL     1       5.554   4.582  18.193  0.00  0.00    +0.000 A 
ATOM     18  C   UNL     1       5.729   5.897  17.784  0.00  0.00    +0.000 A 
ATOM     19  C   UNL     1       4.608   6.710  17.633  0.00  0.00    +0.000 A 
ATOM     20  C   UNL     1       3.329   6.163  17.803  0.00  0.00    +0.000 A 
ENDBRANCH   3   5
BRANCH   1  21
ATOM     21  C   UNL     1       1.349  10.727  18.334  0.00  0.00    +0.000 C 
ATOM     22  C   UNL     1       2.660  11.349  17.851  0.00  0.00    +0.000 C 
BRANCH  21  23
ATOM     23  C   UNL     1       0.627  11.699  19.252  0.00  0.00    +0.000 C 
BRANCH  23  25
ATOM     24  N   UNL     1      -1.782  11.301  18.872  0.00  0.00    +0.000 N 
ATOM     25  C   UNL     1      -0.742  12.212  18.848  0.00  0.00    +0.000 C 
ATOM     26  O   UNL     1      -0.811  13.363  18.426  0.00  0.00    +0.000 OA
ATOM     27  H   UNL     1      -1.620  10.399  19.301  0.00  0.00    +0.000 HD
BRANCH  24  35
ATOM     28  C   UNL     1      -2.570  10.564  16.110  0.00  0.00    +0.000 C 
ATOM     29  C   UNL     1      -3.505  11.196  17.098  0.00  0.00    +0.000 A 
ATOM     30  N   UNL     1      -4.768  11.396  16.617  0.00  0.00    +0.000 NA
ATOM     31  C   UNL     1      -5.682  11.948  17.443  0.00  0.00    +0.000 A 
ATOM     32  C   UNL     1      -5.390  12.316  18.735  0.00  0.00    +0.000 A 
ATOM     33  F   UNL     1      -6.327  12.865  19.520  0.00  0.00    +0.000 F 
ATOM     34  C   UNL     1      -4.099  12.120  19.221  0.00  0.00    +0.000 A 
ATOM     35  C   UNL     1      -3.115  11.540  18.415  0.00  0.00    +0.000 A 
ENDBRANCH  24  35
ENDBRANCH  23  25
ENDBRANCH  21  23
ENDBRANCH   1  21
TORSDOF 5
ENDMDL
MODEL 4
REMARK VINA RESULT:      -9.1      2.914      3.526
REMARK  Name = 
REMARK  7 active torsions:
REMARK  status: ('A' for Active; 'I' for Inactive)
REMARK    1  A    between atoms: C_1  and  C_2
REMARK    2  A    between atoms: C_8  and  N_9
REMARK    3  A    between atoms: C_10  and  C_12
REMARK    4  A    between atoms: C_12  and  C_13
REMARK    5  A    between atoms: C_13  and  C_14
REMARK    6  A    between atoms: C_13  and  C_15
REMARK    7  A    between atoms: N_17  and  C_18
REMARK                            x       y       z     vdW  Elec       q    Type
REMARK                         _______ _______ _______ _____ _____    ______ ____
ROOT
ATOM      1  C   UNL     1       1.416   8.445  20.343  0.00  0.00    +0.000 C 
ATOM      2  O   UNL     1       1.957   8.957  19.345  0.00  0.00    +0.000 OA
ATOM      3  N   UNL     1       1.556   7.082  20.589  0.00  0.00    +0.000 N 
ATOM      4  H   UNL     1       1.169   6.674  21.432  0.00  0.00    +0.000 HD
ENDROOT
BRANCH   3   5
ATOM      5  C   UNL     1       2.685   6.334  19.915  0.00  0.00    +0.000 C 
ATOM      6  C   UNL     1       3.041   6.418  18.286  0.00  0.00    +0.000 C 
ATOM      7  O   UNL     1       2.223   6.900  17.491  0.00  0.00    +0.000 OA
ATOM      8  N   UNL     1       4.248   5.787  17.810  0.00  0.00    +0.000 N 
ATOM      9  C   UNL     1       4.541   5.492  16.386  0.00  0.00    +0.000 C 
ATOM     10  C   UNL     1       5.501   4.308  16.387  0.00  0.00    +0.000 C 
ATOM     11  C   UNL     1       6.103   4.299  17.777  0.00  0.00    +0.000 C 
ATOM     12  N   UNL     1       5.309   5.235  18.610  0.00  0.00    +0.000 NA
ATOM     13  C   UNL     1       4.875   4.539  19.813  0.00  0.00    +0.000 C 
ATOM     14  C   UNL     1       3.479   4.003  19.713  0.00  0.00    +0.000 A 
ATOM     15  C   UNL     1       3.101   2.903  18.952  0.00  0.00    +0.000 A 
ATOM     16  F   UNL     1       3.944   2.369  18.060  0.00  0.00    +0.000 F 
ATOM     17  C   UNL     1       1.802   2.420  18.991  0.00  0.00    +0.000 A 
ATOM     18  C   UNL     1       0.885   3.014  19.847  0.00  0.00    +0.000 A 
ATOM     19  C   UNL     1       1.193   4.251  20.410  0.00  0.00    +0.000 A 
ATOM     20  C   UNL     1       2.451   4.823  20.179  0.00  0.00    +0.000 A 
ENDBRANCH   3   5
BRANCH   1  21
ATOM     21  C   UNL     1       0.618   9.384  21.272  0.00  0.00    +0.000 C 
ATOM     22  C   UNL     1      -0.366   8.709  22.230  0.00  0.00    +0.000 C 
BRANCH  21  23
ATOM     23  C   UNL     1      -0.047  10.580  20.612  0.00  0.00    +0.000 C 
BRANCH  23  25
ATOM     24  N   UNL     1       0.755  12.456  19.219  0.00  0.00    +0.000 N 
ATOM     25  C   UNL     1       0.736  11.871  20.472  0.00  0.00    +0.000 C 
ATOM     26  O   UNL     1       1.385  12.246  21.444  0.00  0.00    +0.000 OA
ATOM     27  H   UNL     1       0.130  12.094  18.511  0.00  0.00    +0.000 HD
BRANCH  24  35
ATOM     28  C   UNL     1      -0.437  15.169  19.323  0.00  0.00    +0.000 C 
ATOM     29  C   UNL     1       0.972  14.899  18.882  0.00  0.00    +0.000 A 
ATOM     30  N   UNL     1       1.671  16.022  18.540  0.00  0.00    +0.000 NA
ATOM     31  C   UNL     1       2.953  15.875  18.145  0.00  0.00    +0.000 A 
ATOM     32  C   UNL     1       3.573  14.650  18.070  0.00  0.00    +0.000 A 
ATOM     33  F   UNL     1       4.847  14.549  17.667  0.00  0.00    +0.000 F 
ATOM     34  C   UNL     1       2.855  13.505  18.411  0.00  0.00    +0.000 A 
ATOM     35  C   UNL     1       1.528  13.598  18.840  0.00  0.00    +0.000 A 
ENDBRANCH  24  35
ENDBRANCH  23  25
ENDBRANCH  21  23
ENDBRANCH   1  21
TORSDOF 5
ENDMDL
MODEL 5
REMARK VINA RESULT:      -9.0      1.795      3.053
REMARK  Name = 
REMARK  7 active torsions:
REMARK  status: ('A' for Active; 'I' for Inactive)
REMARK    1  A    between atoms: C_1  and  C_2
REMARK    2  A    between atoms: C_8  and  N_9
REMARK    3  A    between atoms: C_10  and  C_12
REMARK    4  A    between atoms: C_12  and  C_13
REMARK    5  A    between atoms: C_13  and  C_14
REMARK    6  A    between atoms: C_13  and  C_15
REMARK    7  A    between atoms: N_17  and  C_18
REMARK                            x       y       z     vdW  Elec       q    Type
REMARK                         _______ _______ _______ _____ _____    ______ ____
ROOT
ATOM      1  C   UNL     1       1.047   8.549  20.717  0.00  0.00    +0.000 C 
ATOM      2  O   UNL     1       0.233   7.845  21.345  0.00  0.00    +0.000 OA
ATOM      3  N   UNL     1       2.030   7.949  19.935  0.00  0.00    +0.000 N 
ATOM      4  H   UNL     1       2.654   8.519  19.376  0.00  0.00    +0.000 HD
ENDROOT
BRANCH   3   5
ATOM      5  C   UNL     1       1.842   6.509  19.512  0.00  0.00    +0.000 C 
ATOM      6  C   UNL     1       2.107   5.187  20.496  0.00  0.00    +0.000 C 
ATOM      7  O   UNL     1       2.732   5.312  21.557  0.00  0.00    +0.000 OA
ATOM      8  N   UNL     1       1.725   3.881  20.015  0.00  0.00    +0.000 N 
ATOM      9  C   UNL     1       2.176   2.598  20.608  0.00  0.00    +0.000 C 
ATOM     10  C   UNL     1       2.120   1.569  19.484  0.00  0.00    +0.000 C 
ATOM     11  C   UNL     1       1.181   2.167  18.457  0.00  0.00    +0.000 C 
ATOM     12  N   UNL     1       0.956   3.585  18.836  0.00  0.00    +0.000 NA
ATOM     13  C   UNL     1       1.244   4.427  17.684  0.00  0.00    +0.000 C 
ATOM     14  C   UNL     1       2.624   5.010  17.709  0.00  0.00    +0.000 A 
ATOM     15  C   UNL     1       3.793   4.298  17.468  0.00  0.00    +0.000 A 
ATOM     16  F   UNL     1       3.777   2.961  17.411  0.00  0.00    +0.000 F 
ATOM     17  C   UNL     1       5.022   4.937  17.421  0.00  0.00    +0.000 A 
ATOM     18  C   UNL     1       5.073   6.317  17.564  0.00  0.00    +0.000 A 
ATOM     19  C   UNL     1       3.950   6.985  18.048  0.00  0.00    +0.000 A 
ATOM     20  C   UNL     1       2.770   6.270  18.290  0.00  0.00    +0.000 A 
ENDBRANCH   3   5
BRANCH   1  21
ATOM     21  C   UNL     1       0.898  10.080  20.842  0.00  0.00    +0.000 C 
ATOM     22  C   UNL     1      -0.351  10.580  21.570  0.00  0.00    +0.000 C 
BRANCH  21  23
ATOM     23  C   UNL     1       1.106  10.883  19.569  0.00  0.00    +0.000 C 
BRANCH  23  25
ATOM     24  N   UNL     1      -1.079  10.460  18.496  0.00  0.00    +0.000 N 
ATOM     25  C   UNL     1      -0.108  11.392  18.815  0.00  0.00    +0.000 C 
ATOM     26  O   UNL     1      -0.094  12.562  18.447  0.00  0.00    +0.000 OA
ATOM     27  H   UNL     1      -1.015   9.539  18.909  0.00  0.00    +0.000 HD
BRANCH  24  35
ATOM     28  C   UNL     1      -3.317  12.107  19.532  0.00  0.00    +0.000 C 
ATOM     29  C   UNL     1      -3.311  11.481  18.169  0.00  0.00    +0.000 A 
ATOM     30  N   UNL     1      -4.430  11.745  17.433  0.00  0.00    +0.000 NA
ATOM     31  C   UNL     1      -4.506  11.233  16.186  0.00  0.00    +0.000 A 
ATOM     32  C   UNL     1      -3.509  10.459  15.638  0.00  0.00    +0.000 A 
ATOM     33  F   UNL     1      -3.628   9.966  14.398  0.00  0.00    +0.000 F 
ATOM     34  C   UNL     1      -2.372  10.183  16.395  0.00  0.00    +0.000 A 
ATOM     35  C   UNL     1      -2.234  10.698  17.687  0.00  0.00    +0.000 A 
ENDBRANCH  24  35
ENDBRANCH  23  25
ENDBRANCH  21  23
ENDBRANCH   1  21
TORSDOF 5
ENDMDL
MODEL 6
REMARK VINA RESULT:      -9.0      2.139      3.515
REMARK  Name = 
REMARK  7 active torsions:
REMARK  status: ('A' for Active; 'I' for Inactive)
REMARK    1  A    between atoms: C_1  and  C_2
REMARK    2  A    between atoms: C_8  and  N_9
REMARK    3  A    between atoms: C_10  and  C_12
REMARK    4  A    between atoms: C_12  and  C_13
REMARK    5  A    between atoms: C_13  and  C_14
REMARK    6  A    between atoms: C_13  and  C_15
REMARK    7  A    between atoms: N_17  and  C_18
REMARK                            x       y       z     vdW  Elec       q    Type
REMARK                         _______ _______ _______ _____ _____    ______ ____
ROOT
ATOM      1  C   UNL     1       1.126   8.653  20.428  0.00  0.00    +0.000 C 
ATOM      2  O   UNL     1       0.396   7.976  21.177  0.00  0.00    +0.000 OA
ATOM      3  N   UNL     1       2.050   8.022  19.599  0.00  0.00    +0.000 N 
ATOM      4  H   UNL     1       2.602   8.565  18.946  0.00  0.00    +0.000 HD
ENDROOT
BRANCH   3   5
ATOM      5  C   UNL     1       1.868   6.552  19.296  0.00  0.00    +0.000 C 
ATOM      6  C   UNL     1       2.075   5.320  20.403  0.00  0.00    +0.000 C 
ATOM      7  O   UNL     1       2.652   5.534  21.478  0.00  0.00    +0.000 OA
ATOM      8  N   UNL     1       1.703   3.979  20.023  0.00  0.00    +0.000 N 
ATOM      9  C   UNL     1       2.114   2.751  20.746  0.00  0.00    +0.000 C 
ATOM     10  C   UNL     1       2.099   1.626  19.716  0.00  0.00    +0.000 C 
ATOM     11  C   UNL     1       1.214   2.137  18.598  0.00  0.00    +0.000 C 
ATOM     12  N   UNL     1       0.985   3.584  18.839  0.00  0.00    +0.000 NA
ATOM     13  C   UNL     1       1.333   4.320  17.633  0.00  0.00    +0.000 C 
ATOM     14  C   UNL     1       2.716   4.895  17.670  0.00  0.00    +0.000 A 
ATOM     15  C   UNL     1       3.888   4.158  17.547  0.00  0.00    +0.000 A 
ATOM     16  F   UNL     1       3.862   2.821  17.607  0.00  0.00    +0.000 F 
ATOM     17  C   UNL     1       5.124   4.783  17.500  0.00  0.00    +0.000 A 
ATOM     18  C   UNL     1       5.182   6.170  17.524  0.00  0.00    +0.000 A 
ATOM     19  C   UNL     1       4.045   6.885  17.895  0.00  0.00    +0.000 A 
ATOM     20  C   UNL     1       2.848   6.200  18.144  0.00  0.00    +0.000 A 
ENDBRANCH   3   5
BRANCH   1  21
ATOM     21  C   UNL     1       0.943  10.185  20.460  0.00  0.00    +0.000 C 
ATOM     22  C   UNL     1      -0.043  10.725  21.497  0.00  0.00    +0.000 C 
BRANCH  21  23
ATOM     23  C   UNL     1       0.702  10.863  19.122  0.00  0.00    +0.000 C 
BRANCH  23  25
ATOM     24  N   UNL     1      -1.700  10.768  18.550  0.00  0.00    +0.000 N 
ATOM     25  C   UNL     1      -0.621  11.566  18.883  0.00  0.00    +0.000 C 
ATOM     26  O   UNL     1      -0.617  12.794  18.892  0.00  0.00    +0.000 OA
ATOM     27  H   UNL     1      -1.601   9.765  18.638  0.00  0.00    +0.000 HD
BRANCH  24  35
ATOM     28  C   UNL     1      -2.647  10.413  15.762  0.00  0.00    +0.000 C 
ATOM     29  C   UNL     1      -3.461  11.071  16.837  0.00  0.00    +0.000 A 
ATOM     30  N   UNL     1      -4.694  11.488  16.421  0.00  0.00    +0.000 NA
ATOM     31  C   UNL     1      -5.502  12.080  17.326  0.00  0.00    +0.000 A 
ATOM     32  C   UNL     1      -5.132  12.280  18.636  0.00  0.00    +0.000 A 
ATOM     33  F   UNL     1      -5.964  12.876  19.500  0.00  0.00    +0.000 F 
ATOM     34  C   UNL     1      -3.870  11.862  19.054  0.00  0.00    +0.000 A 
ATOM     35  C   UNL     1      -2.996  11.231  18.164  0.00  0.00    +0.000 A 
ENDBRANCH  24  35
ENDBRANCH  23  25
ENDBRANCH  21  23
ENDBRANCH   1  21
TORSDOF 5
ENDMDL
MODEL 7
REMARK VINA RESULT:      -9.0      2.373      3.057
REMARK  Name = 
REMARK  7 active torsions:
REMARK  status: ('A' for Active; 'I' for Inactive)
REMARK    1  A    between atoms: C_1  and  C_2
REMARK    2  A    between atoms: C_8  and  N_9
REMARK    3  A    between atoms: C_10  and  C_12
REMARK    4  A    between atoms: C_12  and  C_13
REMARK    5  A    between atoms: C_13  and  C_14
REMARK    6  A    between atoms: C_13  and  C_15
REMARK    7  A    between atoms: N_17  and  C_18
REMARK                            x       y       z     vdW  Elec       q    Type
REMARK                         _______ _______ _______ _____ _____    ______ ____
ROOT
ATOM      1  C   UNL     1       1.531   7.715  20.730  0.00  0.00    +0.000 C 
ATOM      2  O   UNL     1       2.075   8.543  19.975  0.00  0.00    +0.000 OA
ATOM      3  N   UNL     1       1.754   6.353  20.547  0.00  0.00    +0.000 N 
ATOM      4  H   UNL     1       1.362   5.681  21.196  0.00  0.00    +0.000 HD
ENDROOT
BRANCH   3   5
ATOM      5  C   UNL     1       2.958   5.916  19.743  0.00  0.00    +0.000 C 
ATOM      6  C   UNL     1       3.354   6.501  18.230  0.00  0.00    +0.000 C 
ATOM      7  O   UNL     1       2.524   7.141  17.569  0.00  0.00    +0.000 OA
ATOM      8  N   UNL     1       4.620   6.122  17.653  0.00  0.00    +0.000 N 
ATOM      9  C   UNL     1       4.978   6.282  16.222  0.00  0.00    +0.000 C 
ATOM     10  C   UNL     1       6.029   5.217  15.926  0.00  0.00    +0.000 C 
ATOM     11  C   UNL     1       6.588   4.838  17.281  0.00  0.00    +0.000 C 
ATOM     12  N   UNL     1       5.698   5.430  18.310  0.00  0.00    +0.000 NA
ATOM     13  C   UNL     1       5.285   4.382  19.232  0.00  0.00    +0.000 C 
ATOM     14  C   UNL     1       3.940   3.807  18.908  0.00  0.00    +0.000 A 
ATOM     15  C   UNL     1       3.673   2.959  17.840  0.00  0.00    +0.000 A 
ATOM     16  F   UNL     1       4.582   2.771  16.876  0.00  0.00    +0.000 F 
ATOM     17  C   UNL     1       2.416   2.400  17.670  0.00  0.00    +0.000 A 
ATOM     18  C   UNL     1       1.429   2.652  18.613  0.00  0.00    +0.000 A 
ATOM     19  C   UNL     1       1.621   3.685  19.529  0.00  0.00    +0.000 A 
ATOM     20  C   UNL     1       2.837   4.382  19.540  0.00  0.00    +0.000 A 
ENDBRANCH   3   5
BRANCH   1  21
ATOM     21  C   UNL     1       0.633   8.271  21.855  0.00  0.00    +0.000 C 
ATOM     22  C   UNL     1      -0.865   8.337  21.554  0.00  0.00    +0.000 C 
BRANCH  21  23
ATOM     23  C   UNL     1       1.084   9.571  22.498  0.00  0.00    +0.000 C 
BRANCH  23  25
ATOM     24  N   UNL     1       1.085  11.325  20.757  0.00  0.00    +0.000 N 
ATOM     25  C   UNL     1       0.551  10.883  21.954  0.00  0.00    +0.000 C 
ATOM     26  O   UNL     1      -0.231  11.511  22.662  0.00  0.00    +0.000 OA
ATOM     27  H   UNL     1       1.673  10.692  20.231  0.00  0.00    +0.000 HD
BRANCH  24  35
ATOM     28  C   UNL     1      -1.044  11.559  18.707  0.00  0.00    +0.000 C 
ATOM     29  C   UNL     1      -0.194  12.712  19.154  0.00  0.00    +0.000 A 
ATOM     30  N   UNL     1      -0.495  13.894  18.539  0.00  0.00    +0.000 NA
ATOM     31  C   UNL     1       0.212  14.990  18.891  0.00  0.00    +0.000 A 
ATOM     32  C   UNL     1       1.214  14.958  19.832  0.00  0.00    +0.000 A 
ATOM     33  F   UNL     1       1.893  16.069  20.147  0.00  0.00    +0.000 F 
ATOM     34  C   UNL     1       1.524  13.749  20.451  0.00  0.00    +0.000 A 
ATOM     35  C   UNL     1       0.817  12.585  20.136  0.00  0.00    +0.000 A 
ENDBRANCH  24  35
ENDBRANCH  23  25
ENDBRANCH  21  23
ENDBRANCH   1  21
TORSDOF 5
ENDMDL
MODEL 8
REMARK VINA RESULT:      -8.9      3.017      3.809
REMARK  Name = 
REMARK  7 active torsions:
REMARK  status: ('A' for Active; 'I' for Inactive)
REMARK    1  A    between atoms: C_1  and  C_2
REMARK    2  A    between atoms: C_8  and  N_9
REMARK    3  A    between atoms: C_10  and  C_12
REMARK    4  A    between atoms: C_12  and  C_13
REMARK    5  A    between atoms: C_13  and  C_14
REMARK    6  A    between atoms: C_13  and  C_15
REMARK    7  A    between atoms: N_17  and  C_18
REMARK                            x       y       z     vdW  Elec       q    Type
REMARK                         _______ _______ _______ _____ _____    ______ ____
ROOT
ATOM      1  C   UNL     1       1.547   8.296  20.325  0.00  0.00    +0.000 C 
ATOM      2  O   UNL     1       2.025   8.782  19.282  0.00  0.00    +0.000 OA
ATOM      3  N   UNL     1       1.718   6.944  20.605  0.00  0.00    +0.000 N 
ATOM      4  H   UNL     1       1.383   6.559  21.481  0.00  0.00    +0.000 HD
ENDROOT
BRANCH   3   5
ATOM      5  C   UNL     1       2.818   6.188  19.894  0.00  0.00    +0.000 C 
ATOM      6  C   UNL     1       3.134   6.286  18.257  0.00  0.00    +0.000 C 
ATOM      7  O   UNL     1       2.304   6.789  17.489  0.00  0.00    +0.000 OA
ATOM      8  N   UNL     1       4.319   5.644  17.743  0.00  0.00    +0.000 N 
ATOM      9  C   UNL     1       4.572   5.362  16.309  0.00  0.00    +0.000 C 
ATOM     10  C   UNL     1       5.514   4.163  16.272  0.00  0.00    +0.000 C 
ATOM     11  C   UNL     1       6.151   4.129  17.646  0.00  0.00    +0.000 C 
ATOM     12  N   UNL     1       5.392   5.067  18.510  0.00  0.00    +0.000 NA
ATOM     13  C   UNL     1       4.978   4.362  19.715  0.00  0.00    +0.000 C 
ATOM     14  C   UNL     1       3.573   3.848  19.645  0.00  0.00    +0.000 A 
ATOM     15  C   UNL     1       3.159   2.763  18.881  0.00  0.00    +0.000 A 
ATOM     16  F   UNL     1       3.971   2.228  17.962  0.00  0.00    +0.000 F 
ATOM     17  C   UNL     1       1.855   2.299  18.947  0.00  0.00    +0.000 A 
ATOM     18  C   UNL     1       0.968   2.896  19.833  0.00  0.00    +0.000 A 
ATOM     19  C   UNL     1       1.308   4.121  20.402  0.00  0.00    +0.000 A 
ATOM     20  C   UNL     1       2.569   4.677  20.146  0.00  0.00    +0.000 A 
ENDBRANCH   3   5
BRANCH   1  21
ATOM     21  C   UNL     1       0.788   9.255  21.266  0.00  0.00    +0.000 C 
ATOM     22  C   UNL     1      -0.551   8.752  21.807  0.00  0.00    +0.000 C 
BRANCH  21  23
ATOM     23  C   UNL     1       0.642  10.691  20.791  0.00  0.00    +0.000 C 
BRANCH  23  25
ATOM     24  N   UNL     1      -0.576  11.986  22.507  0.00  0.00    +0.000 N 
ATOM     25  C   UNL     1      -0.578  11.485  21.218  0.00  0.00    +0.000 C 
ATOM     26  O   UNL     1      -1.522  11.534  20.434  0.00  0.00    +0.000 OA
ATOM     27  H   UNL     1       0.283  11.942  23.038  0.00  0.00    +0.000 HD
BRANCH  24  35
ATOM     28  C   UNL     1      -0.517  14.925  22.901  0.00  0.00    +0.000 C 
ATOM     29  C   UNL     1      -1.654  14.052  23.345  0.00  0.00    +0.000 A 
ATOM     30  N   UNL     1      -2.675  14.734  23.943  0.00  0.00    +0.000 NA
ATOM     31  C   UNL     1      -3.748  14.029  24.362  0.00  0.00    +0.000 A 
ATOM     32  C   UNL     1      -3.846  12.665  24.215  0.00  0.00    +0.000 A 
ATOM     33  F   UNL     1      -4.928  12.005  24.650  0.00  0.00    +0.000 F 
ATOM     34  C   UNL     1      -2.799  11.972  23.613  0.00  0.00    +0.000 A 
ATOM     35  C   UNL     1      -1.669  12.650  23.148  0.00  0.00    +0.000 A 
ENDBRANCH  24  35
ENDBRANCH  23  25
ENDBRANCH  21  23
ENDBRANCH   1  21
TORSDOF 5
ENDMDL
MODEL 9
REMARK VINA RESULT:      -8.9      2.818      3.518
REMARK  Name = 
REMARK  7 active torsions:
REMARK  status: ('A' for Active; 'I' for Inactive)
REMARK    1  A    between atoms: C_1  and  C_2
REMARK    2  A    between atoms: C_8  and  N_9
REMARK    3  A    between atoms: C_10  and  C_12
REMARK    4  A    between atoms: C_12  and  C_13
REMARK    5  A    between atoms: C_13  and  C_14
REMARK    6  A    between atoms: C_13  and  C_15
REMARK    7  A    between atoms: N_17  and  C_18
REMARK                            x       y       z     vdW  Elec       q    Type
REMARK                         _______ _______ _______ _____ _____    ______ ____
ROOT
ATOM      1  C   UNL     1       1.341   8.431  20.349  0.00  0.00    +0.000 C 
ATOM      2  O   UNL     1       1.883   8.966  19.363  0.00  0.00    +0.000 OA
ATOM      3  N   UNL     1       1.510   7.070  20.586  0.00  0.00    +0.000 N 
ATOM      4  H   UNL     1       1.122   6.645  21.419  0.00  0.00    +0.000 HD
ENDROOT
BRANCH   3   5
ATOM      5  C   UNL     1       2.667   6.357  19.921  0.00  0.00    +0.000 C 
ATOM      6  C   UNL     1       3.061   6.486  18.304  0.00  0.00    +0.000 C 
ATOM      7  O   UNL     1       2.256   6.975  17.501  0.00  0.00    +0.000 OA
ATOM      8  N   UNL     1       4.289   5.886  17.842  0.00  0.00    +0.000 N 
ATOM      9  C   UNL     1       4.622   5.631  16.420  0.00  0.00    +0.000 C 
ATOM     10  C   UNL     1       5.600   4.461  16.415  0.00  0.00    +0.000 C 
ATOM     11  C   UNL     1       6.168   4.427  17.819  0.00  0.00    +0.000 C 
ATOM     12  N   UNL     1       5.339   5.330  18.655  0.00  0.00    +0.000 NA
ATOM     13  C   UNL     1       4.887   4.598  19.829  0.00  0.00    +0.000 C 
ATOM     14  C   UNL     1       3.503   4.043  19.682  0.00  0.00    +0.000 A 
ATOM     15  C   UNL     1       3.160   2.957  18.885  0.00  0.00    +0.000 A 
ATOM     16  F   UNL     1       4.033   2.459  18.002  0.00  0.00    +0.000 F 
ATOM     17  C   UNL     1       1.869   2.454  18.880  0.00  0.00    +0.000 A 
ATOM     18  C   UNL     1       0.922   3.013  19.728  0.00  0.00    +0.000 A 
ATOM     19  C   UNL     1       1.196   4.240  20.328  0.00  0.00    +0.000 A 
ATOM     20  C   UNL     1       2.451   4.836  20.142  0.00  0.00    +0.000 A 
ENDBRANCH   3   5
BRANCH   1  21
ATOM     21  C   UNL     1       0.506   9.342  21.275  0.00  0.00    +0.000 C 
ATOM     22  C   UNL     1      -0.334   8.634  22.339  0.00  0.00    +0.000 C 
BRANCH  21  23
ATOM     23  C   UNL     1      -0.326  10.414  20.594  0.00  0.00    +0.000 C 
BRANCH  23  25
ATOM     24  N   UNL     1      -0.047  12.578  19.434  0.00  0.00    +0.000 N 
ATOM     25  C   UNL     1       0.183  11.843  20.582  0.00  0.00    +0.000 C 
ATOM     26  O   UNL     1       0.855  12.210  21.542  0.00  0.00    +0.000 OA
ATOM     27  H   UNL     1      -0.669  12.194  18.734  0.00  0.00    +0.000 HD
BRANCH  24  35
ATOM     28  C   UNL     1       2.655  12.940  18.266  0.00  0.00    +0.000 C 
ATOM     29  C   UNL     1       1.742  14.079  18.611  0.00  0.00    +0.000 A 
ATOM     30  N   UNL     1       2.261  15.311  18.328  0.00  0.00    +0.000 NA
ATOM     31  C   UNL     1       1.502  16.395  18.594  0.00  0.00    +0.000 A 
ATOM     32  C   UNL     1       0.241  16.306  19.136  0.00  0.00    +0.000 A 
ATOM     33  F   UNL     1      -0.476  17.410  19.388  0.00  0.00    +0.000 F 
ATOM     34  C   UNL     1      -0.282  15.049  19.432  0.00  0.00    +0.000 A 
ATOM     35  C   UNL     1       0.453  13.891  19.166  0.00  0.00    +0.000 A 
ENDBRANCH  24  35
ENDBRANCH  23  25
ENDBRANCH  21  23
ENDBRANCH   1  21
TORSDOF 5
ENDMDL
