MODEL 1
REMARK VINA RESULT:      -8.0      0.000      0.000
REMARK  Name = 
REMARK  6 active torsions:
REMARK  status: ('A' for Active; 'I' for Inactive)
REMARK    1  A    between atoms: C_1  and  C_2
REMARK    2  A    between atoms: C_6  and  C_7
REMARK    3  A    between atoms: C_16  and  N_17
REMARK    4  A    between atoms: C_18  and  C_20
REMARK    5  A    between atoms: C_25  and  C_26
REMARK    6  A    between atoms: C_30  and  C_31
REMARK                            x       y       z     vdW  Elec       q    Type
REMARK                         _______ _______ _______ _____ _____    ______ ____
ROOT
ATOM      1  C   UNL     1       0.649  10.932  20.368  0.00  0.00    +0.000 C 
ATOM      2  C   UNL     1       0.564  10.559  21.664  0.00  0.00    +0.000 C 
ATOM      3  C   UNL     1       0.698   9.070  21.825  0.00  0.00    +0.000 C 
ATOM      4  C   UNL     1       1.408   8.746  20.515  0.00  0.00    +0.000 C 
ATOM      5  C   UNL     1       1.517   7.299  20.026  0.00  0.00    +0.000 C 
ATOM      6  C   UNL     1       2.136   6.394  21.105  0.00  0.00    +0.000 C 
ATOM      7  C   UNL     1       2.692   5.107  20.577  0.00  0.00    +0.000 C 
ATOM      8  C   UNL     1       2.891   4.834  19.274  0.00  0.00    +0.000 C 
ATOM      9  C   UNL     1       3.464   3.491  18.850  0.00  0.00    +0.000 C 
ATOM     10  C   UNL     1       4.637   3.631  17.863  0.00  0.00    +0.000 C 
ATOM     11  C   UNL     1       4.204   4.491  16.672  0.00  0.00    +0.000 C 
ATOM     12  C   UNL     1       3.739   5.871  17.133  0.00  0.00    +0.000 C 
ATOM     13  C   UNL     1       2.566   5.834  18.156  0.00  0.00    +0.000 C 
ATOM     14  C   UNL     1       1.280   5.357  17.440  0.00  0.00    +0.000 C 
ATOM     15  C   UNL     1       2.399   7.286  18.743  0.00  0.00    +0.000 C 
ATOM     16  C   UNL     1       1.957   8.345  17.696  0.00  0.00    +0.000 C 
ATOM     17  C   UNL     1       1.730   9.748  18.282  0.00  0.00    +0.000 C 
ATOM     18  C   UNL     1       0.765   9.701  19.478  0.00  0.00    +0.000 C 
ATOM     19  C   UNL     1      -0.652   9.266  19.025  0.00  0.00    +0.000 C 
ENDROOT
BRANCH   1  25
ATOM     20  C   UNL     1       2.833  15.001  18.395  0.00  0.00    +0.000 C 
ATOM     21  C   UNL     1       1.631  14.289  18.924  0.00  0.00    +0.000 A 
ATOM     22  C   UNL     1       0.374  14.882  18.922  0.00  0.00    +0.000 A 
ATOM     23  N   UNL     1      -0.744  14.284  19.369  0.00  0.00    +0.000 NA
ATOM     24  C   UNL     1      -0.607  13.021  19.837  0.00  0.00    +0.000 A 
ATOM     25  C   UNL     1       0.589  12.315  19.891  0.00  0.00    +0.000 A 
ATOM     26  C   UNL     1       1.728  12.984  19.425  0.00  0.00    +0.000 A 
ENDBRANCH   1  25
BRANCH  10  27
ATOM     27  N   UNL     1       5.836   4.166  18.513  0.00  0.00    +0.000 N 
ATOM     28  C   UNL     1       6.944   4.522  17.788  0.00  0.00    +0.000 C 
ATOM     29  O   UNL     1       7.042   4.399  16.577  0.00  0.00    +0.000 OA
ATOM     30  H   UNL     1       5.807   4.337  19.510  0.00  0.00    +0.000 HD
BRANCH  28  31
ATOM     31  C   UNL     1       8.100   5.011  18.599  0.00  0.00    +0.000 C 
ATOM     32  C   UNL     1       8.169   6.495  18.878  0.00  0.00    +0.000 C 
ATOM     33  C   UNL     1       7.943   5.537  20.008  0.00  0.00    +0.000 C 
ENDBRANCH  28  31
ENDBRANCH  10  27
TORSDOF 3
ENDMDL
MODEL 2
REMARK VINA RESULT:      -7.6      0.657      1.177
REMARK  Name = 
REMARK  6 active torsions:
REMARK  status: ('A' for Active; 'I' for Inactive)
REMARK    1  A    between atoms: C_1  and  C_2
REMARK    2  A    between atoms: C_6  and  C_7
REMARK    3  A    between atoms: C_16  and  N_17
REMARK    4  A    between atoms: C_18  and  C_20
REMARK    5  A    between atoms: C_25  and  C_26
REMARK    6  A    between atoms: C_30  and  C_31
REMARK                            x       y       z     vdW  Elec       q    Type
REMARK                         _______ _______ _______ _____ _____    ______ ____
ROOT
ATOM      1  C   UNL     1       0.707  10.942  20.337  0.00  0.00    +0.000 C 
ATOM      2  C   UNL     1       0.617  10.574  21.634  0.00  0.00    +0.000 C 
ATOM      3  C   UNL     1       0.736   9.085  21.800  0.00  0.00    +0.000 C 
ATOM      4  C   UNL     1       1.445   8.749  20.492  0.00  0.00    +0.000 C 
ATOM      5  C   UNL     1       1.541   7.300  20.008  0.00  0.00    +0.000 C 
ATOM      6  C   UNL     1       2.149   6.393  21.091  0.00  0.00    +0.000 C 
ATOM      7  C   UNL     1       2.693   5.098  20.568  0.00  0.00    +0.000 C 
ATOM      8  C   UNL     1       2.891   4.819  19.266  0.00  0.00    +0.000 C 
ATOM      9  C   UNL     1       3.451   3.469  18.847  0.00  0.00    +0.000 C 
ATOM     10  C   UNL     1       4.627   3.594  17.861  0.00  0.00    +0.000 C 
ATOM     11  C   UNL     1       4.204   4.455  16.666  0.00  0.00    +0.000 C 
ATOM     12  C   UNL     1       3.751   5.841  17.123  0.00  0.00    +0.000 C 
ATOM     13  C   UNL     1       2.577   5.819  18.144  0.00  0.00    +0.000 C 
ATOM     14  C   UNL     1       1.288   5.351  17.428  0.00  0.00    +0.000 C 
ATOM     15  C   UNL     1       2.423   7.274  18.726  0.00  0.00    +0.000 C 
ATOM     16  C   UNL     1       1.993   8.334  17.675  0.00  0.00    +0.000 C 
ATOM     17  C   UNL     1       1.779   9.741  18.256  0.00  0.00    +0.000 C 
ATOM     18  C   UNL     1       0.812   9.707  19.451  0.00  0.00    +0.000 C 
ATOM     19  C   UNL     1      -0.608   9.284  18.998  0.00  0.00    +0.000 C 
ENDROOT
BRANCH   1  25
ATOM     20  C   UNL     1      -1.463  15.468  20.169  0.00  0.00    +0.000 C 
ATOM     21  C   UNL     1      -0.373  14.526  19.775  0.00  0.00    +0.000 A 
ATOM     22  C   UNL     1       0.696  14.936  18.987  0.00  0.00    +0.000 A 
ATOM     23  N   UNL     1       1.712  14.137  18.617  0.00  0.00    +0.000 NA
ATOM     24  C   UNL     1       1.668  12.859  19.061  0.00  0.00    +0.000 A 
ATOM     25  C   UNL     1       0.661  12.325  19.855  0.00  0.00    +0.000 A 
ATOM     26  C   UNL     1      -0.381  13.192  20.206  0.00  0.00    +0.000 A 
ENDBRANCH   1  25
BRANCH  10  27
ATOM     27  N   UNL     1       5.830   4.120  18.511  0.00  0.00    +0.000 N 
ATOM     28  C   UNL     1       6.925   4.508  17.782  0.00  0.00    +0.000 C 
ATOM     29  O   UNL     1       7.007   4.422  16.566  0.00  0.00    +0.000 OA
ATOM     30  H   UNL     1       5.814   4.260  19.513  0.00  0.00    +0.000 HD
BRANCH  28  31
ATOM     31  C   UNL     1       8.088   4.981  18.592  0.00  0.00    +0.000 C 
ATOM     32  C   UNL     1       8.180   6.466  18.866  0.00  0.00    +0.000 C 
ATOM     33  C   UNL     1       7.938   5.515  19.999  0.00  0.00    +0.000 C 
ENDBRANCH  28  31
ENDBRANCH  10  27
TORSDOF 3
ENDMDL
MODEL 3
REMARK VINA RESULT:      -7.4      5.290      9.540
REMARK  Name = 
REMARK  6 active torsions:
REMARK  status: ('A' for Active; 'I' for Inactive)
REMARK    1  A    between atoms: C_1  and  C_2
REMARK    2  A    between atoms: C_6  and  C_7
REMARK    3  A    between atoms: C_16  and  N_17
REMARK    4  A    between atoms: C_18  and  C_20
REMARK    5  A    between atoms: C_25  and  C_26
REMARK    6  A    between atoms: C_30  and  C_31
REMARK                            x       y       z     vdW  Elec       q    Type
REMARK                         _______ _______ _______ _____ _____    ______ ____
ROOT
ATOM      1  C   UNL     1       8.003  15.440  19.587  0.00  0.00    +0.000 C 
ATOM      2  C   UNL     1       8.105  15.716  20.906  0.00  0.00    +0.000 C 
ATOM      3  C   UNL     1       6.760  15.964  21.529  0.00  0.00    +0.000 C 
ATOM      4  C   UNL     1       5.881  15.255  20.505  0.00  0.00    +0.000 C 
ATOM      5  C   UNL     1       4.365  15.467  20.501  0.00  0.00    +0.000 C 
ATOM      6  C   UNL     1       3.761  15.176  21.885  0.00  0.00    +0.000 C 
ATOM      7  C   UNL     1       2.286  14.913  21.865  0.00  0.00    +0.000 C 
ATOM      8  C   UNL     1       1.562  14.686  20.752  0.00  0.00    +0.000 C 
ATOM      9  C   UNL     1       0.066  14.429  20.849  0.00  0.00    +0.000 C 
ATOM     10  C   UNL     1      -0.375  13.185  20.058  0.00  0.00    +0.000 C 
ATOM     11  C   UNL     1       0.113  13.298  18.610  0.00  0.00    +0.000 C 
ATOM     12  C   UNL     1       1.633  13.445  18.554  0.00  0.00    +0.000 C 
ATOM     13  C   UNL     1       2.180  14.667  19.347  0.00  0.00    +0.000 C 
ATOM     14  C   UNL     1       1.770  15.971  18.622  0.00  0.00    +0.000 C 
ATOM     15  C   UNL     1       3.745  14.518  19.434  0.00  0.00    +0.000 C 
ATOM     16  C   UNL     1       4.466  14.603  18.059  0.00  0.00    +0.000 C 
ATOM     17  C   UNL     1       5.998  14.523  18.150  0.00  0.00    +0.000 C 
ATOM     18  C   UNL     1       6.551  15.561  19.141  0.00  0.00    +0.000 C 
ATOM     19  C   UNL     1       6.294  17.001  18.630  0.00  0.00    +0.000 C 
ENDROOT
BRANCH   1  25
ATOM     20  C   UNL     1      11.178  12.135  17.534  0.00  0.00    +0.000 C 
ATOM     21  C   UNL     1      10.667  13.529  17.698  0.00  0.00    +0.000 A 
ATOM     22  C   UNL     1      11.193  14.588  16.967  0.00  0.00    +0.000 A 
ATOM     23  N   UNL     1      10.762  15.859  17.061  0.00  0.00    +0.000 NA
ATOM     24  C   UNL     1       9.746  16.089  17.925  0.00  0.00    +0.000 A 
ATOM     25  C   UNL     1       9.131  15.121  18.710  0.00  0.00    +0.000 A 
ATOM     26  C   UNL     1       9.621  13.815  18.585  0.00  0.00    +0.000 A 
ENDBRANCH   1  25
BRANCH  10  27
ATOM     27  N   UNL     1       0.085  11.945  20.691  0.00  0.00    +0.000 N 
ATOM     28  C   UNL     1      -0.640  11.337  21.683  0.00  0.00    +0.000 C 
ATOM     29  O   UNL     1      -1.685  11.776  22.138  0.00  0.00    +0.000 OA
ATOM     30  H   UNL     1       0.921  11.503  20.331  0.00  0.00    +0.000 HD
BRANCH  28  31
ATOM     31  C   UNL     1      -0.017  10.106  22.257  0.00  0.00    +0.000 C 
ATOM     32  C   UNL     1      -0.337   8.791  21.581  0.00  0.00    +0.000 C 
ATOM     33  C   UNL     1       1.062   9.327  21.538  0.00  0.00    +0.000 C 
ENDBRANCH  28  31
ENDBRANCH  10  27
TORSDOF 3
ENDMDL
MODEL 4
REMARK VINA RESULT:      -7.3      6.194      8.726
REMARK  Name = 
REMARK  6 active torsions:
REMARK  status: ('A' for Active; 'I' for Inactive)
REMARK    1  A    between atoms: C_1  and  C_2
REMARK    2  A    between atoms: C_6  and  C_7
REMARK    3  A    between atoms: C_16  and  N_17
REMARK    4  A    between atoms: C_18  and  C_20
REMARK    5  A    between atoms: C_25  and  C_26
REMARK    6  A    between atoms: C_30  and  C_31
REMARK                            x       y       z     vdW  Elec       q    Type
REMARK                         _______ _______ _______ _____ _____    ______ ____
ROOT
ATOM      1  C   UNL     1       1.238  13.707  20.036  0.00  0.00    +0.000 C 
ATOM      2  C   UNL     1       1.265  13.207  18.781  0.00  0.00    +0.000 C 
ATOM      3  C   UNL     1       2.439  13.728  17.999  0.00  0.00    +0.000 C 
ATOM      4  C   UNL     1       3.340  14.142  19.157  0.00  0.00    +0.000 C 
ATOM      5  C   UNL     1       4.565  15.028  18.913  0.00  0.00    +0.000 C 
ATOM      6  C   UNL     1       5.477  14.426  17.831  0.00  0.00    +0.000 C 
ATOM      7  C   UNL     1       6.878  14.956  17.850  0.00  0.00    +0.000 C 
ATOM      8  C   UNL     1       7.409  15.688  18.848  0.00  0.00    +0.000 C 
ATOM      9  C   UNL     1       8.847  16.175  18.762  0.00  0.00    +0.000 C 
ATOM     10  C   UNL     1       9.652  15.875  20.039  0.00  0.00    +0.000 C 
ATOM     11  C   UNL     1       8.910  16.435  21.256  0.00  0.00    +0.000 C 
ATOM     12  C   UNL     1       7.508  15.838  21.366  0.00  0.00    +0.000 C 
ATOM     13  C   UNL     1       6.621  16.069  20.109  0.00  0.00    +0.000 C 
ATOM     14  C   UNL     1       6.253  17.569  20.013  0.00  0.00    +0.000 C 
ATOM     15  C   UNL     1       5.340  15.165  20.256  0.00  0.00    +0.000 C 
ATOM     16  C   UNL     1       4.422  15.557  21.447  0.00  0.00    +0.000 C 
ATOM     17  C   UNL     1       3.138  14.716  21.550  0.00  0.00    +0.000 C 
ATOM     18  C   UNL     1       2.367  14.714  20.220  0.00  0.00    +0.000 C 
ATOM     19  C   UNL     1       1.842  16.133  19.885  0.00  0.00    +0.000 C 
ENDROOT
BRANCH   1  25
ATOM     20  C   UNL     1      -0.972  10.385  23.085  0.00  0.00    +0.000 C 
ATOM     21  C   UNL     1      -0.832  11.769  22.542  0.00  0.00    +0.000 A 
ATOM     22  C   UNL     1      -1.598  12.823  23.026  0.00  0.00    +0.000 A 
ATOM     23  N   UNL     1      -1.503  14.090  22.587  0.00  0.00    +0.000 NA
ATOM     24  C   UNL     1      -0.590  14.326  21.617  0.00  0.00    +0.000 A 
ATOM     25  C   UNL     1       0.239  13.365  21.050  0.00  0.00    +0.000 A 
ATOM     26  C   UNL     1       0.096  12.058  21.532  0.00  0.00    +0.000 A 
ENDBRANCH   1  25
BRANCH  10  27
ATOM     27  N   UNL     1       9.930  14.443  20.185  0.00  0.00    +0.000 N 
ATOM     28  C   UNL     1      11.153  13.916  19.857  0.00  0.00    +0.000 C 
ATOM     29  O   UNL     1      12.081  14.564  19.398  0.00  0.00    +0.000 OA
ATOM     30  H   UNL     1       9.220  13.855  20.601  0.00  0.00    +0.000 HD
BRANCH  28  31
ATOM     31  C   UNL     1      11.266  12.434  20.020  0.00  0.00    +0.000 C 
ATOM     32  C   UNL     1      10.924  11.580  18.820  0.00  0.00    +0.000 C 
ATOM     33  C   UNL     1      12.333  11.617  19.328  0.00  0.00    +0.000 C 
ENDBRANCH  28  31
ENDBRANCH  10  27
TORSDOF 3
ENDMDL
MODEL 5
REMARK VINA RESULT:      -7.1      5.698      8.270
REMARK  Name = 
REMARK  6 active torsions:
REMARK  status: ('A' for Active; 'I' for Inactive)
REMARK    1  A    between atoms: C_1  and  C_2
REMARK    2  A    between atoms: C_6  and  C_7
REMARK    3  A    between atoms: C_16  and  N_17
REMARK    4  A    between atoms: C_18  and  C_20
REMARK    5  A    between atoms: C_25  and  C_26
REMARK    6  A    between atoms: C_30  and  C_31
REMARK                            x       y       z     vdW  Elec       q    Type
REMARK                         _______ _______ _______ _____ _____    ______ ____
ROOT
ATOM      1  C   UNL     1       0.888  13.965  20.289  0.00  0.00    +0.000 C 
ATOM      2  C   UNL     1       0.691  13.944  18.952  0.00  0.00    +0.000 C 
ATOM      3  C   UNL     1       1.846  14.556  18.209  0.00  0.00    +0.000 C 
ATOM      4  C   UNL     1       2.925  14.415  19.277  0.00  0.00    +0.000 C 
ATOM      5  C   UNL     1       4.252  15.169  19.147  0.00  0.00    +0.000 C 
ATOM      6  C   UNL     1       4.923  14.879  17.794  0.00  0.00    +0.000 C 
ATOM      7  C   UNL     1       6.389  15.187  17.761  0.00  0.00    +0.000 C 
ATOM      8  C   UNL     1       7.144  15.446  18.846  0.00  0.00    +0.000 C 
ATOM      9  C   UNL     1       8.627  15.746  18.696  0.00  0.00    +0.000 C 
ATOM     10  C   UNL     1       9.501  14.914  19.651  0.00  0.00    +0.000 C 
ATOM     11  C   UNL     1       9.004  15.095  21.089  0.00  0.00    +0.000 C 
ATOM     12  C   UNL     1       7.540  14.679  21.219  0.00  0.00    +0.000 C 
ATOM     13  C   UNL     1       6.576  15.450  20.272  0.00  0.00    +0.000 C 
ATOM     14  C   UNL     1       6.466  16.920  20.743  0.00  0.00    +0.000 C 
ATOM     15  C   UNL     1       5.180  14.722  20.314  0.00  0.00    +0.000 C 
ATOM     16  C   UNL     1       4.479  14.778  21.700  0.00  0.00    +0.000 C 
ATOM     17  C   UNL     1       3.087  14.124  21.724  0.00  0.00    +0.000 C 
ATOM     18  C   UNL     1       2.188  14.690  20.613  0.00  0.00    +0.000 C 
ATOM     19  C   UNL     1       1.886  16.190  20.860  0.00  0.00    +0.000 C 
ENDROOT
BRANCH   1  25
ATOM     20  C   UNL     1      -0.804  10.152  23.084  0.00  0.00    +0.000 C 
ATOM     21  C   UNL     1      -0.862  11.579  22.648  0.00  0.00    +0.000 A 
ATOM     22  C   UNL     1      -1.756  12.479  23.216  0.00  0.00    +0.000 A 
ATOM     23  N   UNL     1      -1.841  13.777  22.876  0.00  0.00    +0.000 NA
ATOM     24  C   UNL     1      -0.982  14.208  21.922  0.00  0.00    +0.000 A 
ATOM     25  C   UNL     1      -0.040  13.415  21.279  0.00  0.00    +0.000 A 
ATOM     26  C   UNL     1       0.003  12.067  21.659  0.00  0.00    +0.000 A 
ENDBRANCH   1  25
BRANCH  10  27
ATOM     27  N   UNL     1       9.540  13.501  19.264  0.00  0.00    +0.000 N 
ATOM     28  C   UNL     1      10.620  12.709  19.556  0.00  0.00    +0.000 C 
ATOM     29  O   UNL     1      11.630  13.104  20.118  0.00  0.00    +0.000 OA
ATOM     30  H   UNL     1       8.717  13.097  18.835  0.00  0.00    +0.000 HD
BRANCH  28  31
ATOM     31  C   UNL     1      10.527  11.303  19.057  0.00  0.00    +0.000 C 
ATOM     32  C   UNL     1       9.483  10.413  19.694  0.00  0.00    +0.000 C 
ATOM     33  C   UNL     1       9.350  10.801  18.252  0.00  0.00    +0.000 C 
ENDBRANCH  28  31
ENDBRANCH  10  27
TORSDOF 3
ENDMDL
MODEL 6
REMARK VINA RESULT:      -6.9      6.156      8.720
REMARK  Name = 
REMARK  6 active torsions:
REMARK  status: ('A' for Active; 'I' for Inactive)
REMARK    1  A    between atoms: C_1  and  C_2
REMARK    2  A    between atoms: C_6  and  C_7
REMARK    3  A    between atoms: C_16  and  N_17
REMARK    4  A    between atoms: C_18  and  C_20
REMARK    5  A    between atoms: C_25  and  C_26
REMARK    6  A    between atoms: C_30  and  C_31
REMARK                            x       y       z     vdW  Elec       q    Type
REMARK                         _______ _______ _______ _____ _____    ______ ____
ROOT
ATOM      1  C   UNL     1       1.279  13.592  20.189  0.00  0.00    +0.000 C 
ATOM      2  C   UNL     1       1.250  13.185  18.901  0.00  0.00    +0.000 C 
ATOM      3  C   UNL     1       2.377  13.781  18.104  0.00  0.00    +0.000 C 
ATOM      4  C   UNL     1       3.328  14.125  19.244  0.00  0.00    +0.000 C 
ATOM      5  C   UNL     1       4.528  15.047  19.007  0.00  0.00    +0.000 C 
ATOM      6  C   UNL     1       5.394  14.541  17.841  0.00  0.00    +0.000 C 
ATOM      7  C   UNL     1       6.787  15.092  17.831  0.00  0.00    +0.000 C 
ATOM      8  C   UNL     1       7.356  15.759  18.853  0.00  0.00    +0.000 C 
ATOM      9  C   UNL     1       8.782  16.274  18.734  0.00  0.00    +0.000 C 
ATOM     10  C   UNL     1       9.653  15.896  19.945  0.00  0.00    +0.000 C 
ATOM     11  C   UNL     1       8.964  16.354  21.235  0.00  0.00    +0.000 C 
ATOM     12  C   UNL     1       7.578  15.726  21.368  0.00  0.00    +0.000 C 
ATOM     13  C   UNL     1       6.627  16.033  20.176  0.00  0.00    +0.000 C 
ATOM     14  C   UNL     1       6.234  17.529  20.208  0.00  0.00    +0.000 C 
ATOM     15  C   UNL     1       5.367  15.099  20.317  0.00  0.00    +0.000 C 
ATOM     16  C   UNL     1       4.503  15.387  21.577  0.00  0.00    +0.000 C 
ATOM     17  C   UNL     1       3.238  14.520  21.680  0.00  0.00    +0.000 C 
ATOM     18  C   UNL     1       2.402  14.601  20.392  0.00  0.00    +0.000 C 
ATOM     19  C   UNL     1       1.842  16.032  20.188  0.00  0.00    +0.000 C 
ENDROOT
BRANCH   1  25
ATOM     20  C   UNL     1      -1.792  14.596  24.034  0.00  0.00    +0.000 C 
ATOM     21  C   UNL     1      -1.166  13.634  23.078  0.00  0.00    +0.000 A 
ATOM     22  C   UNL     1      -1.504  12.286  23.074  0.00  0.00    +0.000 A 
ATOM     23  N   UNL     1      -0.986  11.380  22.227  0.00  0.00    +0.000 NA
ATOM     24  C   UNL     1      -0.085  11.840  21.327  0.00  0.00    +0.000 A 
ATOM     25  C   UNL     1       0.335  13.160  21.223  0.00  0.00    +0.000 A 
ATOM     26  C   UNL     1      -0.224  14.065  22.133  0.00  0.00    +0.000 A 
ENDBRANCH   1  25
BRANCH  10  27
ATOM     27  N   UNL     1       9.957  14.463  19.972  0.00  0.00    +0.000 N 
ATOM     28  C   UNL     1      11.100  13.964  19.402  0.00  0.00    +0.000 C 
ATOM     29  O   UNL     1      11.926  14.642  18.811  0.00  0.00    +0.000 OA
ATOM     30  H   UNL     1       9.337  13.849  20.484  0.00  0.00    +0.000 HD
BRANCH  28  31
ATOM     31  C   UNL     1      11.245  12.478  19.474  0.00  0.00    +0.000 C 
ATOM     32  C   UNL     1      10.488  11.661  18.451  0.00  0.00    +0.000 C 
ATOM     33  C   UNL     1      11.986  11.680  18.425  0.00  0.00    +0.000 C 
ENDBRANCH  28  31
ENDBRANCH  10  27
TORSDOF 3
ENDMDL
MODEL 7
REMARK VINA RESULT:      -6.9      5.661      9.520
REMARK  Name = 
REMARK  6 active torsions:
REMARK  status: ('A' for Active; 'I' for Inactive)
REMARK    1  A    between atoms: C_1  and  C_2
REMARK    2  A    between atoms: C_6  and  C_7
REMARK    3  A    between atoms: C_16  and  N_17
REMARK    4  A    between atoms: C_18  and  C_20
REMARK    5  A    between atoms: C_25  and  C_26
REMARK    6  A    between atoms: C_30  and  C_31
REMARK                            x       y       z     vdW  Elec       q    Type
REMARK                         _______ _______ _______ _____ _____    ______ ____
ROOT
ATOM      1  C   UNL     1       8.085  15.326  19.634  0.00  0.00    +0.000 C 
ATOM      2  C   UNL     1       8.183  15.348  20.981  0.00  0.00    +0.000 C 
ATOM      3  C   UNL     1       6.838  15.499  21.635  0.00  0.00    +0.000 C 
ATOM      4  C   UNL     1       5.955  15.010  20.493  0.00  0.00    +0.000 C 
ATOM      5  C   UNL     1       4.442  15.246  20.523  0.00  0.00    +0.000 C 
ATOM      6  C   UNL     1       3.823  14.711  21.825  0.00  0.00    +0.000 C 
ATOM      7  C   UNL     1       2.344  14.484  21.750  0.00  0.00    +0.000 C 
ATOM      8  C   UNL     1       1.624  14.482  20.612  0.00  0.00    +0.000 C 
ATOM      9  C   UNL     1       0.124  14.239  20.652  0.00  0.00    +0.000 C 
ATOM     10  C   UNL     1      -0.332  13.173  19.641  0.00  0.00    +0.000 C 
ATOM     11  C   UNL     1       0.168  13.547  18.242  0.00  0.00    +0.000 C 
ATOM     12  C   UNL     1       1.690  13.674  18.220  0.00  0.00    +0.000 C 
ATOM     13  C   UNL     1       2.253  14.716  19.230  0.00  0.00    +0.000 C 
ATOM     14  C   UNL     1       1.870  16.140  18.761  0.00  0.00    +0.000 C 
ATOM     15  C   UNL     1       3.814  14.526  19.293  0.00  0.00    +0.000 C 
ATOM     16  C   UNL     1       4.546  14.854  17.962  0.00  0.00    +0.000 C 
ATOM     17  C   UNL     1       6.076  14.731  18.042  0.00  0.00    +0.000 C 
ATOM     18  C   UNL     1       6.639  15.555  19.213  0.00  0.00    +0.000 C 
ATOM     19  C   UNL     1       6.410  17.070  18.980  0.00  0.00    +0.000 C 
ENDROOT
BRANCH   1  25
ATOM     20  C   UNL     1      12.101  17.141  17.225  0.00  0.00    +0.000 C 
ATOM     21  C   UNL     1      11.170  16.020  17.554  0.00  0.00    +0.000 A 
ATOM     22  C   UNL     1      11.371  14.737  17.061  0.00  0.00    +0.000 A 
ATOM     23  N   UNL     1      10.577  13.688  17.336  0.00  0.00    +0.000 NA
ATOM     24  C   UNL     1       9.526  13.926  18.155  0.00  0.00    +0.000 A 
ATOM     25  C   UNL     1       9.214  15.158  18.717  0.00  0.00    +0.000 A 
ATOM     26  C   UNL     1      10.065  16.222  18.392  0.00  0.00    +0.000 A 
ENDBRANCH   1  25
BRANCH  10  27
ATOM     27  N   UNL     1       0.102  11.829  20.031  0.00  0.00    +0.000 N 
ATOM     28  C   UNL     1      -0.581  11.102  20.972  0.00  0.00    +0.000 C 
ATOM     29  O   UNL     1      -1.563  11.507  21.574  0.00  0.00    +0.000 OA
ATOM     30  H   UNL     1       0.883  11.414  19.540  0.00  0.00    +0.000 HD
BRANCH  28  31
ATOM     31  C   UNL     1       0.012   9.768  21.292  0.00  0.00    +0.000 C 
ATOM     32  C   UNL     1       0.729   9.632  22.617  0.00  0.00    +0.000 C 
ATOM     33  C   UNL     1      -0.539   8.870  22.377  0.00  0.00    +0.000 C 
ENDBRANCH  28  31
ENDBRANCH  10  27
TORSDOF 3
ENDMDL
MODEL 8
REMARK VINA RESULT:      -6.9      5.752      8.752
REMARK  Name = 
REMARK  6 active torsions:
REMARK  status: ('A' for Active; 'I' for Inactive)
REMARK    1  A    between atoms: C_1  and  C_2
REMARK    2  A    between atoms: C_6  and  C_7
REMARK    3  A    between atoms: C_16  and  N_17
REMARK    4  A    between atoms: C_18  and  C_20
REMARK    5  A    between atoms: C_25  and  C_26
REMARK    6  A    between atoms: C_30  and  C_31
REMARK                            x       y       z     vdW  Elec       q    Type
REMARK                         _______ _______ _______ _____ _____    ______ ____
ROOT
ATOM      1  C   UNL     1       1.286  12.914  20.203  0.00  0.00    +0.000 C 
ATOM      2  C   UNL     1       1.174  12.738  18.868  0.00  0.00    +0.000 C 
ATOM      3  C   UNL     1       2.154  13.589  18.110  0.00  0.00    +0.000 C 
ATOM      4  C   UNL     1       3.172  13.835  19.217  0.00  0.00    +0.000 C 
ATOM      5  C   UNL     1       4.247  14.915  19.061  0.00  0.00    +0.000 C 
ATOM      6  C   UNL     1       5.041  14.722  17.758  0.00  0.00    +0.000 C 
ATOM      7  C   UNL     1       6.366  15.421  17.742  0.00  0.00    +0.000 C 
ATOM      8  C   UNL     1       6.963  15.960  18.822  0.00  0.00    +0.000 C 
ATOM      9  C   UNL     1       8.313  16.648  18.690  0.00  0.00    +0.000 C 
ATOM     10  C   UNL     1       9.330  16.167  19.740  0.00  0.00    +0.000 C 
ATOM     11  C   UNL     1       8.727  16.311  21.141  0.00  0.00    +0.000 C 
ATOM     12  C   UNL     1       7.429  15.515  21.264  0.00  0.00    +0.000 C 
ATOM     13  C   UNL     1       6.341  15.915  20.225  0.00  0.00    +0.000 C 
ATOM     14  C   UNL     1       5.808  17.328  20.562  0.00  0.00    +0.000 C 
ATOM     15  C   UNL     1       5.199  14.833  20.290  0.00  0.00    +0.000 C 
ATOM     16  C   UNL     1       4.437  14.797  21.643  0.00  0.00    +0.000 C 
ATOM     17  C   UNL     1       3.279  13.786  21.683  0.00  0.00    +0.000 C 
ATOM     18  C   UNL     1       2.319  13.995  20.501  0.00  0.00    +0.000 C 
ATOM     19  C   UNL     1       1.604  15.365  20.607  0.00  0.00    +0.000 C 
ENDROOT
BRANCH   1  25
ATOM     20  C   UNL     1      -2.611  12.672  23.361  0.00  0.00    +0.000 C 
ATOM     21  C   UNL     1      -1.397  12.068  22.734  0.00  0.00    +0.000 A 
ATOM     22  C   UNL     1      -0.999  10.768  23.022  0.00  0.00    +0.000 A 
ATOM     23  N   UNL     1       0.073  10.168  22.475  0.00  0.00    +0.000 NA
ATOM     24  C   UNL     1       0.786  10.899  21.586  0.00  0.00    +0.000 A 
ATOM     25  C   UNL     1       0.494  12.204  21.210  0.00  0.00    +0.000 A 
ATOM     26  C   UNL     1      -0.625  12.790  21.814  0.00  0.00    +0.000 A 
ENDBRANCH   1  25
BRANCH  10  27
ATOM     27  N   UNL     1       9.775  14.795  19.479  0.00  0.00    +0.000 N 
ATOM     28  C   UNL     1      11.092  14.435  19.603  0.00  0.00    +0.000 C 
ATOM     29  O   UNL     1      11.991  15.207  19.900  0.00  0.00    +0.000 OA
ATOM     30  H   UNL     1       9.076  14.094  19.272  0.00  0.00    +0.000 HD
BRANCH  28  31
ATOM     31  C   UNL     1      11.393  13.012  19.260  0.00  0.00    +0.000 C 
ATOM     32  C   UNL     1      11.185  11.982  20.348  0.00  0.00    +0.000 C 
ATOM     33  C   UNL     1      10.315  11.960  19.127  0.00  0.00    +0.000 C 
ENDBRANCH  28  31
ENDBRANCH  10  27
TORSDOF 3
ENDMDL
MODEL 9
REMARK VINA RESULT:      -6.8      4.806     10.192
REMARK  Name = 
REMARK  6 active torsions:
REMARK  status: ('A' for Active; 'I' for Inactive)
REMARK    1  A    between atoms: C_1  and  C_2
REMARK    2  A    between atoms: C_6  and  C_7
REMARK    3  A    between atoms: C_16  and  N_17
REMARK    4  A    between atoms: C_18  and  C_20
REMARK    5  A    between atoms: C_25  and  C_26
REMARK    6  A    between atoms: C_30  and  C_31
REMARK                            x       y       z     vdW  Elec       q    Type
REMARK                         _______ _______ _______ _____ _____    ______ ____
ROOT
ATOM      1  C   UNL     1       1.742   9.917  18.641  0.00  0.00    +0.000 C 
ATOM      2  C   UNL     1       2.393  10.971  18.103  0.00  0.00    +0.000 C 
ATOM      3  C   UNL     1       1.620  12.249  18.274  0.00  0.00    +0.000 C 
ATOM      4  C   UNL     1       0.733  11.843  19.446  0.00  0.00    +0.000 C 
ATOM      5  C   UNL     1      -0.481  12.692  19.835  0.00  0.00    +0.000 C 
ATOM      6  C   UNL     1      -0.079  14.158  20.067  0.00  0.00    +0.000 C 
ATOM      7  C   UNL     1      -1.070  14.943  20.873  0.00  0.00    +0.000 C 
ATOM      8  C   UNL     1      -2.093  14.406  21.565  0.00  0.00    +0.000 C 
ATOM      9  C   UNL     1      -3.040  15.299  22.351  0.00  0.00    +0.000 C 
ATOM     10  C   UNL     1      -3.254  14.811  23.795  0.00  0.00    +0.000 C 
ATOM     11  C   UNL     1      -3.700  13.345  23.780  0.00  0.00    +0.000 C 
ATOM     12  C   UNL     1      -2.668  12.466  23.076  0.00  0.00    +0.000 C 
ATOM     13  C   UNL     1      -2.363  12.896  21.612  0.00  0.00    +0.000 C 
ATOM     14  C   UNL     1      -3.597  12.600  20.727  0.00  0.00    +0.000 C 
ATOM     15  C   UNL     1      -1.098  12.091  21.132  0.00  0.00    +0.000 C 
ATOM     16  C   UNL     1      -1.321  10.556  21.039  0.00  0.00    +0.000 C 
ATOM     17  C   UNL     1      -0.107   9.778  20.508  0.00  0.00    +0.000 C 
ATOM     18  C   UNL     1       0.383  10.358  19.171  0.00  0.00    +0.000 C 
ATOM     19  C   UNL     1      -0.683  10.163  18.063  0.00  0.00    +0.000 C 
ENDROOT
BRANCH   1  25
ATOM     20  C   UNL     1       4.571   6.245  16.707  0.00  0.00    +0.000 C 
ATOM     21  C   UNL     1       3.627   6.760  17.745  0.00  0.00    +0.000 A 
ATOM     22  C   UNL     1       3.240   5.981  18.829  0.00  0.00    +0.000 A 
ATOM     23  N   UNL     1       2.409   6.397  19.800  0.00  0.00    +0.000 NA
ATOM     24  C   UNL     1       1.941   7.663  19.691  0.00  0.00    +0.000 A 
ATOM     25  C   UNL     1       2.251   8.544  18.663  0.00  0.00    +0.000 A 
ATOM     26  C   UNL     1       3.112   8.061  17.669  0.00  0.00    +0.000 A 
ENDBRANCH   1  25
BRANCH  10  27
ATOM     27  N   UNL     1      -2.059  15.006  24.620  0.00  0.00    +0.000 N 
ATOM     28  C   UNL     1      -1.963  16.052  25.503  0.00  0.00    +0.000 C 
ATOM     29  O   UNL     1      -2.822  16.906  25.653  0.00  0.00    +0.000 OA
ATOM     30  H   UNL     1      -1.327  14.310  24.579  0.00  0.00    +0.000 HD
BRANCH  28  31
ATOM     31  C   UNL     1      -0.665  16.139  26.239  0.00  0.00    +0.000 C 
ATOM     32  C   UNL     1       0.274  17.260  25.851  0.00  0.00    +0.000 C 
ATOM     33  C   UNL     1      -0.354  17.254  27.212  0.00  0.00    +0.000 C 
ENDBRANCH  28  31
ENDBRANCH  10  27
TORSDOF 3
ENDMDL
