MODEL 1
REMARK VINA RESULT:      -7.5      0.000      0.000
REMARK  Name = 
REMARK  8 active torsions:
REMARK  status: ('A' for Active; 'I' for Inactive)
REMARK    1  A    between atoms: C_1  and  C_2
REMARK    2  A    between atoms: C_2  and  C_3
REMARK    3  A    between atoms: C_2  and  C_4
REMARK    4  A    between atoms: C_2  and  C_5
REMARK    5  A    between atoms: N_14  and  C_15
REMARK    6  A    between atoms: C_15  and  C_16
REMARK    7  A    between atoms: C_19  and  C_20
REMARK    8  A    between atoms: N_22  and  O_23
REMARK                            x       y       z     vdW  Elec       q    Type
REMARK                         _______ _______ _______ _____ _____    ______ ____
ROOT
ATOM      1  C   UNL     1      -1.520  14.791  23.067  0.00  0.00    +0.000 C 
ATOM      2  O   UNL     1      -1.883  14.338  24.164  0.00  0.00    +0.000 OA
ATOM      3  N   UNL     1      -0.831  13.966  22.184  0.00  0.00    +0.000 N 
ATOM      4  C   UNL     1      -0.767  12.526  22.473  0.00  0.00    +0.000 C 
ATOM      5  C   UNL     1      -1.453  11.730  21.356  0.00  0.00    +0.000 C 
ATOM      6  C   UNL     1      -0.892  12.085  19.961  0.00  0.00    +0.000 C 
ATOM      7  C   UNL     1      -0.902  13.610  19.757  0.00  0.00    +0.000 C 
ATOM      8  C   UNL     1      -0.206  14.325  20.915  0.00  0.00    +0.000 C 
ATOM      9  C   UNL     1       0.549  11.506  19.746  0.00  0.00    +0.000 C 
ATOM     10  N   UNL     1       0.498  10.608  18.599  0.00  0.00    +0.000 N 
ATOM     11  C   UNL     1      -0.791  10.564  18.123  0.00  0.00    +0.000 A 
ATOM     12  C   UNL     1      -1.285   9.834  17.055  0.00  0.00    +0.000 A 
ATOM     13  C   UNL     1      -2.641   9.933  16.718  0.00  0.00    +0.000 A 
ATOM     14  C   UNL     1      -3.492  10.766  17.452  0.00  0.00    +0.000 A 
ATOM     15  C   UNL     1      -3.002  11.503  18.527  0.00  0.00    +0.000 A 
ATOM     16  C   UNL     1      -1.653  11.388  18.854  0.00  0.00    +0.000 A 
ENDROOT
BRANCH   1  18
ATOM     17  C   UNL     1      -2.677  16.867  23.883  0.00  0.00    +0.000 C 
ATOM     18  C   UNL     1      -1.865  16.264  22.704  0.00  0.00    +0.000 C 
ATOM     19  C   UNL     1      -2.790  16.331  21.479  0.00  0.00    +0.000 C 
ATOM     20  C   UNL     1      -0.624  17.153  22.546  0.00  0.00    +0.000 C 
ENDBRANCH   1  18
BRANCH  10  21
ATOM     21  C   UNL     1       1.648   9.867  18.135  0.00  0.00    +0.000 C 
BRANCH  21  22
ATOM     22  C   UNL     1       1.764   8.535  18.845  0.00  0.00    +0.000 A 
ATOM     23  C   UNL     1       2.160   7.385  18.144  0.00  0.00    +0.000 A 
ATOM     24  C   UNL     1       2.209   6.143  18.777  0.00  0.00    +0.000 A 
ATOM     25  C   UNL     1       1.857   6.032  20.124  0.00  0.00    +0.000 A 
ATOM     26  C   UNL     1       1.519   7.180  20.851  0.00  0.00    +0.000 A 
ATOM     27  C   UNL     1       1.472   8.423  20.212  0.00  0.00    +0.000 A 
BRANCH  25  28
ATOM     28  C   UNL     1       1.840   4.678  20.737  0.00  0.00    +0.000 C 
ATOM     29  O   UNL     1       2.756   4.286  21.455  0.00  0.00    +0.000 OA
ATOM     30  N   UNL     1       0.784   3.862  20.389  0.00  0.00    +0.000 N 
ATOM     31  H   UNL     1       0.243   4.020  19.546  0.00  0.00    +0.000 HD
BRANCH  30  32
ATOM     32  O   UNL     1       0.928   2.511  20.784  0.00  0.00    +0.000 OA
ATOM     33  H   UNL     1       1.097   2.060  19.926  0.00  0.00    +0.000 HD
ENDBRANCH  30  32
ENDBRANCH  25  28
ENDBRANCH  21  22
ENDBRANCH  10  21
TORSDOF 5
ENDMDL
MODEL 2
REMARK VINA RESULT:      -7.4      0.689      1.381
REMARK  Name = 
REMARK  8 active torsions:
REMARK  status: ('A' for Active; 'I' for Inactive)
REMARK    1  A    between atoms: C_1  and  C_2
REMARK    2  A    between atoms: C_2  and  C_3
REMARK    3  A    between atoms: C_2  and  C_4
REMARK    4  A    between atoms: C_2  and  C_5
REMARK    5  A    between atoms: N_14  and  C_15
REMARK    6  A    between atoms: C_15  and  C_16
REMARK    7  A    between atoms: C_19  and  C_20
REMARK    8  A    between atoms: N_22  and  O_23
REMARK                            x       y       z     vdW  Elec       q    Type
REMARK                         _______ _______ _______ _____ _____    ______ ____
ROOT
ATOM      1  C   UNL     1      -1.812  14.679  23.345  0.00  0.00    +0.000 C 
ATOM      2  O   UNL     1      -2.118  14.173  24.436  0.00  0.00    +0.000 OA
ATOM      3  N   UNL     1      -1.056  13.940  22.441  0.00  0.00    +0.000 N 
ATOM      4  C   UNL     1      -0.851  12.508  22.702  0.00  0.00    +0.000 C 
ATOM      5  C   UNL     1      -1.469  11.670  21.576  0.00  0.00    +0.000 C 
ATOM      6  C   UNL     1      -0.959  12.102  20.183  0.00  0.00    +0.000 C 
ATOM      7  C   UNL     1      -1.117  13.622  20.008  0.00  0.00    +0.000 C 
ATOM      8  C   UNL     1      -0.482  14.380  21.174  0.00  0.00    +0.000 C 
ATOM      9  C   UNL     1       0.528  11.668  19.945  0.00  0.00    +0.000 C 
ATOM     10  N   UNL     1       0.552  10.790  18.782  0.00  0.00    +0.000 N 
ATOM     11  C   UNL     1      -0.732  10.631  18.317  0.00  0.00    +0.000 A 
ATOM     12  C   UNL     1      -1.165   9.876  17.239  0.00  0.00    +0.000 A 
ATOM     13  C   UNL     1      -2.527   9.850  16.916  0.00  0.00    +0.000 A 
ATOM     14  C   UNL     1      -3.447  10.584  17.672  0.00  0.00    +0.000 A 
ATOM     15  C   UNL     1      -3.018  11.345  18.757  0.00  0.00    +0.000 A 
ATOM     16  C   UNL     1      -1.662  11.355  19.071  0.00  0.00    +0.000 A 
ENDROOT
BRANCH   1  18
ATOM     17  C   UNL     1      -1.045  17.004  22.782  0.00  0.00    +0.000 C 
ATOM     18  C   UNL     1      -2.300  16.118  23.013  0.00  0.00    +0.000 C 
ATOM     19  C   UNL     1      -3.040  16.742  24.206  0.00  0.00    +0.000 C 
ATOM     20  C   UNL     1      -3.117  16.195  21.715  0.00  0.00    +0.000 C 
ENDBRANCH   1  18
BRANCH  10  21
ATOM     21  C   UNL     1       1.763  10.171  18.294  0.00  0.00    +0.000 C 
BRANCH  21  22
ATOM     22  C   UNL     1       1.865   8.731  18.751  0.00  0.00    +0.000 A 
ATOM     23  C   UNL     1       1.476   8.366  20.049  0.00  0.00    +0.000 A 
ATOM     24  C   UNL     1       1.627   7.053  20.498  0.00  0.00    +0.000 A 
ATOM     25  C   UNL     1       2.173   6.085  19.653  0.00  0.00    +0.000 A 
ATOM     26  C   UNL     1       2.508   6.421  18.335  0.00  0.00    +0.000 A 
ATOM     27  C   UNL     1       2.355   7.738  17.890  0.00  0.00    +0.000 A 
BRANCH  25  28
ATOM     28  C   UNL     1       2.395   4.721  20.198  0.00  0.00    +0.000 C 
ATOM     29  O   UNL     1       2.485   3.741  19.462  0.00  0.00    +0.000 OA
ATOM     30  N   UNL     1       2.411   4.606  21.572  0.00  0.00    +0.000 N 
ATOM     31  H   UNL     1       1.985   5.304  22.171  0.00  0.00    +0.000 HD
BRANCH  30  32
ATOM     32  O   UNL     1       2.372   3.275  22.053  0.00  0.00    +0.000 OA
ATOM     33  H   UNL     1       3.241   3.192  22.507  0.00  0.00    +0.000 HD
ENDBRANCH  30  32
ENDBRANCH  25  28
ENDBRANCH  21  22
ENDBRANCH  10  21
TORSDOF 5
ENDMDL
MODEL 3
REMARK VINA RESULT:      -7.4      2.407      8.575
REMARK  Name = 
REMARK  8 active torsions:
REMARK  status: ('A' for Active; 'I' for Inactive)
REMARK    1  A    between atoms: C_1  and  C_2
REMARK    2  A    between atoms: C_2  and  C_3
REMARK    3  A    between atoms: C_2  and  C_4
REMARK    4  A    between atoms: C_2  and  C_5
REMARK    5  A    between atoms: N_14  and  C_15
REMARK    6  A    between atoms: C_15  and  C_16
REMARK    7  A    between atoms: C_19  and  C_20
REMARK    8  A    between atoms: N_22  and  O_23
REMARK                            x       y       z     vdW  Elec       q    Type
REMARK                         _______ _______ _______ _____ _____    ______ ____
ROOT
ATOM      1  C   UNL     1       3.337   6.374  17.977  0.00  0.00    +0.000 C 
ATOM      2  O   UNL     1       4.160   6.507  17.058  0.00  0.00    +0.000 OA
ATOM      3  N   UNL     1       2.841   7.507  18.615  0.00  0.00    +0.000 N 
ATOM      4  C   UNL     1       3.119   8.824  18.023  0.00  0.00    +0.000 C 
ATOM      5  C   UNL     1       1.808   9.511  17.619  0.00  0.00    +0.000 C 
ATOM      6  C   UNL     1       0.804   9.582  18.791  0.00  0.00    +0.000 C 
ATOM      7  C   UNL     1       0.627   8.191  19.423  0.00  0.00    +0.000 C 
ATOM      8  C   UNL     1       1.977   7.577  19.789  0.00  0.00    +0.000 C 
ATOM      9  C   UNL     1       1.240  10.631  19.871  0.00  0.00    +0.000 C 
ATOM     10  N   UNL     1       0.181  11.628  19.971  0.00  0.00    +0.000 N 
ATOM     11  C   UNL     1      -0.813  11.316  19.075  0.00  0.00    +0.000 A 
ATOM     12  C   UNL     1      -1.994  11.997  18.834  0.00  0.00    +0.000 A 
ATOM     13  C   UNL     1      -2.891  11.509  17.876  0.00  0.00    +0.000 A 
ATOM     14  C   UNL     1      -2.601  10.338  17.168  0.00  0.00    +0.000 A 
ATOM     15  C   UNL     1      -1.414   9.648  17.404  0.00  0.00    +0.000 A 
ATOM     16  C   UNL     1      -0.529  10.151  18.354  0.00  0.00    +0.000 A 
ENDROOT
BRANCH   1  18
ATOM     17  C   UNL     1       3.807   3.925  17.676  0.00  0.00    +0.000 C 
ATOM     18  C   UNL     1       2.869   4.946  18.377  0.00  0.00    +0.000 C 
ATOM     19  C   UNL     1       1.458   4.655  17.843  0.00  0.00    +0.000 C 
ATOM     20  C   UNL     1       2.991   4.669  19.882  0.00  0.00    +0.000 C 
ENDBRANCH   1  18
BRANCH  10  21
ATOM     21  C   UNL     1       0.264  12.771  20.852  0.00  0.00    +0.000 C 
BRANCH  21  22
ATOM     22  C   UNL     1      -0.947  12.855  21.756  0.00  0.00    +0.000 A 
ATOM     23  C   UNL     1      -1.312  11.767  22.563  0.00  0.00    +0.000 A 
ATOM     24  C   UNL     1      -2.462  11.814  23.350  0.00  0.00    +0.000 A 
ATOM     25  C   UNL     1      -3.270  12.954  23.339  0.00  0.00    +0.000 A 
ATOM     26  C   UNL     1      -2.885  14.070  22.586  0.00  0.00    +0.000 A 
ATOM     27  C   UNL     1      -1.731  14.018  21.799  0.00  0.00    +0.000 A 
BRANCH  25  28
ATOM     28  C   UNL     1      -4.530  12.930  24.126  0.00  0.00    +0.000 C 
ATOM     29  O   UNL     1      -4.887  11.927  24.739  0.00  0.00    +0.000 OA
ATOM     30  N   UNL     1      -5.312  14.064  24.063  0.00  0.00    +0.000 N 
ATOM     31  H   UNL     1      -5.228  14.729  23.301  0.00  0.00    +0.000 HD
BRANCH  30  32
ATOM     32  O   UNL     1      -6.609  13.918  24.611  0.00  0.00    +0.000 OA
ATOM     33  H   UNL     1      -6.510  14.338  25.495  0.00  0.00    +0.000 HD
ENDBRANCH  30  32
ENDBRANCH  25  28
ENDBRANCH  21  22
ENDBRANCH  10  21
TORSDOF 5
ENDMDL
MODEL 4
REMARK VINA RESULT:      -7.3      1.278      1.739
REMARK  Name = 
REMARK  8 active torsions:
REMARK  status: ('A' for Active; 'I' for Inactive)
REMARK    1  A    between atoms: C_1  and  C_2
REMARK    2  A    between atoms: C_2  and  C_3
REMARK    3  A    between atoms: C_2  and  C_4
REMARK    4  A    between atoms: C_2  and  C_5
REMARK    5  A    between atoms: N_14  and  C_15
REMARK    6  A    between atoms: C_15  and  C_16
REMARK    7  A    between atoms: C_19  and  C_20
REMARK    8  A    between atoms: N_22  and  O_23
REMARK                            x       y       z     vdW  Elec       q    Type
REMARK                         _______ _______ _______ _____ _____    ______ ____
ROOT
ATOM      1  C   UNL     1      -3.037  14.874  23.852  0.00  0.00    +0.000 C 
ATOM      2  O   UNL     1      -3.259  14.261  24.907  0.00  0.00    +0.000 OA
ATOM      3  N   UNL     1      -2.181  14.316  22.908  0.00  0.00    +0.000 N 
ATOM      4  C   UNL     1      -1.761  12.919  23.080  0.00  0.00    +0.000 C 
ATOM      5  C   UNL     1      -2.248  12.069  21.900  0.00  0.00    +0.000 C 
ATOM      6  C   UNL     1      -1.815  12.660  20.540  0.00  0.00    +0.000 C 
ATOM      7  C   UNL     1      -2.203  14.147  20.459  0.00  0.00    +0.000 C 
ATOM      8  C   UNL     1      -1.685  14.917  21.674  0.00  0.00    +0.000 C 
ATOM      9  C   UNL     1      -0.280  12.472  20.284  0.00  0.00    +0.000 C 
ATOM     10  N   UNL     1      -0.128  11.682  19.068  0.00  0.00    +0.000 N 
ATOM     11  C   UNL     1      -1.375  11.360  18.586  0.00  0.00    +0.000 A 
ATOM     12  C   UNL     1      -1.693  10.618  17.461  0.00  0.00    +0.000 A 
ATOM     13  C   UNL     1      -3.036  10.405  17.129  0.00  0.00    +0.000 A 
ATOM     14  C   UNL     1      -4.053  10.943  17.925  0.00  0.00    +0.000 A 
ATOM     15  C   UNL     1      -3.741  11.690  19.058  0.00  0.00    +0.000 A 
ATOM     16  C   UNL     1      -2.401  11.886  19.379  0.00  0.00    +0.000 A 
ENDROOT
BRANCH   1  18
ATOM     17  C   UNL     1      -4.471  16.641  24.918  0.00  0.00    +0.000 C 
ATOM     18  C   UNL     1      -3.739  16.241  23.607  0.00  0.00    +0.000 C 
ATOM     19  C   UNL     1      -4.833  16.118  22.536  0.00  0.00    +0.000 C 
ATOM     20  C   UNL     1      -2.755  17.380  23.307  0.00  0.00    +0.000 C 
ENDBRANCH   1  18
BRANCH  10  21
ATOM     21  C   UNL     1       1.161  11.286  18.549  0.00  0.00    +0.000 C 
BRANCH  21  22
ATOM     22  C   UNL     1       1.466   9.842  18.886  0.00  0.00    +0.000 A 
ATOM     23  C   UNL     1       1.184   9.332  20.163  0.00  0.00    +0.000 A 
ATOM     24  C   UNL     1       1.521   8.021  20.500  0.00  0.00    +0.000 A 
ATOM     25  C   UNL     1       2.151   7.199  19.562  0.00  0.00    +0.000 A 
ATOM     26  C   UNL     1       2.383   7.675  18.266  0.00  0.00    +0.000 A 
ATOM     27  C   UNL     1       2.043   8.990  17.933  0.00  0.00    +0.000 A 
BRANCH  25  28
ATOM     28  C   UNL     1       2.569   5.839  19.989  0.00  0.00    +0.000 C 
ATOM     29  O   UNL     1       3.633   5.348  19.620  0.00  0.00    +0.000 OA
ATOM     30  N   UNL     1       1.664   5.131  20.751  0.00  0.00    +0.000 N 
ATOM     31  H   UNL     1       0.675   5.357  20.752  0.00  0.00    +0.000 HD
BRANCH  30  32
ATOM     32  O   UNL     1       1.982   3.763  20.926  0.00  0.00    +0.000 OA
ATOM     33  H   UNL     1       1.354   3.491  21.633  0.00  0.00    +0.000 HD
ENDBRANCH  30  32
ENDBRANCH  25  28
ENDBRANCH  21  22
ENDBRANCH  10  21
TORSDOF 5
ENDMDL
MODEL 5
REMARK VINA RESULT:      -7.1      0.809      1.448
REMARK  Name = 
REMARK  8 active torsions:
REMARK  status: ('A' for Active; 'I' for Inactive)
REMARK    1  A    between atoms: C_1  and  C_2
REMARK    2  A    between atoms: C_2  and  C_3
REMARK    3  A    between atoms: C_2  and  C_4
REMARK    4  A    between atoms: C_2  and  C_5
REMARK    5  A    between atoms: N_14  and  C_15
REMARK    6  A    between atoms: C_15  and  C_16
REMARK    7  A    between atoms: C_19  and  C_20
REMARK    8  A    between atoms: N_22  and  O_23
REMARK                            x       y       z     vdW  Elec       q    Type
REMARK                         _______ _______ _______ _____ _____    ______ ____
ROOT
ATOM      1  C   UNL     1      -1.865  14.941  23.292  0.00  0.00    +0.000 C 
ATOM      2  O   UNL     1      -2.127  14.460  24.405  0.00  0.00    +0.000 OA
ATOM      3  N   UNL     1      -1.120  14.193  22.386  0.00  0.00    +0.000 N 
ATOM      4  C   UNL     1      -0.875  12.775  22.680  0.00  0.00    +0.000 C 
ATOM      5  C   UNL     1      -1.507  11.892  21.596  0.00  0.00    +0.000 C 
ATOM      6  C   UNL     1      -1.050  12.296  20.177  0.00  0.00    +0.000 C 
ATOM      7  C   UNL     1      -1.247  13.807  19.965  0.00  0.00    +0.000 C 
ATOM      8  C   UNL     1      -0.594  14.610  21.090  0.00  0.00    +0.000 C 
ATOM      9  C   UNL     1       0.440  11.888  19.905  0.00  0.00    +0.000 C 
ATOM     10  N   UNL     1       0.448  10.978  18.767  0.00  0.00    +0.000 N 
ATOM     11  C   UNL     1      -0.845  10.778  18.345  0.00  0.00    +0.000 A 
ATOM     12  C   UNL     1      -1.293   9.984  17.303  0.00  0.00    +0.000 A 
ATOM     13  C   UNL     1      -2.664   9.919  17.022  0.00  0.00    +0.000 A 
ATOM     14  C   UNL     1      -3.576  10.654  17.786  0.00  0.00    +0.000 A 
ATOM     15  C   UNL     1      -3.133  11.454  18.837  0.00  0.00    +0.000 A 
ATOM     16  C   UNL     1      -1.768  11.502  19.107  0.00  0.00    +0.000 A 
ENDROOT
BRANCH   1  18
ATOM     17  C   UNL     1      -3.309  16.225  21.687  0.00  0.00    +0.000 C 
ATOM     18  C   UNL     1      -2.395  16.359  22.935  0.00  0.00    +0.000 C 
ATOM     19  C   UNL     1      -1.247  17.291  22.518  0.00  0.00    +0.000 C 
ATOM     20  C   UNL     1      -3.271  16.972  24.037  0.00  0.00    +0.000 C 
ENDBRANCH   1  18
BRANCH  10  21
ATOM     21  C   UNL     1       1.657  10.372  18.259  0.00  0.00    +0.000 C 
BRANCH  21  22
ATOM     22  C   UNL     1       1.797   8.943  18.737  0.00  0.00    +0.000 A 
ATOM     23  C   UNL     1       1.597   8.620  20.088  0.00  0.00    +0.000 A 
ATOM     24  C   UNL     1       1.786   7.316  20.547  0.00  0.00    +0.000 A 
ATOM     25  C   UNL     1       2.181   6.313  19.659  0.00  0.00    +0.000 A 
ATOM     26  C   UNL     1       2.324   6.608  18.297  0.00  0.00    +0.000 A 
ATOM     27  C   UNL     1       2.134   7.917  17.842  0.00  0.00    +0.000 A 
BRANCH  25  28
ATOM     28  C   UNL     1       2.453   4.958  20.204  0.00  0.00    +0.000 C 
ATOM     29  O   UNL     1       1.917   4.560  21.235  0.00  0.00    +0.000 OA
ATOM     30  N   UNL     1       3.398   4.208  19.536  0.00  0.00    +0.000 N 
ATOM     31  H   UNL     1       4.093   4.637  18.935  0.00  0.00    +0.000 HD
BRANCH  30  32
ATOM     32  O   UNL     1       3.813   3.039  20.218  0.00  0.00    +0.000 OA
ATOM     33  H   UNL     1       3.136   2.382  19.936  0.00  0.00    +0.000 HD
ENDBRANCH  30  32
ENDBRANCH  25  28
ENDBRANCH  21  22
ENDBRANCH  10  21
TORSDOF 5
ENDMDL
MODEL 6
REMARK VINA RESULT:      -7.1      4.470      7.326
REMARK  Name = 
REMARK  8 active torsions:
REMARK  status: ('A' for Active; 'I' for Inactive)
REMARK    1  A    between atoms: C_1  and  C_2
REMARK    2  A    between atoms: C_2  and  C_3
REMARK    3  A    between atoms: C_2  and  C_4
REMARK    4  A    between atoms: C_2  and  C_5
REMARK    5  A    between atoms: N_14  and  C_15
REMARK    6  A    between atoms: C_15  and  C_16
REMARK    7  A    between atoms: C_19  and  C_20
REMARK    8  A    between atoms: N_22  and  O_23
REMARK                            x       y       z     vdW  Elec       q    Type
REMARK                         _______ _______ _______ _____ _____    ______ ____
ROOT
ATOM      1  C   UNL     1       0.247  10.005  20.361  0.00  0.00    +0.000 C 
ATOM      2  O   UNL     1       0.051  10.356  21.534  0.00  0.00    +0.000 OA
ATOM      3  N   UNL     1       1.267   9.100  20.083  0.00  0.00    +0.000 N 
ATOM      4  C   UNL     1       1.918   8.409  21.205  0.00  0.00    +0.000 C 
ATOM      5  C   UNL     1       1.694   6.896  21.096  0.00  0.00    +0.000 C 
ATOM      6  C   UNL     1       2.127   6.341  19.721  0.00  0.00    +0.000 C 
ATOM      7  C   UNL     1       1.485   7.164  18.591  0.00  0.00    +0.000 C 
ATOM      8  C   UNL     1       1.749   8.657  18.779  0.00  0.00    +0.000 C 
ATOM      9  C   UNL     1       3.687   6.311  19.568  0.00  0.00    +0.000 C 
ATOM     10  N   UNL     1       4.083   4.927  19.340  0.00  0.00    +0.000 N 
ATOM     11  C   UNL     1       2.961   4.133  19.361  0.00  0.00    +0.000 A 
ATOM     12  C   UNL     1       2.880   2.760  19.196  0.00  0.00    +0.000 A 
ATOM     13  C   UNL     1       1.630   2.130  19.242  0.00  0.00    +0.000 A 
ATOM     14  C   UNL     1       0.469   2.881  19.450  0.00  0.00    +0.000 A 
ATOM     15  C   UNL     1       0.542   4.262  19.617  0.00  0.00    +0.000 A 
ATOM     16  C   UNL     1       1.793   4.872  19.576  0.00  0.00    +0.000 A 
ENDROOT
BRANCH   1  18
ATOM     17  C   UNL     1      -1.701  11.523  19.899  0.00  0.00    +0.000 C 
ATOM     18  C   UNL     1      -0.668  10.570  19.237  0.00  0.00    +0.000 C 
ATOM     19  C   UNL     1      -1.490   9.453  18.576  0.00  0.00    +0.000 C 
ATOM     20  C   UNL     1       0.093  11.419  18.209  0.00  0.00    +0.000 C 
ENDBRANCH   1  18
BRANCH  10  21
ATOM     21  C   UNL     1       5.462   4.523  19.189  0.00  0.00    +0.000 C 
BRANCH  21  22
ATOM     22  C   UNL     1       5.900   4.603  17.742  0.00  0.00    +0.000 A 
ATOM     23  C   UNL     1       4.980   4.390  16.705  0.00  0.00    +0.000 A 
ATOM     24  C   UNL     1       5.391   4.400  15.371  0.00  0.00    +0.000 A 
ATOM     25  C   UNL     1       6.733   4.621  15.055  0.00  0.00    +0.000 A 
ATOM     26  C   UNL     1       7.651   4.896  16.077  0.00  0.00    +0.000 A 
ATOM     27  C   UNL     1       7.234   4.885  17.412  0.00  0.00    +0.000 A 
BRANCH  25  28
ATOM     28  C   UNL     1       7.143   4.539  13.630  0.00  0.00    +0.000 C 
ATOM     29  O   UNL     1       7.839   5.407  13.110  0.00  0.00    +0.000 OA
ATOM     30  N   UNL     1       6.632   3.482  12.906  0.00  0.00    +0.000 N 
ATOM     31  H   UNL     1       5.795   2.989  13.200  0.00  0.00    +0.000 HD
BRANCH  30  32
ATOM     32  O   UNL     1       6.834   3.572  11.508  0.00  0.00    +0.000 OA
ATOM     33  H   UNL     1       6.319   2.803  11.173  0.00  0.00    +0.000 HD
ENDBRANCH  30  32
ENDBRANCH  25  28
ENDBRANCH  21  22
ENDBRANCH  10  21
TORSDOF 5
ENDMDL
MODEL 7
REMARK VINA RESULT:      -7.0      0.827      1.178
REMARK  Name = 
REMARK  8 active torsions:
REMARK  status: ('A' for Active; 'I' for Inactive)
REMARK    1  A    between atoms: C_1  and  C_2
REMARK    2  A    between atoms: C_2  and  C_3
REMARK    3  A    between atoms: C_2  and  C_4
REMARK    4  A    between atoms: C_2  and  C_5
REMARK    5  A    between atoms: N_14  and  C_15
REMARK    6  A    between atoms: C_15  and  C_16
REMARK    7  A    between atoms: C_19  and  C_20
REMARK    8  A    between atoms: N_22  and  O_23
REMARK                            x       y       z     vdW  Elec       q    Type
REMARK                         _______ _______ _______ _____ _____    ______ ____
ROOT
ATOM      1  C   UNL     1      -0.523  15.551  22.616  0.00  0.00    +0.000 C 
ATOM      2  O   UNL     1      -0.669  15.255  23.811  0.00  0.00    +0.000 OA
ATOM      3  N   UNL     1       0.038  14.620  21.747  0.00  0.00    +0.000 N 
ATOM      4  C   UNL     1       0.215  13.239  22.218  0.00  0.00    +0.000 C 
ATOM      5  C   UNL     1      -0.619  12.277  21.362  0.00  0.00    +0.000 C 
ATOM      6  C   UNL     1      -0.325  12.437  19.854  0.00  0.00    +0.000 C 
ATOM      7  C   UNL     1      -0.437  13.915  19.445  0.00  0.00    +0.000 C 
ATOM      8  C   UNL     1       0.417  14.803  20.350  0.00  0.00    +0.000 C 
ATOM      9  C   UNL     1       1.081  11.860  19.469  0.00  0.00    +0.000 C 
ATOM     10  N   UNL     1       0.871  10.804  18.486  0.00  0.00    +0.000 N 
ATOM     11  C   UNL     1      -0.477  10.668  18.258  0.00  0.00    +0.000 A 
ATOM     12  C   UNL     1      -1.117   9.782  17.407  0.00  0.00    +0.000 A 
ATOM     13  C   UNL     1      -2.514   9.805  17.307  0.00  0.00    +0.000 A 
ATOM     14  C   UNL     1      -3.260  10.720  18.057  0.00  0.00    +0.000 A 
ATOM     15  C   UNL     1      -2.624  11.613  18.915  0.00  0.00    +0.000 A 
ATOM     16  C   UNL     1      -1.235  11.572  19.009  0.00  0.00    +0.000 A 
ENDROOT
BRANCH   1  18
ATOM     17  C   UNL     1       0.266  17.724  21.632  0.00  0.00    +0.000 C 
ATOM     18  C   UNL     1      -0.990  16.949  22.118  0.00  0.00    +0.000 C 
ATOM     19  C   UNL     1      -1.576  17.780  23.269  0.00  0.00    +0.000 C 
ATOM     20  C   UNL     1      -1.936  16.877  20.911  0.00  0.00    +0.000 C 
ENDBRANCH   1  18
BRANCH  10  21
ATOM     21  C   UNL     1       1.954  10.025  17.932  0.00  0.00    +0.000 C 
BRANCH  21  22
ATOM     22  C   UNL     1       2.032   8.658  18.577  0.00  0.00    +0.000 A 
ATOM     23  C   UNL     1       2.565   7.566  17.874  0.00  0.00    +0.000 A 
ATOM     24  C   UNL     1       2.581   6.291  18.439  0.00  0.00    +0.000 A 
ATOM     25  C   UNL     1       2.059   6.087  19.719  0.00  0.00    +0.000 A 
ATOM     26  C   UNL     1       1.581   7.178  20.456  0.00  0.00    +0.000 A 
ATOM     27  C   UNL     1       1.567   8.454  19.885  0.00  0.00    +0.000 A 
BRANCH  25  28
ATOM     28  C   UNL     1       2.018   4.700  20.249  0.00  0.00    +0.000 C 
ATOM     29  O   UNL     1       3.023   3.993  20.278  0.00  0.00    +0.000 OA
ATOM     30  N   UNL     1       0.780   4.225  20.626  0.00  0.00    +0.000 N 
ATOM     31  H   UNL     1      -0.079   4.637  20.277  0.00  0.00    +0.000 HD
BRANCH  30  32
ATOM     32  O   UNL     1       0.735   2.834  20.885  0.00  0.00    +0.000 OA
ATOM     33  H   UNL     1       0.542   2.808  21.849  0.00  0.00    +0.000 HD
ENDBRANCH  30  32
ENDBRANCH  25  28
ENDBRANCH  21  22
ENDBRANCH  10  21
TORSDOF 5
ENDMDL
MODEL 8
REMARK VINA RESULT:      -7.0      1.659      2.047
REMARK  Name = 
REMARK  8 active torsions:
REMARK  status: ('A' for Active; 'I' for Inactive)
REMARK    1  A    between atoms: C_1  and  C_2
REMARK    2  A    between atoms: C_2  and  C_3
REMARK    3  A    between atoms: C_2  and  C_4
REMARK    4  A    between atoms: C_2  and  C_5
REMARK    5  A    between atoms: N_14  and  C_15
REMARK    6  A    between atoms: C_15  and  C_16
REMARK    7  A    between atoms: C_19  and  C_20
REMARK    8  A    between atoms: N_22  and  O_23
REMARK                            x       y       z     vdW  Elec       q    Type
REMARK                         _______ _______ _______ _____ _____    ______ ____
ROOT
ATOM      1  C   UNL     1       0.793  16.265  21.481  0.00  0.00    +0.000 C 
ATOM      2  O   UNL     1       0.730  16.222  22.719  0.00  0.00    +0.000 OA
ATOM      3  N   UNL     1       1.167  15.123  20.779  0.00  0.00    +0.000 N 
ATOM      4  C   UNL     1       1.239  13.846  21.503  0.00  0.00    +0.000 C 
ATOM      5  C   UNL     1       0.230  12.849  20.920  0.00  0.00    +0.000 C 
ATOM      6  C   UNL     1       0.395  12.680  19.393  0.00  0.00    +0.000 C 
ATOM      7  C   UNL     1       0.403  14.056  18.705  0.00  0.00    +0.000 C 
ATOM      8  C   UNL     1       1.428  14.988  19.349  0.00  0.00    +0.000 C 
ATOM      9  C   UNL     1       1.688  11.871  19.031  0.00  0.00    +0.000 C 
ATOM     10  N   UNL     1       1.274  10.682  18.297  0.00  0.00    +0.000 N 
ATOM     11  C   UNL     1      -0.097  10.672  18.199  0.00  0.00    +0.000 A 
ATOM     12  C   UNL     1      -0.905   9.725  17.592  0.00  0.00    +0.000 A 
ATOM     13  C   UNL     1      -2.295   9.901  17.590  0.00  0.00    +0.000 A 
ATOM     14  C   UNL     1      -2.865  11.027  18.194  0.00  0.00    +0.000 A 
ATOM     15  C   UNL     1      -2.058  11.982  18.807  0.00  0.00    +0.000 A 
ATOM     16  C   UNL     1      -0.679  11.789  18.807  0.00  0.00    +0.000 A 
ENDROOT
BRANCH   1  18
ATOM     17  C   UNL     1       0.021  18.631  21.823  0.00  0.00    +0.000 C 
ATOM     18  C   UNL     1       0.433  17.589  20.748  0.00  0.00    +0.000 C 
ATOM     19  C   UNL     1      -0.798  17.406  19.846  0.00  0.00    +0.000 C 
ATOM     20  C   UNL     1       1.620  18.205  19.994  0.00  0.00    +0.000 C 
ENDBRANCH   1  18
BRANCH  10  21
ATOM     21  C   UNL     1       2.211   9.684  17.834  0.00  0.00    +0.000 C 
BRANCH  21  22
ATOM     22  C   UNL     1       2.033   8.378  18.579  0.00  0.00    +0.000 A 
ATOM     23  C   UNL     1       1.656   8.373  19.931  0.00  0.00    +0.000 A 
ATOM     24  C   UNL     1       1.552   7.176  20.640  0.00  0.00    +0.000 A 
ATOM     25  C   UNL     1       1.827   5.962  20.006  0.00  0.00    +0.000 A 
ATOM     26  C   UNL     1       2.144   5.948  18.642  0.00  0.00    +0.000 A 
ATOM     27  C   UNL     1       2.247   7.150  17.935  0.00  0.00    +0.000 A 
BRANCH  25  28
ATOM     28  C   UNL     1       1.787   4.720  20.819  0.00  0.00    +0.000 C 
ATOM     29  O   UNL     1       2.638   4.482  21.672  0.00  0.00    +0.000 OA
ATOM     30  N   UNL     1       0.793   3.816  20.507  0.00  0.00    +0.000 N 
ATOM     31  H   UNL     1       0.333   3.819  19.603  0.00  0.00    +0.000 HD
BRANCH  30  32
ATOM     32  O   UNL     1       0.935   2.548  21.121  0.00  0.00    +0.000 OA
ATOM     33  H   UNL     1       1.819   2.259  20.801  0.00  0.00    +0.000 HD
ENDBRANCH  30  32
ENDBRANCH  25  28
ENDBRANCH  21  22
ENDBRANCH  10  21
TORSDOF 5
ENDMDL
MODEL 9
REMARK VINA RESULT:      -6.9      2.940      3.654
REMARK  Name = 
REMARK  8 active torsions:
REMARK  status: ('A' for Active; 'I' for Inactive)
REMARK    1  A    between atoms: C_1  and  C_2
REMARK    2  A    between atoms: C_2  and  C_3
REMARK    3  A    between atoms: C_2  and  C_4
REMARK    4  A    between atoms: C_2  and  C_5
REMARK    5  A    between atoms: N_14  and  C_15
REMARK    6  A    between atoms: C_15  and  C_16
REMARK    7  A    between atoms: C_19  and  C_20
REMARK    8  A    between atoms: N_22  and  O_23
REMARK                            x       y       z     vdW  Elec       q    Type
REMARK                         _______ _______ _______ _____ _____    ______ ____
ROOT
ATOM      1  C   UNL     1       1.674  16.297  21.043  0.00  0.00    +0.000 C 
ATOM      2  O   UNL     1       1.047  16.891  21.933  0.00  0.00    +0.000 OA
ATOM      3  N   UNL     1       1.643  14.907  21.000  0.00  0.00    +0.000 N 
ATOM      4  C   UNL     1       0.682  14.199  21.857  0.00  0.00    +0.000 C 
ATOM      5  C   UNL     1      -0.310  13.405  20.998  0.00  0.00    +0.000 C 
ATOM      6  C   UNL     1       0.406  12.466  20.002  0.00  0.00    +0.000 C 
ATOM      7  C   UNL     1       1.462  13.248  19.201  0.00  0.00    +0.000 C 
ATOM      8  C   UNL     1       2.402  14.014  20.130  0.00  0.00    +0.000 C 
ATOM      9  C   UNL     1       1.057  11.235  20.723  0.00  0.00    +0.000 C 
ATOM     10  N   UNL     1       0.454  10.030  20.169  0.00  0.00    +0.000 N 
ATOM     11  C   UNL     1      -0.484  10.389  19.231  0.00  0.00    +0.000 A 
ATOM     12  C   UNL     1      -1.294   9.564  18.469  0.00  0.00    +0.000 A 
ATOM     13  C   UNL     1      -2.189  10.128  17.551  0.00  0.00    +0.000 A 
ATOM     14  C   UNL     1      -2.262  11.517  17.399  0.00  0.00    +0.000 A 
ATOM     15  C   UNL     1      -1.451  12.353  18.162  0.00  0.00    +0.000 A 
ATOM     16  C   UNL     1      -0.573  11.777  19.076  0.00  0.00    +0.000 A 
ENDROOT
BRANCH   1  18
ATOM     17  C   UNL     1       2.226  18.631  20.294  0.00  0.00    +0.000 C 
ATOM     18  C   UNL     1       2.459  17.126  19.987  0.00  0.00    +0.000 C 
ATOM     19  C   UNL     1       1.902  16.895  18.574  0.00  0.00    +0.000 C 
ATOM     20  C   UNL     1       3.977  16.910  20.056  0.00  0.00    +0.000 C 
ENDBRANCH   1  18
BRANCH  10  21
ATOM     21  C   UNL     1       0.794   8.703  20.630  0.00  0.00    +0.000 C 
BRANCH  21  22
ATOM     22  C   UNL     1       1.723   8.007  19.659  0.00  0.00    +0.000 A 
ATOM     23  C   UNL     1       2.242   6.737  19.953  0.00  0.00    +0.000 A 
ATOM     24  C   UNL     1       3.149   6.118  19.093  0.00  0.00    +0.000 A 
ATOM     25  C   UNL     1       3.554   6.764  17.923  0.00  0.00    +0.000 A 
ATOM     26  C   UNL     1       2.998   8.004  17.586  0.00  0.00    +0.000 A 
ATOM     27  C   UNL     1       2.090   8.621  18.452  0.00  0.00    +0.000 A 
BRANCH  25  28
ATOM     28  C   UNL     1       4.585   6.107  17.078  0.00  0.00    +0.000 C 
ATOM     29  O   UNL     1       4.723   4.886  17.065  0.00  0.00    +0.000 OA
ATOM     30  N   UNL     1       5.427   6.945  16.378  0.00  0.00    +0.000 N 
ATOM     31  H   UNL     1       5.569   7.911  16.653  0.00  0.00    +0.000 HD
BRANCH  30  32
ATOM     32  O   UNL     1       6.544   6.303  15.791  0.00  0.00    +0.000 OA
ATOM     33  H   UNL     1       6.119   5.709  15.131  0.00  0.00    +0.000 HD
ENDBRANCH  30  32
ENDBRANCH  25  28
ENDBRANCH  21  22
ENDBRANCH  10  21
TORSDOF 5
ENDMDL
