MODEL 1
REMARK VINA RESULT:      -7.6      0.000      0.000
REMARK  Name = 
REMARK  5 active torsions:
REMARK  status: ('A' for Active; 'I' for Inactive)
REMARK    1  A    between atoms: C_1  and  O_2
REMARK    2  A    between atoms: O_2  and  C_3
REMARK    3  A    between atoms: C_6  and  O_7
REMARK    4  A    between atoms: O_7  and  C_8
REMARK    5  A    between atoms: C_9  and  C_10
REMARK                            x       y       z     vdW  Elec       q    Type
REMARK                         _______ _______ _______ _____ _____    ______ ____
ROOT
ATOM      1  C   UNL     1       3.876   4.734  16.997  0.00  0.00    +0.000 C 
ATOM      2  N   UNL     1       3.461   6.077  17.528  0.00  0.00    +0.000 NA
ATOM      3  C   UNL     1       4.019   6.292  18.681  0.00  0.00    +0.000 C 
ATOM      4  N   UNL     1       3.337   7.113  19.514  0.00  0.00    +0.000 N 
ATOM      5  N   UNL     1       4.966   5.507  19.321  0.00  0.00    +0.000 N 
ATOM      6  C   UNL     1       4.780   4.172  19.197  0.00  0.00    +0.000 A 
ATOM      7  N   UNL     1       4.795   3.297  20.172  0.00  0.00    +0.000 NA
ATOM      8  C   UNL     1       3.478   2.918  20.200  0.00  0.00    +0.000 A 
ATOM      9  C   UNL     1       2.776   2.414  21.316  0.00  0.00    +0.000 A 
ATOM     10  C   UNL     1       1.384   2.370  21.286  0.00  0.00    +0.000 A 
ATOM     11  C   UNL     1       0.709   2.761  20.130  0.00  0.00    +0.000 A 
ATOM     12  C   UNL     1       1.402   3.208  18.964  0.00  0.00    +0.000 A 
ATOM     13  C   UNL     1       2.818   3.288  19.008  0.00  0.00    +0.000 A 
ATOM     14  N   UNL     1       3.890   3.803  18.200  0.00  0.00    +0.000 N 
ATOM     15  H   UNL     1       2.637   7.585  18.948  0.00  0.00    +0.000 HD
ATOM     16  H   UNL     1       2.761   6.502  20.116  0.00  0.00    +0.000 HD
ATOM     17  H   UNL     1       5.198   5.810  20.252  0.00  0.00    +0.000 HD
ENDROOT
BRANCH   1  22
ATOM     18  C   UNL     1       5.999   4.013  13.725  0.00  0.00    +0.000 A 
ATOM     19  C   UNL     1       7.264   4.488  13.993  0.00  0.00    +0.000 A 
ATOM     20  C   UNL     1       7.461   5.132  15.211  0.00  0.00    +0.000 A 
ATOM     21  C   UNL     1       6.443   5.298  16.206  0.00  0.00    +0.000 A 
ATOM     22  C   UNL     1       5.115   4.864  15.971  0.00  0.00    +0.000 A 
ATOM     23  C   UNL     1       4.945   4.216  14.666  0.00  0.00    +0.000 A 
BRANCH  18  25
ATOM     24  C   UNL     1       4.827   3.255  11.788  0.00  0.00    +0.000 C 
ATOM     25  O   UNL     1       5.973   3.204  12.619  0.00  0.00    +0.000 OA
ENDBRANCH  18  25
BRANCH  21  26
ATOM     26  O   UNL     1       7.081   5.768  17.315  0.00  0.00    +0.000 OA
ATOM     27  C   UNL     1       7.458   7.110  17.444  0.00  0.00    +0.000 C 
ENDBRANCH  21  26
ENDBRANCH   1  22
TORSDOF 3
ENDMDL
MODEL 2
REMARK VINA RESULT:      -7.2      2.878      6.543
REMARK  Name = 
REMARK  5 active torsions:
REMARK  status: ('A' for Active; 'I' for Inactive)
REMARK    1  A    between atoms: C_1  and  O_2
REMARK    2  A    between atoms: O_2  and  C_3
REMARK    3  A    between atoms: C_6  and  O_7
REMARK    4  A    between atoms: O_7  and  C_8
REMARK    5  A    between atoms: C_9  and  C_10
REMARK                            x       y       z     vdW  Elec       q    Type
REMARK                         _______ _______ _______ _____ _____    ______ ____
ROOT
ATOM      1  C   UNL     1       3.256   5.487  17.707  0.00  0.00    +0.000 C 
ATOM      2  N   UNL     1       3.652   4.251  18.464  0.00  0.00    +0.000 NA
ATOM      3  C   UNL     1       4.860   4.379  18.925  0.00  0.00    +0.000 C 
ATOM      4  N   UNL     1       5.544   3.223  19.095  0.00  0.00    +0.000 N 
ATOM      5  N   UNL     1       5.667   5.506  18.880  0.00  0.00    +0.000 N 
ATOM      6  C   UNL     1       5.588   6.219  17.733  0.00  0.00    +0.000 A 
ATOM      7  N   UNL     1       6.600   6.641  17.015  0.00  0.00    +0.000 NA
ATOM      8  C   UNL     1       6.463   5.867  15.893  0.00  0.00    +0.000 A 
ATOM      9  C   UNL     1       7.494   5.488  15.006  0.00  0.00    +0.000 A 
ATOM     10  C   UNL     1       7.270   4.454  14.099  0.00  0.00    +0.000 A 
ATOM     11  C   UNL     1       6.013   3.856  14.035  0.00  0.00    +0.000 A 
ATOM     12  C   UNL     1       4.933   4.272  14.874  0.00  0.00    +0.000 A 
ATOM     13  C   UNL     1       5.172   5.299  15.823  0.00  0.00    +0.000 A 
ATOM     14  N   UNL     1       4.497   5.911  16.935  0.00  0.00    +0.000 N 
ATOM     15  H   UNL     1       4.862   2.471  19.049  0.00  0.00    +0.000 HD
ATOM     16  H   UNL     1       6.090   3.080  18.230  0.00  0.00    +0.000 HD
ATOM     17  H   UNL     1       6.604   5.360  19.216  0.00  0.00    +0.000 HD
ENDROOT
BRANCH   1  22
ATOM     18  C   UNL     1       1.712   8.951  18.867  0.00  0.00    +0.000 A 
ATOM     19  C   UNL     1       1.316   8.761  20.173  0.00  0.00    +0.000 A 
ATOM     20  C   UNL     1       1.459   7.483  20.705  0.00  0.00    +0.000 A 
ATOM     21  C   UNL     1       2.020   6.374  19.992  0.00  0.00    +0.000 A 
ATOM     22  C   UNL     1       2.410   6.500  18.636  0.00  0.00    +0.000 A 
ATOM     23  C   UNL     1       2.216   7.855  18.106  0.00  0.00    +0.000 A 
BRANCH  18  25
ATOM     24  C   UNL     1       0.672  11.099  18.950  0.00  0.00    +0.000 C 
ATOM     25  O   UNL     1       1.744  10.278  18.524  0.00  0.00    +0.000 OA
ENDBRANCH  18  25
BRANCH  21  26
ATOM     26  O   UNL     1       2.187   5.384  20.915  0.00  0.00    +0.000 OA
ATOM     27  C   UNL     1       1.443   4.199  20.878  0.00  0.00    +0.000 C 
ENDBRANCH  21  26
ENDBRANCH   1  22
TORSDOF 3
ENDMDL
MODEL 3
REMARK VINA RESULT:      -6.8      3.178      6.730
REMARK  Name = 
REMARK  5 active torsions:
REMARK  status: ('A' for Active; 'I' for Inactive)
REMARK    1  A    between atoms: C_1  and  O_2
REMARK    2  A    between atoms: O_2  and  C_3
REMARK    3  A    between atoms: C_6  and  O_7
REMARK    4  A    between atoms: O_7  and  C_8
REMARK    5  A    between atoms: C_9  and  C_10
REMARK                            x       y       z     vdW  Elec       q    Type
REMARK                         _______ _______ _______ _____ _____    ______ ____
ROOT
ATOM      1  C   UNL     1       2.847   6.058  17.892  0.00  0.00    +0.000 C 
ATOM      2  N   UNL     1       2.279   4.699  17.593  0.00  0.00    +0.000 NA
ATOM      3  C   UNL     1       2.961   3.786  18.214  0.00  0.00    +0.000 C 
ATOM      4  N   UNL     1       2.970   2.566  17.627  0.00  0.00    +0.000 N 
ATOM      5  N   UNL     1       3.983   3.971  19.133  0.00  0.00    +0.000 N 
ATOM      6  C   UNL     1       4.825   4.992  18.852  0.00  0.00    +0.000 A 
ATOM      7  N   UNL     1       6.135   4.935  18.850  0.00  0.00    +0.000 NA
ATOM      8  C   UNL     1       6.399   5.079  17.514  0.00  0.00    +0.000 A 
ATOM      9  C   UNL     1       7.538   4.603  16.829  0.00  0.00    +0.000 A 
ATOM     10  C   UNL     1       7.524   4.545  15.437  0.00  0.00    +0.000 A 
ATOM     11  C   UNL     1       6.415   5.020  14.740  0.00  0.00    +0.000 A 
ATOM     12  C   UNL     1       5.280   5.573  15.410  0.00  0.00    +0.000 A 
ATOM     13  C   UNL     1       5.278   5.597  16.828  0.00  0.00    +0.000 A 
ATOM     14  N   UNL     1       4.358   5.880  17.896  0.00  0.00    +0.000 N 
ATOM     15  H   UNL     1       2.225   2.570  16.936  0.00  0.00    +0.000 HD
ATOM     16  H   UNL     1       3.818   2.533  17.038  0.00  0.00    +0.000 HD
ATOM     17  H   UNL     1       4.439   3.123  19.426  0.00  0.00    +0.000 HD
ENDROOT
BRANCH   1  22
ATOM     18  C   UNL     1       1.274   9.070  19.939  0.00  0.00    +0.000 A 
ATOM     19  C   UNL     1       0.997   8.562  21.189  0.00  0.00    +0.000 A 
ATOM     20  C   UNL     1       1.234   7.207  21.397  0.00  0.00    +0.000 A 
ATOM     21  C   UNL     1       1.775   6.325  20.405  0.00  0.00    +0.000 A 
ATOM     22  C   UNL     1       2.043   6.781  19.091  0.00  0.00    +0.000 A 
ATOM     23  C   UNL     1       1.754   8.208  18.907  0.00  0.00    +0.000 A 
BRANCH  18  25
ATOM     24  C   UNL     1       0.178  11.079  20.616  0.00  0.00    +0.000 C 
ATOM     25  O   UNL     1       1.227  10.439  19.912  0.00  0.00    +0.000 OA
ENDBRANCH  18  25
BRANCH  21  26
ATOM     26  O   UNL     1       2.057   5.161  21.056  0.00  0.00    +0.000 OA
ATOM     27  C   UNL     1       1.207   4.050  20.997  0.00  0.00    +0.000 C 
ENDBRANCH  21  26
ENDBRANCH   1  22
TORSDOF 3
ENDMDL
MODEL 4
REMARK VINA RESULT:      -6.8      2.711      6.425
REMARK  Name = 
REMARK  5 active torsions:
REMARK  status: ('A' for Active; 'I' for Inactive)
REMARK    1  A    between atoms: C_1  and  O_2
REMARK    2  A    between atoms: O_2  and  C_3
REMARK    3  A    between atoms: C_6  and  O_7
REMARK    4  A    between atoms: O_7  and  C_8
REMARK    5  A    between atoms: C_9  and  C_10
REMARK                            x       y       z     vdW  Elec       q    Type
REMARK                         _______ _______ _______ _____ _____    ______ ____
ROOT
ATOM      1  C   UNL     1       3.005   5.071  17.548  0.00  0.00    +0.000 C 
ATOM      2  N   UNL     1       2.860   3.581  17.690  0.00  0.00    +0.000 NA
ATOM      3  C   UNL     1       3.923   3.082  18.242  0.00  0.00    +0.000 C 
ATOM      4  N   UNL     1       4.198   1.796  17.919  0.00  0.00    +0.000 N 
ATOM      5  N   UNL     1       5.007   3.770  18.767  0.00  0.00    +0.000 N 
ATOM      6  C   UNL     1       5.385   4.862  18.064  0.00  0.00    +0.000 A 
ATOM      7  N   UNL     1       6.606   5.153  17.687  0.00  0.00    +0.000 NA
ATOM      8  C   UNL     1       6.502   4.998  16.330  0.00  0.00    +0.000 A 
ATOM      9  C   UNL     1       7.550   4.672  15.441  0.00  0.00    +0.000 A 
ATOM     10  C   UNL     1       7.245   4.241  14.152  0.00  0.00    +0.000 A 
ATOM     11  C   UNL     1       5.915   4.203  13.737  0.00  0.00    +0.000 A 
ATOM     12  C   UNL     1       4.842   4.595  14.596  0.00  0.00    +0.000 A 
ATOM     13  C   UNL     1       5.150   4.998  15.921  0.00  0.00    +0.000 A 
ATOM     14  N   UNL     1       4.452   5.305  17.139  0.00  0.00    +0.000 N 
ATOM     15  H   UNL     1       3.357   1.418  17.490  0.00  0.00    +0.000 HD
ATOM     16  H   UNL     1       4.856   1.831  17.123  0.00  0.00    +0.000 HD
ATOM     17  H   UNL     1       5.768   3.183  19.066  0.00  0.00    +0.000 HD
ENDROOT
BRANCH   1  22
ATOM     18  C   UNL     1       1.561   8.173  19.554  0.00  0.00    +0.000 A 
ATOM     19  C   UNL     1       1.413   7.737  20.852  0.00  0.00    +0.000 A 
ATOM     20  C   UNL     1       1.698   6.401  21.115  0.00  0.00    +0.000 A 
ATOM     21  C   UNL     1       2.164   5.470  20.130  0.00  0.00    +0.000 A 
ATOM     22  C   UNL     1       2.300   5.851  18.772  0.00  0.00    +0.000 A 
ATOM     23  C   UNL     1       1.963   7.259  18.534  0.00  0.00    +0.000 A 
BRANCH  18  25
ATOM     24  C   UNL     1       1.729  10.123  18.187  0.00  0.00    +0.000 C 
ATOM     25  O   UNL     1       1.482   9.537  19.452  0.00  0.00    +0.000 OA
ENDBRANCH  18  25
BRANCH  21  26
ATOM     26  O   UNL     1       2.531   4.352  20.819  0.00  0.00    +0.000 OA
ATOM     27  C   UNL     1       1.596   3.401  21.247  0.00  0.00    +0.000 C 
ENDBRANCH  21  26
ENDBRANCH   1  22
TORSDOF 3
ENDMDL
MODEL 5
REMARK VINA RESULT:      -6.8      1.355      1.633
REMARK  Name = 
REMARK  5 active torsions:
REMARK  status: ('A' for Active; 'I' for Inactive)
REMARK    1  A    between atoms: C_1  and  O_2
REMARK    2  A    between atoms: O_2  and  C_3
REMARK    3  A    between atoms: C_6  and  O_7
REMARK    4  A    between atoms: O_7  and  C_8
REMARK    5  A    between atoms: C_9  and  C_10
REMARK                            x       y       z     vdW  Elec       q    Type
REMARK                         _______ _______ _______ _____ _____    ______ ____
ROOT
ATOM      1  C   UNL     1       4.554   5.190  16.827  0.00  0.00    +0.000 C 
ATOM      2  N   UNL     1       5.372   5.656  17.999  0.00  0.00    +0.000 NA
ATOM      3  C   UNL     1       5.786   4.635  18.686  0.00  0.00    +0.000 C 
ATOM      4  N   UNL     1       6.004   4.869  20.002  0.00  0.00    +0.000 N 
ATOM      5  N   UNL     1       5.647   3.292  18.372  0.00  0.00    +0.000 N 
ATOM      6  C   UNL     1       4.462   2.956  17.813  0.00  0.00    +0.000 A 
ATOM      7  N   UNL     1       3.689   1.963  18.180  0.00  0.00    +0.000 NA
ATOM      8  C   UNL     1       2.621   2.646  18.699  0.00  0.00    +0.000 A 
ATOM      9  C   UNL     1       1.726   2.176  19.686  0.00  0.00    +0.000 A 
ATOM     10  C   UNL     1       0.891   3.081  20.338  0.00  0.00    +0.000 A 
ATOM     11  C   UNL     1       0.903   4.422  19.961  0.00  0.00    +0.000 A 
ATOM     12  C   UNL     1       1.748   4.907  18.916  0.00  0.00    +0.000 A 
ATOM     13  C   UNL     1       2.626   3.994  18.277  0.00  0.00    +0.000 A 
ATOM     14  N   UNL     1       3.719   4.028  17.345  0.00  0.00    +0.000 N 
ATOM     15  H   UNL     1       6.025   5.878  20.119  0.00  0.00    +0.000 HD
ATOM     16  H   UNL     1       5.133   4.607  20.491  0.00  0.00    +0.000 HD
ATOM     17  H   UNL     1       5.962   2.661  19.091  0.00  0.00    +0.000 HD
ENDROOT
BRANCH   1  22
ATOM     18  C   UNL     1       5.637   3.887  13.241  0.00  0.00    +0.000 A 
ATOM     19  C   UNL     1       6.929   4.329  13.061  0.00  0.00    +0.000 A 
ATOM     20  C   UNL     1       7.475   5.133  14.057  0.00  0.00    +0.000 A 
ATOM     21  C   UNL     1       6.788   5.496  15.263  0.00  0.00    +0.000 A 
ATOM     22  C   UNL     1       5.446   5.103  15.485  0.00  0.00    +0.000 A 
ATOM     23  C   UNL     1       4.901   4.281  14.399  0.00  0.00    +0.000 A 
BRANCH  18  25
ATOM     24  C   UNL     1       4.278   3.247  11.385  0.00  0.00    +0.000 C 
ATOM     25  O   UNL     1       5.285   2.928  12.328  0.00  0.00    +0.000 OA
ENDBRANCH  18  25
BRANCH  21  26
ATOM     26  O   UNL     1       7.723   6.090  16.058  0.00  0.00    +0.000 OA
ATOM     27  C   UNL     1       7.477   7.296  16.724  0.00  0.00    +0.000 C 
ENDBRANCH  21  26
ENDBRANCH   1  22
TORSDOF 3
ENDMDL
MODEL 6
REMARK VINA RESULT:      -6.7      1.482      2.295
REMARK  Name = 
REMARK  5 active torsions:
REMARK  status: ('A' for Active; 'I' for Inactive)
REMARK    1  A    between atoms: C_1  and  O_2
REMARK    2  A    between atoms: O_2  and  C_3
REMARK    3  A    between atoms: C_6  and  O_7
REMARK    4  A    between atoms: O_7  and  C_8
REMARK    5  A    between atoms: C_9  and  C_10
REMARK                            x       y       z     vdW  Elec       q    Type
REMARK                         _______ _______ _______ _____ _____    ______ ____
ROOT
ATOM      1  C   UNL     1       4.725   4.857  17.723  0.00  0.00    +0.000 C 
ATOM      2  N   UNL     1       5.495   4.127  18.788  0.00  0.00    +0.000 NA
ATOM      3  C   UNL     1       5.200   2.863  18.763  0.00  0.00    +0.000 C 
ATOM      4  N   UNL     1       5.325   2.212  19.943  0.00  0.00    +0.000 N 
ATOM      5  N   UNL     1       4.408   2.198  17.838  0.00  0.00    +0.000 N 
ATOM      6  C   UNL     1       3.318   2.882  17.423  0.00  0.00    +0.000 A 
ATOM      7  N   UNL     1       2.091   2.422  17.370  0.00  0.00    +0.000 NA
ATOM      8  C   UNL     1       1.494   3.160  18.357  0.00  0.00    +0.000 A 
ATOM      9  C   UNL     1       0.362   2.787  19.113  0.00  0.00    +0.000 A 
ATOM     10  C   UNL     1       0.060   3.484  20.282  0.00  0.00    +0.000 A 
ATOM     11  C   UNL     1       0.839   4.579  20.649  0.00  0.00    +0.000 A 
ATOM     12  C   UNL     1       1.947   5.019  19.862  0.00  0.00    +0.000 A 
ATOM     13  C   UNL     1       2.278   4.287  18.692  0.00  0.00    +0.000 A 
ATOM     14  N   UNL     1       3.336   4.236  17.721  0.00  0.00    +0.000 N 
ATOM     15  H   UNL     1       5.866   2.818  20.554  0.00  0.00    +0.000 HD
ATOM     16  H   UNL     1       4.391   2.229  20.385  0.00  0.00    +0.000 HD
ATOM     17  H   UNL     1       4.235   1.231  18.058  0.00  0.00    +0.000 HD
ENDROOT
BRANCH   1  22
ATOM     18  C   UNL     1       5.823   4.255  13.960  0.00  0.00    +0.000 A 
ATOM     19  C   UNL     1       7.096   4.774  13.858  0.00  0.00    +0.000 A 
ATOM     20  C   UNL     1       7.619   5.411  14.980  0.00  0.00    +0.000 A 
ATOM     21  C   UNL     1       6.930   5.526  16.232  0.00  0.00    +0.000 A 
ATOM     22  C   UNL     1       5.606   5.045  16.384  0.00  0.00    +0.000 A 
ATOM     23  C   UNL     1       5.084   4.407  15.171  0.00  0.00    +0.000 A 
BRANCH  18  25
ATOM     24  C   UNL     1       6.523   3.157  11.959  0.00  0.00    +0.000 C 
ATOM     25  O   UNL     1       5.502   3.459  12.892  0.00  0.00    +0.000 OA
ENDBRANCH  18  25
BRANCH  21  26
ATOM     26  O   UNL     1       7.848   6.007  17.118  0.00  0.00    +0.000 OA
ATOM     27  C   UNL     1       7.650   7.201  17.821  0.00  0.00    +0.000 C 
ENDBRANCH  21  26
ENDBRANCH   1  22
TORSDOF 3
ENDMDL
MODEL 7
REMARK VINA RESULT:      -6.5      2.032      3.057
REMARK  Name = 
REMARK  5 active torsions:
REMARK  status: ('A' for Active; 'I' for Inactive)
REMARK    1  A    between atoms: C_1  and  O_2
REMARK    2  A    between atoms: O_2  and  C_3
REMARK    3  A    between atoms: C_6  and  O_7
REMARK    4  A    between atoms: O_7  and  C_8
REMARK    5  A    between atoms: C_9  and  C_10
REMARK                            x       y       z     vdW  Elec       q    Type
REMARK                         _______ _______ _______ _____ _____    ______ ____
ROOT
ATOM      1  C   UNL     1       5.554   5.686  15.446  0.00  0.00    +0.000 C 
ATOM      2  N   UNL     1       6.677   6.193  16.308  0.00  0.00    +0.000 NA
ATOM      3  C   UNL     1       7.022   5.284  17.169  0.00  0.00    +0.000 C 
ATOM      4  N   UNL     1       7.555   5.749  18.324  0.00  0.00    +0.000 N 
ATOM      5  N   UNL     1       6.560   3.979  17.252  0.00  0.00    +0.000 N 
ATOM      6  C   UNL     1       5.241   3.822  16.996  0.00  0.00    +0.000 A 
ATOM      7  N   UNL     1       4.386   3.155  17.731  0.00  0.00    +0.000 NA
ATOM      8  C   UNL     1       3.606   4.175  18.210  0.00  0.00    +0.000 A 
ATOM      9  C   UNL     1       2.868   4.171  19.414  0.00  0.00    +0.000 A 
ATOM     10  C   UNL     1       2.383   5.373  19.923  0.00  0.00    +0.000 A 
ATOM     11  C   UNL     1       2.574   6.551  19.203  0.00  0.00    +0.000 A 
ATOM     12  C   UNL     1       3.256   6.569  17.948  0.00  0.00    +0.000 A 
ATOM     13  C   UNL     1       3.783   5.351  17.448  0.00  0.00    +0.000 A 
ATOM     14  N   UNL     1       4.639   4.909  16.381  0.00  0.00    +0.000 N 
ATOM     15  H   UNL     1       7.796   6.723  18.161  0.00  0.00    +0.000 HD
ATOM     16  H   UNL     1       6.774   5.823  18.995  0.00  0.00    +0.000 HD
ATOM     17  H   UNL     1       6.892   3.470  18.055  0.00  0.00    +0.000 HD
ENDROOT
BRANCH   1  22
ATOM     18  C   UNL     1       5.699   3.240  12.328  0.00  0.00    +0.000 A 
ATOM     19  C   UNL     1       6.941   3.435  11.762  0.00  0.00    +0.000 A 
ATOM     20  C   UNL     1       7.749   4.421  12.318  0.00  0.00    +0.000 A 
ATOM     21  C   UNL     1       7.383   5.215  13.455  0.00  0.00    +0.000 A 
ATOM     22  C   UNL     1       6.106   5.085  14.054  0.00  0.00    +0.000 A 
ATOM     23  C   UNL     1       5.275   4.055  13.420  0.00  0.00    +0.000 A 
BRANCH  18  25
ATOM     24  C   UNL     1       5.873   1.190  11.118  0.00  0.00    +0.000 C 
ATOM     25  O   UNL     1       5.089   2.106  11.860  0.00  0.00    +0.000 OA
ENDBRANCH  18  25
BRANCH  21  26
ATOM     26  O   UNL     1       8.510   5.891  13.815  0.00  0.00    +0.000 OA
ATOM     27  C   UNL     1       9.515   6.206  12.892  0.00  0.00    +0.000 C 
ENDBRANCH  21  26
ENDBRANCH   1  22
TORSDOF 3
ENDMDL
MODEL 8
REMARK VINA RESULT:      -6.2      8.062     11.152
REMARK  Name = 
REMARK  5 active torsions:
REMARK  status: ('A' for Active; 'I' for Inactive)
REMARK    1  A    between atoms: C_1  and  O_2
REMARK    2  A    between atoms: O_2  and  C_3
REMARK    3  A    between atoms: C_6  and  O_7
REMARK    4  A    between atoms: O_7  and  C_8
REMARK    5  A    between atoms: C_9  and  C_10
REMARK                            x       y       z     vdW  Elec       q    Type
REMARK                         _______ _______ _______ _____ _____    ______ ____
ROOT
ATOM      1  C   UNL     1       0.148  13.078  20.599  0.00  0.00    +0.000 C 
ATOM      2  N   UNL     1      -0.926  13.050  19.547  0.00  0.00    +0.000 NA
ATOM      3  C   UNL     1      -0.460  12.535  18.450  0.00  0.00    +0.000 C 
ATOM      4  N   UNL     1      -1.059  12.954  17.310  0.00  0.00    +0.000 N 
ATOM      5  N   UNL     1       0.784  11.956  18.248  0.00  0.00    +0.000 N 
ATOM      6  C   UNL     1       1.809  12.574  18.879  0.00  0.00    +0.000 A 
ATOM      7  N   UNL     1       2.950  12.925  18.337  0.00  0.00    +0.000 NA
ATOM      8  C   UNL     1       2.840  14.290  18.362  0.00  0.00    +0.000 A 
ATOM      9  C   UNL     1       3.479  15.198  17.489  0.00  0.00    +0.000 A 
ATOM     10  C   UNL     1       3.034  16.517  17.429  0.00  0.00    +0.000 A 
ATOM     11  C   UNL     1       2.012  16.937  18.279  0.00  0.00    +0.000 A 
ATOM     12  C   UNL     1       1.399  16.054  19.220  0.00  0.00    +0.000 A 
ATOM     13  C   UNL     1       1.826  14.701  19.255  0.00  0.00    +0.000 A 
ATOM     14  N   UNL     1       1.427  13.465  19.869  0.00  0.00    +0.000 N 
ATOM     15  H   UNL     1      -1.923  13.412  17.587  0.00  0.00    +0.000 HD
ATOM     16  H   UNL     1      -0.492  13.743  16.959  0.00  0.00    +0.000 HD
ATOM     17  H   UNL     1       0.975  11.701  17.294  0.00  0.00    +0.000 HD
ENDROOT
BRANCH   1  22
ATOM     18  C   UNL     1       0.631   9.315  21.754  0.00  0.00    +0.000 A 
ATOM     19  C   UNL     1      -0.214   9.147  22.829  0.00  0.00    +0.000 A 
ATOM     20  C   UNL     1      -0.914  10.264  23.274  0.00  0.00    +0.000 A 
ATOM     21  C   UNL     1      -0.833  11.559  22.663  0.00  0.00    +0.000 A 
ATOM     22  C   UNL     1       0.046  11.800  21.579  0.00  0.00    +0.000 A 
ATOM     23  C   UNL     1       0.784  10.603  21.160  0.00  0.00    +0.000 A 
BRANCH  18  25
ATOM     24  C   UNL     1       1.799   8.138  20.036  0.00  0.00    +0.000 C 
ATOM     25  O   UNL     1       1.085   8.120  21.259  0.00  0.00    +0.000 OA
ENDBRANCH  18  25
BRANCH  21  26
ATOM     26  O   UNL     1      -1.816  12.304  23.242  0.00  0.00    +0.000 OA
ATOM     27  C   UNL     1      -3.118  12.348  22.728  0.00  0.00    +0.000 C 
ENDBRANCH  21  26
ENDBRANCH   1  22
TORSDOF 3
ENDMDL
MODEL 9
REMARK VINA RESULT:      -6.1      5.099      6.976
REMARK  Name = 
REMARK  5 active torsions:
REMARK  status: ('A' for Active; 'I' for Inactive)
REMARK    1  A    between atoms: C_1  and  O_2
REMARK    2  A    between atoms: O_2  and  C_3
REMARK    3  A    between atoms: C_6  and  O_7
REMARK    4  A    between atoms: O_7  and  C_8
REMARK    5  A    between atoms: C_9  and  C_10
REMARK                            x       y       z     vdW  Elec       q    Type
REMARK                         _______ _______ _______ _____ _____    ______ ____
ROOT
ATOM      1  C   UNL     1       1.328   9.081  18.082  0.00  0.00    +0.000 C 
ATOM      2  N   UNL     1       1.905  10.250  17.334  0.00  0.00    +0.000 NA
ATOM      3  C   UNL     1       2.195  11.208  18.161  0.00  0.00    +0.000 C 
ATOM      4  N   UNL     1       2.158  12.457  17.640  0.00  0.00    +0.000 N 
ATOM      5  N   UNL     1       2.133  11.178  19.546  0.00  0.00    +0.000 N 
ATOM      6  C   UNL     1       1.079  10.501  20.056  0.00  0.00    +0.000 A 
ATOM      7  N   UNL     1       0.262  10.931  20.986  0.00  0.00    +0.000 NA
ATOM      8  C   UNL     1      -0.893  11.085  20.266  0.00  0.00    +0.000 A 
ATOM      9  C   UNL     1      -1.952  11.972  20.560  0.00  0.00    +0.000 A 
ATOM     10  C   UNL     1      -2.905  12.247  19.582  0.00  0.00    +0.000 A 
ATOM     11  C   UNL     1      -2.839  11.592  18.354  0.00  0.00    +0.000 A 
ATOM     12  C   UNL     1      -1.817  10.637  18.059  0.00  0.00    +0.000 A 
ATOM     13  C   UNL     1      -0.824  10.385  19.041  0.00  0.00    +0.000 A 
ATOM     14  N   UNL     1       0.424   9.682  19.149  0.00  0.00    +0.000 N 
ATOM     15  H   UNL     1       2.145  12.351  16.629  0.00  0.00    +0.000 HD
ATOM     16  H   UNL     1       1.213  12.826  17.836  0.00  0.00    +0.000 HD
ATOM     17  H   UNL     1       2.315  12.063  19.990  0.00  0.00    +0.000 HD
ENDROOT
BRANCH   1  22
ATOM     18  C   UNL     1       4.443   6.727  17.384  0.00  0.00    +0.000 A 
ATOM     19  C   UNL     1       4.437   5.794  18.398  0.00  0.00    +0.000 A 
ATOM     20  C   UNL     1       3.474   5.937  19.393  0.00  0.00    +0.000 A 
ATOM     21  C   UNL     1       2.477   6.967  19.404  0.00  0.00    +0.000 A 
ATOM     22  C   UNL     1       2.458   7.975  18.408  0.00  0.00    +0.000 A 
ATOM     23  C   UNL     1       3.506   7.803  17.396  0.00  0.00    +0.000 A 
BRANCH  18  25
ATOM     24  C   UNL     1       5.269   5.006  15.950  0.00  0.00    +0.000 C 
ATOM     25  O   UNL     1       5.268   6.364  16.351  0.00  0.00    +0.000 OA
ENDBRANCH  18  25
BRANCH  21  26
ATOM     26  O   UNL     1       1.609   6.633  20.401  0.00  0.00    +0.000 OA
ATOM     27  C   UNL     1       1.468   5.316  20.854  0.00  0.00    +0.000 C 
ENDBRANCH  21  26
ENDBRANCH   1  22
TORSDOF 3
ENDMDL
