MODEL 1
REMARK VINA RESULT:      -8.2      0.000      0.000
REMARK  Name = 
REMARK  6 active torsions:
REMARK  status: ('A' for Active; 'I' for Inactive)
REMARK    1  A    between atoms: C_1  and  C_2
REMARK    2  A    between atoms: C_2  and  C_3
REMARK    3  A    between atoms: C_11  and  C_13
REMARK    4  A    between atoms: C_13  and  C_14
REMARK    5  A    between atoms: C_14  and  N_15
REMARK    6  A    between atoms: C_14  and  C_20
REMARK                            x       y       z     vdW  Elec       q    Type
REMARK                         _______ _______ _______ _____ _____    ______ ____
ROOT
ATOM      1  C   UNL     1       0.774   8.900  21.272  0.00  0.00    +0.000 A 
ATOM      2  C   UNL     1       0.591   9.748  20.242  0.00  0.00    +0.000 A 
ATOM      3  C   UNL     1       1.121   9.414  18.895  0.00  0.00    +0.000 A 
ATOM      4  O   UNL     1       0.954  10.184  17.957  0.00  0.00    +0.000 OA
ATOM      5  N   UNL     1       1.768   8.205  18.882  0.00  0.00    +0.000 N 
ATOM      6  N   UNL     1       2.373   7.612  17.744  0.00  0.00    +0.000 NA
ATOM      7  C   UNL     1       2.864   6.488  18.229  0.00  0.00    +0.000 A 
ATOM      8  N   UNL     1       3.549   5.607  17.456  0.00  0.00    +0.000 N 
ATOM      9  C   UNL     1       4.118   4.447  17.938  0.00  0.00    +0.000 C 
ATOM     10  O   UNL     1       4.068   4.110  19.117  0.00  0.00    +0.000 OA
ATOM     11  N   UNL     1       2.610   6.341  19.557  0.00  0.00    +0.000 N 
ATOM     12  C   UNL     1       1.913   7.409  20.008  0.00  0.00    +0.000 A 
ATOM     13  N   UNL     1       1.451   7.699  21.174  0.00  0.00    +0.000 NA
ATOM     14  H   UNL     1       3.631   5.857  16.479  0.00  0.00    +0.000 HD
ATOM     15  H   UNL     1       2.904   5.547  20.109  0.00  0.00    +0.000 HD
ENDROOT
BRANCH   1  17
ATOM     16  C   UNL     1      -0.488  10.575  22.702  0.00  0.00    +0.000 C 
ATOM     17  C   UNL     1       0.190   9.213  22.633  0.00  0.00    +0.000 C 
ENDBRANCH   1  17
BRANCH   9  18
ATOM     18  C   UNL     1       4.874   3.658  16.890  0.00  0.00    +0.000 C 
BRANCH  18  19
ATOM     19  C   UNL     1       6.159   4.378  16.439  0.00  0.00    +0.000 C 
BRANCH  19  20
ATOM     20  N   UNL     1       6.754   5.228  17.463  0.00  0.00    +0.000 N 
ATOM     21  C   UNL     1       6.930   6.587  17.404  0.00  0.00    +0.000 A 
ATOM     22  C   UNL     1       7.824   6.909  18.399  0.00  0.00    +0.000 A 
ATOM     23  C   UNL     1       8.126   5.685  19.016  0.00  0.00    +0.000 A 
ATOM     24  N   UNL     1       7.496   4.659  18.442  0.00  0.00    +0.000 NA
ENDBRANCH  19  20
BRANCH  19  25
ATOM     25  C   UNL     1       6.002   5.048  15.075  0.00  0.00    +0.000 C 
ATOM     26  F   UNL     1       5.225   6.155  15.121  0.00  0.00    +0.000 F 
ATOM     27  F   UNL     1       7.160   5.380  14.473  0.00  0.00    +0.000 F 
ATOM     28  F   UNL     1       5.362   4.190  14.233  0.00  0.00    +0.000 F 
ENDBRANCH  19  25
ENDBRANCH  18  19
ENDBRANCH   9  18
TORSDOF 5
ENDMDL
MODEL 2
REMARK VINA RESULT:      -8.2      1.870      2.619
REMARK  Name = 
REMARK  6 active torsions:
REMARK  status: ('A' for Active; 'I' for Inactive)
REMARK    1  A    between atoms: C_1  and  C_2
REMARK    2  A    between atoms: C_2  and  C_3
REMARK    3  A    between atoms: C_11  and  C_13
REMARK    4  A    between atoms: C_13  and  C_14
REMARK    5  A    between atoms: C_14  and  N_15
REMARK    6  A    between atoms: C_14  and  C_20
REMARK                            x       y       z     vdW  Elec       q    Type
REMARK                         _______ _______ _______ _____ _____    ______ ____
ROOT
ATOM      1  C   UNL     1       0.127   9.651  21.677  0.00  0.00    +0.000 A 
ATOM      2  C   UNL     1       0.102  10.456  20.599  0.00  0.00    +0.000 A 
ATOM      3  C   UNL     1       0.829  10.071  19.362  0.00  0.00    +0.000 A 
ATOM      4  O   UNL     1       0.806  10.802  18.379  0.00  0.00    +0.000 OA
ATOM      5  N   UNL     1       1.469   8.866  19.495  0.00  0.00    +0.000 N 
ATOM      6  N   UNL     1       2.239   8.231  18.486  0.00  0.00    +0.000 NA
ATOM      7  C   UNL     1       2.650   7.130  19.084  0.00  0.00    +0.000 A 
ATOM      8  N   UNL     1       3.442   6.222  18.459  0.00  0.00    +0.000 N 
ATOM      9  C   UNL     1       3.931   5.085  19.068  0.00  0.00    +0.000 C 
ATOM     10  O   UNL     1       3.703   4.795  20.238  0.00  0.00    +0.000 OA
ATOM     11  N   UNL     1       2.198   7.034  20.364  0.00  0.00    +0.000 N 
ATOM     12  C   UNL     1       1.442   8.116  20.661  0.00  0.00    +0.000 A 
ATOM     13  N   UNL     1       0.809   8.450  21.731  0.00  0.00    +0.000 NA
ATOM     14  H   UNL     1       3.671   6.433  17.497  0.00  0.00    +0.000 HD
ATOM     15  H   UNL     1       2.404   6.264  20.985  0.00  0.00    +0.000 HD
ENDROOT
BRANCH   1  17
ATOM     16  C   UNL     1      -1.151  11.455  22.924  0.00  0.00    +0.000 C 
ATOM     17  C   UNL     1      -0.655  10.015  22.921  0.00  0.00    +0.000 C 
ENDBRANCH   1  17
BRANCH   9  18
ATOM     18  C   UNL     1       4.836   4.258  18.179  0.00  0.00    +0.000 C 
BRANCH  18  19
ATOM     19  C   UNL     1       5.929   5.114  17.511  0.00  0.00    +0.000 C 
BRANCH  19  20
ATOM     20  N   UNL     1       6.267   4.692  16.156  0.00  0.00    +0.000 N 
ATOM     21  C   UNL     1       7.102   5.337  15.279  0.00  0.00    +0.000 A 
ATOM     22  C   UNL     1       6.855   4.798  14.038  0.00  0.00    +0.000 A 
ATOM     23  C   UNL     1       5.866   3.828  14.260  0.00  0.00    +0.000 A 
ATOM     24  N   UNL     1       5.491   3.772  15.539  0.00  0.00    +0.000 NA
ENDBRANCH  19  20
BRANCH  19  25
ATOM     25  C   UNL     1       7.133   5.335  18.423  0.00  0.00    +0.000 C 
ATOM     26  F   UNL     1       6.808   5.316  19.736  0.00  0.00    +0.000 F 
ATOM     27  F   UNL     1       8.150   4.472  18.235  0.00  0.00    +0.000 F 
ATOM     28  F   UNL     1       7.638   6.580  18.192  0.00  0.00    +0.000 F 
ENDBRANCH  19  25
ENDBRANCH  18  19
ENDBRANCH   9  18
TORSDOF 5
ENDMDL
MODEL 3
REMARK VINA RESULT:      -7.9      2.515      3.589
REMARK  Name = 
REMARK  6 active torsions:
REMARK  status: ('A' for Active; 'I' for Inactive)
REMARK    1  A    between atoms: C_1  and  C_2
REMARK    2  A    between atoms: C_2  and  C_3
REMARK    3  A    between atoms: C_11  and  C_13
REMARK    4  A    between atoms: C_13  and  C_14
REMARK    5  A    between atoms: C_14  and  N_15
REMARK    6  A    between atoms: C_14  and  C_20
REMARK                            x       y       z     vdW  Elec       q    Type
REMARK                         _______ _______ _______ _____ _____    ______ ____
ROOT
ATOM      1  C   UNL     1      -0.690  11.164  19.580  0.00  0.00    +0.000 A 
ATOM      2  C   UNL     1      -0.959  10.751  20.832  0.00  0.00    +0.000 A 
ATOM      3  C   UNL     1      -0.234   9.590  21.409  0.00  0.00    +0.000 A 
ATOM      4  O   UNL     1      -0.476   9.213  22.549  0.00  0.00    +0.000 OA
ATOM      5  N   UNL     1       0.674   9.062  20.528  0.00  0.00    +0.000 N 
ATOM      6  N   UNL     1       1.521   7.954  20.790  0.00  0.00    +0.000 NA
ATOM      7  C   UNL     1       2.185   7.821  19.658  0.00  0.00    +0.000 A 
ATOM      8  N   UNL     1       3.114   6.848  19.475  0.00  0.00    +0.000 N 
ATOM      9  C   UNL     1       3.791   6.649  18.291  0.00  0.00    +0.000 C 
ATOM     10  O   UNL     1       3.607   7.328  17.285  0.00  0.00    +0.000 OA
ATOM     11  N   UNL     1       1.823   8.749  18.732  0.00  0.00    +0.000 N 
ATOM     12  C   UNL     1       0.867   9.557  19.247  0.00  0.00    +0.000 A 
ATOM     13  N   UNL     1       0.240  10.565  18.750  0.00  0.00    +0.000 NA
ATOM     14  H   UNL     1       3.282   6.251  20.275  0.00  0.00    +0.000 HD
ATOM     15  H   UNL     1       2.217   8.812  17.803  0.00  0.00    +0.000 HD
ENDROOT
BRANCH   1  17
ATOM     16  C   UNL     1      -0.490  13.603  18.908  0.00  0.00    +0.000 C 
ATOM     17  C   UNL     1      -1.390  12.378  19.008  0.00  0.00    +0.000 C 
ENDBRANCH   1  17
BRANCH   9  18
ATOM     18  C   UNL     1       4.736   5.466  18.320  0.00  0.00    +0.000 C 
BRANCH  18  19
ATOM     19  C   UNL     1       6.070   5.773  17.614  0.00  0.00    +0.000 C 
BRANCH  19  20
ATOM     20  N   UNL     1       6.150   5.265  16.249  0.00  0.00    +0.000 N 
ATOM     21  C   UNL     1       5.534   4.145  15.752  0.00  0.00    +0.000 A 
ATOM     22  C   UNL     1       6.154   3.856  14.558  0.00  0.00    +0.000 A 
ATOM     23  C   UNL     1       7.123   4.860  14.408  0.00  0.00    +0.000 A 
ATOM     24  N   UNL     1       7.139   5.707  15.439  0.00  0.00    +0.000 NA
ENDBRANCH  19  20
BRANCH  19  25
ATOM     25  C   UNL     1       7.280   5.439  18.484  0.00  0.00    +0.000 C 
ATOM     26  F   UNL     1       7.928   4.323  18.076  0.00  0.00    +0.000 F 
ATOM     27  F   UNL     1       8.187   6.428  18.593  0.00  0.00    +0.000 F 
ATOM     28  F   UNL     1       6.852   5.168  19.749  0.00  0.00    +0.000 F 
ENDBRANCH  19  25
ENDBRANCH  18  19
ENDBRANCH   9  18
TORSDOF 5
ENDMDL
MODEL 4
REMARK VINA RESULT:      -7.9      2.795      4.416
REMARK  Name = 
REMARK  6 active torsions:
REMARK  status: ('A' for Active; 'I' for Inactive)
REMARK    1  A    between atoms: C_1  and  C_2
REMARK    2  A    between atoms: C_2  and  C_3
REMARK    3  A    between atoms: C_11  and  C_13
REMARK    4  A    between atoms: C_13  and  C_14
REMARK    5  A    between atoms: C_14  and  N_15
REMARK    6  A    between atoms: C_14  and  C_20
REMARK                            x       y       z     vdW  Elec       q    Type
REMARK                         _______ _______ _______ _____ _____    ______ ____
ROOT
ATOM      1  C   UNL     1      -1.288  11.507  20.701  0.00  0.00    +0.000 A 
ATOM      2  C   UNL     1      -1.178  11.317  22.029  0.00  0.00    +0.000 A 
ATOM      3  C   UNL     1      -0.266  10.273  22.562  0.00  0.00    +0.000 A 
ATOM      4  O   UNL     1      -0.164  10.098  23.770  0.00  0.00    +0.000 OA
ATOM      5  N   UNL     1       0.386   9.600  21.560  0.00  0.00    +0.000 N 
ATOM      6  N   UNL     1       1.325   8.554  21.753  0.00  0.00    +0.000 NA
ATOM      7  C   UNL     1       1.654   8.228  20.518  0.00  0.00    +0.000 A 
ATOM      8  N   UNL     1       2.541   7.237  20.245  0.00  0.00    +0.000 N 
ATOM      9  C   UNL     1       2.872   6.836  18.967  0.00  0.00    +0.000 C 
ATOM     10  O   UNL     1       2.384   7.333  17.957  0.00  0.00    +0.000 OA
ATOM     11  N   UNL     1       1.004   8.982  19.591  0.00  0.00    +0.000 N 
ATOM     12  C   UNL     1       0.192   9.867  20.214  0.00  0.00    +0.000 A 
ATOM     13  N   UNL     1      -0.597  10.774  19.754  0.00  0.00    +0.000 NA
ATOM     14  H   UNL     1       2.953   6.787  21.052  0.00  0.00    +0.000 HD
ATOM     15  H   UNL     1       1.121   8.884  18.592  0.00  0.00    +0.000 HD
ENDROOT
BRANCH   1  17
ATOM     16  C   UNL     1      -3.166  12.118  19.107  0.00  0.00    +0.000 C 
ATOM     17  C   UNL     1      -2.177  12.606  20.157  0.00  0.00    +0.000 C 
ENDBRANCH   1  17
BRANCH   9  18
ATOM     18  C   UNL     1       3.844   5.676  18.925  0.00  0.00    +0.000 C 
BRANCH  18  19
ATOM     19  C   UNL     1       3.318   4.512  18.064  0.00  0.00    +0.000 C 
BRANCH  19  20
ATOM     20  N   UNL     1       2.456   3.583  18.785  0.00  0.00    +0.000 N 
ATOM     21  C   UNL     1       1.208   3.157  18.408  0.00  0.00    +0.000 A 
ATOM     22  C   UNL     1       0.636   2.589  19.522  0.00  0.00    +0.000 A 
ATOM     23  C   UNL     1       1.614   2.704  20.522  0.00  0.00    +0.000 A 
ATOM     24  N   UNL     1       2.713   3.322  20.088  0.00  0.00    +0.000 NA
ENDBRANCH  19  20
BRANCH  19  25
ATOM     25  C   UNL     1       4.423   3.846  17.248  0.00  0.00    +0.000 C 
ATOM     26  F   UNL     1       4.383   4.181  15.937  0.00  0.00    +0.000 F 
ATOM     27  F   UNL     1       5.672   4.075  17.695  0.00  0.00    +0.000 F 
ATOM     28  F   UNL     1       4.244   2.496  17.282  0.00  0.00    +0.000 F 
ENDBRANCH  19  25
ENDBRANCH  18  19
ENDBRANCH   9  18
TORSDOF 5
ENDMDL
MODEL 5
REMARK VINA RESULT:      -7.8      3.605      8.076
REMARK  Name = 
REMARK  6 active torsions:
REMARK  status: ('A' for Active; 'I' for Inactive)
REMARK    1  A    between atoms: C_1  and  C_2
REMARK    2  A    between atoms: C_2  and  C_3
REMARK    3  A    between atoms: C_11  and  C_13
REMARK    4  A    between atoms: C_13  and  C_14
REMARK    5  A    between atoms: C_14  and  N_15
REMARK    6  A    between atoms: C_14  and  C_20
REMARK                            x       y       z     vdW  Elec       q    Type
REMARK                         _______ _______ _______ _____ _____    ______ ____
ROOT
ATOM      1  C   UNL     1       6.721   3.263  11.984  0.00  0.00    +0.000 A 
ATOM      2  C   UNL     1       7.564   4.301  11.834  0.00  0.00    +0.000 A 
ATOM      3  C   UNL     1       7.796   5.245  12.957  0.00  0.00    +0.000 A 
ATOM      4  O   UNL     1       8.564   6.190  12.823  0.00  0.00    +0.000 OA
ATOM      5  N   UNL     1       7.070   4.907  14.070  0.00  0.00    +0.000 N 
ATOM      6  N   UNL     1       7.084   5.611  15.302  0.00  0.00    +0.000 NA
ATOM      7  C   UNL     1       6.234   4.924  16.040  0.00  0.00    +0.000 A 
ATOM      8  N   UNL     1       5.939   5.274  17.318  0.00  0.00    +0.000 N 
ATOM      9  C   UNL     1       5.020   4.609  18.101  0.00  0.00    +0.000 C 
ATOM     10  O   UNL     1       4.372   3.643  17.709  0.00  0.00    +0.000 OA
ATOM     11  N   UNL     1       5.706   3.863  15.371  0.00  0.00    +0.000 N 
ATOM     12  C   UNL     1       6.215   3.817  14.118  0.00  0.00    +0.000 A 
ATOM     13  N   UNL     1       6.018   2.998  13.144  0.00  0.00    +0.000 NA
ATOM     14  H   UNL     1       6.438   6.079  17.674  0.00  0.00    +0.000 HD
ATOM     15  H   UNL     1       5.036   3.217  15.765  0.00  0.00    +0.000 HD
ENDROOT
BRANCH   1  17
ATOM     16  C   UNL     1       6.087   0.891  11.339  0.00  0.00    +0.000 C 
ATOM     17  C   UNL     1       6.523   2.270  10.859  0.00  0.00    +0.000 C 
ENDBRANCH   1  17
BRANCH   9  18
ATOM     18  C   UNL     1       4.829   5.223  19.472  0.00  0.00    +0.000 C 
BRANCH  18  19
ATOM     19  C   UNL     1       3.355   5.576  19.747  0.00  0.00    +0.000 C 
BRANCH  19  20
ATOM     20  N   UNL     1       2.511   4.420  20.030  0.00  0.00    +0.000 N 
ATOM     21  C   UNL     1       1.374   4.048  19.359  0.00  0.00    +0.000 A 
ATOM     22  C   UNL     1       0.727   3.138  20.161  0.00  0.00    +0.000 A 
ATOM     23  C   UNL     1       1.550   3.010  21.291  0.00  0.00    +0.000 A 
ATOM     24  N   UNL     1       2.624   3.799  21.227  0.00  0.00    +0.000 NA
ENDBRANCH  19  20
BRANCH  19  25
ATOM     25  C   UNL     1       2.782   6.537  18.708  0.00  0.00    +0.000 C 
ATOM     26  F   UNL     1       3.719   7.359  18.181  0.00  0.00    +0.000 F 
ATOM     27  F   UNL     1       2.131   5.944  17.689  0.00  0.00    +0.000 F 
ATOM     28  F   UNL     1       1.880   7.357  19.316  0.00  0.00    +0.000 F 
ENDBRANCH  19  25
ENDBRANCH  18  19
ENDBRANCH   9  18
TORSDOF 5
ENDMDL
MODEL 6
REMARK VINA RESULT:      -7.8      3.884      8.214
REMARK  Name = 
REMARK  6 active torsions:
REMARK  status: ('A' for Active; 'I' for Inactive)
REMARK    1  A    between atoms: C_1  and  C_2
REMARK    2  A    between atoms: C_2  and  C_3
REMARK    3  A    between atoms: C_11  and  C_13
REMARK    4  A    between atoms: C_13  and  C_14
REMARK    5  A    between atoms: C_14  and  N_15
REMARK    6  A    between atoms: C_14  and  C_20
REMARK                            x       y       z     vdW  Elec       q    Type
REMARK                         _______ _______ _______ _____ _____    ______ ____
ROOT
ATOM      1  C   UNL     1       6.127   5.043  16.144  0.00  0.00    +0.000 A 
ATOM      2  C   UNL     1       6.180   4.228  17.213  0.00  0.00    +0.000 A 
ATOM      3  C   UNL     1       5.304   4.478  18.387  0.00  0.00    +0.000 A 
ATOM      4  O   UNL     1       5.349   3.736  19.362  0.00  0.00    +0.000 OA
ATOM      5  N   UNL     1       4.507   5.579  18.209  0.00  0.00    +0.000 N 
ATOM      6  N   UNL     1       3.562   6.068  19.148  0.00  0.00    +0.000 NA
ATOM      7  C   UNL     1       3.068   7.128  18.539  0.00  0.00    +0.000 A 
ATOM      8  N   UNL     1       2.118   7.912  19.110  0.00  0.00    +0.000 N 
ATOM      9  C   UNL     1       1.614   9.054  18.525  0.00  0.00    +0.000 C 
ATOM     10  O   UNL     1       1.989   9.476  17.435  0.00  0.00    +0.000 OA
ATOM     11  N   UNL     1       3.623   7.328  17.313  0.00  0.00    +0.000 N 
ATOM     12  C   UNL     1       4.539   6.364  17.066  0.00  0.00    +0.000 A 
ATOM     13  N   UNL     1       5.297   6.144  16.049  0.00  0.00    +0.000 NA
ATOM     14  H   UNL     1       1.795   7.610  20.020  0.00  0.00    +0.000 HD
ATOM     15  H   UNL     1       3.377   8.088  16.693  0.00  0.00    +0.000 HD
ENDROOT
BRANCH   1  17
ATOM     16  C   UNL     1       6.245   3.986  13.839  0.00  0.00    +0.000 C 
ATOM     17  C   UNL     1       6.980   4.761  14.925  0.00  0.00    +0.000 C 
ENDBRANCH   1  17
BRANCH   9  18
ATOM     18  C   UNL     1       0.603   9.784  19.384  0.00  0.00    +0.000 C 
BRANCH  18  19
ATOM     19  C   UNL     1       0.126  11.094  18.728  0.00  0.00    +0.000 C 
BRANCH  19  20
ATOM     20  N   UNL     1       0.677  12.298  19.338  0.00  0.00    +0.000 N 
ATOM     21  C   UNL     1       0.813  13.530  18.749  0.00  0.00    +0.000 A 
ATOM     22  C   UNL     1       1.679  14.248  19.540  0.00  0.00    +0.000 A 
ATOM     23  C   UNL     1       2.007  13.377  20.590  0.00  0.00    +0.000 A 
ATOM     24  N   UNL     1       1.419  12.186  20.464  0.00  0.00    +0.000 NA
ENDBRANCH  19  20
BRANCH  19  25
ATOM     25  C   UNL     1      -1.388  11.125  18.525  0.00  0.00    +0.000 C 
ATOM     26  F   UNL     1      -2.055  11.562  19.618  0.00  0.00    +0.000 F 
ATOM     27  F   UNL     1      -1.801  11.852  17.469  0.00  0.00    +0.000 F 
ATOM     28  F   UNL     1      -1.830   9.853  18.314  0.00  0.00    +0.000 F 
ENDBRANCH  19  25
ENDBRANCH  18  19
ENDBRANCH   9  18
TORSDOF 5
ENDMDL
MODEL 7
REMARK VINA RESULT:      -7.8      2.569      3.634
REMARK  Name = 
REMARK  6 active torsions:
REMARK  status: ('A' for Active; 'I' for Inactive)
REMARK    1  A    between atoms: C_1  and  C_2
REMARK    2  A    between atoms: C_2  and  C_3
REMARK    3  A    between atoms: C_11  and  C_13
REMARK    4  A    between atoms: C_13  and  C_14
REMARK    5  A    between atoms: C_14  and  N_15
REMARK    6  A    between atoms: C_14  and  C_20
REMARK                            x       y       z     vdW  Elec       q    Type
REMARK                         _______ _______ _______ _____ _____    ______ ____
ROOT
ATOM      1  C   UNL     1      -0.935  11.012  19.156  0.00  0.00    +0.000 A 
ATOM      2  C   UNL     1      -1.122  10.775  20.468  0.00  0.00    +0.000 A 
ATOM      3  C   UNL     1      -0.297   9.759  21.169  0.00  0.00    +0.000 A 
ATOM      4  O   UNL     1      -0.465   9.543  22.364  0.00  0.00    +0.000 OA
ATOM      5  N   UNL     1       0.606   9.160  20.328  0.00  0.00    +0.000 N 
ATOM      6  N   UNL     1       1.535   8.157  20.705  0.00  0.00    +0.000 NA
ATOM      7  C   UNL     1       2.157   7.896  19.572  0.00  0.00    +0.000 A 
ATOM      8  N   UNL     1       3.140   6.963  19.485  0.00  0.00    +0.000 N 
ATOM      9  C   UNL     1       3.778   6.630  18.308  0.00  0.00    +0.000 C 
ATOM     10  O   UNL     1       3.506   7.140  17.225  0.00  0.00    +0.000 OA
ATOM     11  N   UNL     1       1.694   8.652  18.540  0.00  0.00    +0.000 N 
ATOM     12  C   UNL     1       0.710   9.469  18.981  0.00  0.00    +0.000 A 
ATOM     13  N   UNL     1      -0.004  10.352  18.375  0.00  0.00    +0.000 NA
ATOM     14  H   UNL     1       3.382   6.504  20.353  0.00  0.00    +0.000 HD
ATOM     15  H   UNL     1       2.043   8.599  17.593  0.00  0.00    +0.000 HD
ENDROOT
BRANCH   1  17
ATOM     16  C   UNL     1      -3.199  11.704  18.239  0.00  0.00    +0.000 C 
ATOM     17  C   UNL     1      -1.739  12.084  18.450  0.00  0.00    +0.000 C 
ENDBRANCH   1  17
BRANCH   9  18
ATOM     18  C   UNL     1       4.799   5.523  18.461  0.00  0.00    +0.000 C 
BRANCH  18  19
ATOM     19  C   UNL     1       6.121   5.852  17.741  0.00  0.00    +0.000 C 
BRANCH  19  20
ATOM     20  N   UNL     1       6.200   5.333  16.380  0.00  0.00    +0.000 N 
ATOM     21  C   UNL     1       5.509   4.266  15.866  0.00  0.00    +0.000 A 
ATOM     22  C   UNL     1       6.139   3.921  14.693  0.00  0.00    +0.000 A 
ATOM     23  C   UNL     1       7.193   4.840  14.571  0.00  0.00    +0.000 A 
ATOM     24  N   UNL     1       7.248   5.687  15.600  0.00  0.00    +0.000 NA
ENDBRANCH  19  20
BRANCH  19  25
ATOM     25  C   UNL     1       7.344   5.553  18.604  0.00  0.00    +0.000 C 
ATOM     26  F   UNL     1       7.038   5.394  19.912  0.00  0.00    +0.000 F 
ATOM     27  F   UNL     1       8.062   4.482  18.213  0.00  0.00    +0.000 F 
ATOM     28  F   UNL     1       8.189   6.621  18.556  0.00  0.00    +0.000 F 
ENDBRANCH  19  25
ENDBRANCH  18  19
ENDBRANCH   9  18
TORSDOF 5
ENDMDL
MODEL 8
REMARK VINA RESULT:      -7.8      2.253      3.126
REMARK  Name = 
REMARK  6 active torsions:
REMARK  status: ('A' for Active; 'I' for Inactive)
REMARK    1  A    between atoms: C_1  and  C_2
REMARK    2  A    between atoms: C_2  and  C_3
REMARK    3  A    between atoms: C_11  and  C_13
REMARK    4  A    between atoms: C_13  and  C_14
REMARK    5  A    between atoms: C_14  and  N_15
REMARK    6  A    between atoms: C_14  and  C_20
REMARK                            x       y       z     vdW  Elec       q    Type
REMARK                         _______ _______ _______ _____ _____    ______ ____
ROOT
ATOM      1  C   UNL     1      -1.002  11.485  21.840  0.00  0.00    +0.000 A 
ATOM      2  C   UNL     1      -1.176  12.375  20.845  0.00  0.00    +0.000 A 
ATOM      3  C   UNL     1      -0.579  12.127  19.508  0.00  0.00    +0.000 A 
ATOM      4  O   UNL     1      -0.737  12.935  18.600  0.00  0.00    +0.000 OA
ATOM      5  N   UNL     1       0.115  10.945  19.465  0.00  0.00    +0.000 N 
ATOM      6  N   UNL     1       0.790  10.432  18.328  0.00  0.00    +0.000 NA
ATOM      7  C   UNL     1       1.304   9.305  18.779  0.00  0.00    +0.000 A 
ATOM      8  N   UNL     1       2.054   8.488  17.995  0.00  0.00    +0.000 N 
ATOM      9  C   UNL     1       2.648   7.328  18.445  0.00  0.00    +0.000 C 
ATOM     10  O   UNL     1       2.563   6.932  19.604  0.00  0.00    +0.000 OA
ATOM     11  N   UNL     1       1.002   9.083  20.087  0.00  0.00    +0.000 N 
ATOM     12  C   UNL     1       0.245  10.101  20.557  0.00  0.00    +0.000 A 
ATOM     13  N   UNL     1      -0.276  10.316  21.714  0.00  0.00    +0.000 NA
ATOM     14  H   UNL     1       2.166   8.789  17.036  0.00  0.00    +0.000 HD
ATOM     15  H   UNL     1       1.304   8.274  20.612  0.00  0.00    +0.000 HD
ENDROOT
BRANCH   1  17
ATOM     16  C   UNL     1      -3.079  12.236  23.091  0.00  0.00    +0.000 C 
ATOM     17  C   UNL     1      -1.654  11.709  23.188  0.00  0.00    +0.000 C 
ENDBRANCH   1  17
BRANCH   9  18
ATOM     18  C   UNL     1       3.478   6.620  17.395  0.00  0.00    +0.000 C 
BRANCH  18  19
ATOM     19  C   UNL     1       4.422   5.572  18.013  0.00  0.00    +0.000 C 
BRANCH  19  20
ATOM     20  N   UNL     1       5.831   5.943  17.970  0.00  0.00    +0.000 N 
ATOM     21  C   UNL     1       6.808   5.568  18.856  0.00  0.00    +0.000 A 
ATOM     22  C   UNL     1       7.874   6.411  18.643  0.00  0.00    +0.000 A 
ATOM     23  C   UNL     1       7.458   7.255  17.602  0.00  0.00    +0.000 A 
ATOM     24  N   UNL     1       6.213   6.990  17.202  0.00  0.00    +0.000 NA
ENDBRANCH  19  20
BRANCH  19  25
ATOM     25  C   UNL     1       4.126   4.158  17.518  0.00  0.00    +0.000 C 
ATOM     26  F   UNL     1       4.846   3.824  16.422  0.00  0.00    +0.000 F 
ATOM     27  F   UNL     1       4.299   3.189  18.438  0.00  0.00    +0.000 F 
ATOM     28  F   UNL     1       2.821   4.091  17.129  0.00  0.00    +0.000 F 
ENDBRANCH  19  25
ENDBRANCH  18  19
ENDBRANCH   9  18
TORSDOF 5
ENDMDL
MODEL 9
REMARK VINA RESULT:      -7.8      2.687      4.073
REMARK  Name = 
REMARK  6 active torsions:
REMARK  status: ('A' for Active; 'I' for Inactive)
REMARK    1  A    between atoms: C_1  and  C_2
REMARK    2  A    between atoms: C_2  and  C_3
REMARK    3  A    between atoms: C_11  and  C_13
REMARK    4  A    between atoms: C_13  and  C_14
REMARK    5  A    between atoms: C_14  and  N_15
REMARK    6  A    between atoms: C_14  and  C_20
REMARK                            x       y       z     vdW  Elec       q    Type
REMARK                         _______ _______ _______ _____ _____    ______ ____
ROOT
ATOM      1  C   UNL     1      -1.286  11.960  21.862  0.00  0.00    +0.000 A 
ATOM      2  C   UNL     1      -1.064  11.232  22.972  0.00  0.00    +0.000 A 
ATOM      3  C   UNL     1      -0.184  10.036  22.918  0.00  0.00    +0.000 A 
ATOM      4  O   UNL     1       0.021   9.373  23.927  0.00  0.00    +0.000 OA
ATOM      5  N   UNL     1       0.318   9.824  21.659  0.00  0.00    +0.000 N 
ATOM      6  N   UNL     1       1.192   8.768  21.294  0.00  0.00    +0.000 NA
ATOM      7  C   UNL     1       1.376   8.976  20.004  0.00  0.00    +0.000 A 
ATOM      8  N   UNL     1       2.157   8.165  19.246  0.00  0.00    +0.000 N 
ATOM      9  C   UNL     1       2.334   8.323  17.888  0.00  0.00    +0.000 C 
ATOM     10  O   UNL     1       1.788   9.207  17.235  0.00  0.00    +0.000 OA
ATOM     11  N   UNL     1       0.696  10.064  19.552  0.00  0.00    +0.000 N 
ATOM     12  C   UNL     1       0.015  10.631  20.574  0.00  0.00    +0.000 A 
ATOM     13  N   UNL     1      -0.746  11.669  20.623  0.00  0.00    +0.000 NA
ATOM     14  H   UNL     1       2.611   7.409  19.743  0.00  0.00    +0.000 HD
ATOM     15  H   UNL     1       0.710  10.387  18.595  0.00  0.00    +0.000 HD
ENDROOT
BRANCH   1  17
ATOM     16  C   UNL     1      -3.414  13.029  22.741  0.00  0.00    +0.000 C 
ATOM     17  C   UNL     1      -2.141  13.208  21.925  0.00  0.00    +0.000 C 
ENDBRANCH   1  17
BRANCH   9  18
ATOM     18  C   UNL     1       3.209   7.260  17.259  0.00  0.00    +0.000 C 
BRANCH  18  19
ATOM     19  C   UNL     1       3.612   6.169  18.269  0.00  0.00    +0.000 C 
BRANCH  19  20
ATOM     20  N   UNL     1       5.045   5.903  18.315  0.00  0.00    +0.000 N 
ATOM     21  C   UNL     1       5.733   5.279  19.324  0.00  0.00    +0.000 A 
ATOM     22  C   UNL     1       7.065   5.555  19.117  0.00  0.00    +0.000 A 
ATOM     23  C   UNL     1       7.089   6.341  17.955  0.00  0.00    +0.000 A 
ATOM     24  N   UNL     1       5.867   6.572  17.474  0.00  0.00    +0.000 NA
ENDBRANCH  19  20
BRANCH  19  25
ATOM     25  C   UNL     1       2.740   4.920  18.156  0.00  0.00    +0.000 C 
ATOM     26  F   UNL     1       2.502   4.337  19.354  0.00  0.00    +0.000 F 
ATOM     27  F   UNL     1       1.555   5.112  17.546  0.00  0.00    +0.000 F 
ATOM     28  F   UNL     1       3.405   3.984  17.423  0.00  0.00    +0.000 F 
ENDBRANCH  19  25
ENDBRANCH  18  19
ENDBRANCH   9  18
TORSDOF 5
ENDMDL
