MODEL 1
REMARK VINA RESULT:      -9.2      0.000      0.000
REMARK  Name = 
REMARK  8 active torsions:
REMARK  status: ('A' for Active; 'I' for Inactive)
REMARK    1  A    between atoms: C_1  and  C_2
REMARK    2  A    between atoms: C_2  and  C_3
REMARK    3  A    between atoms: C_7  and  N_8
REMARK    4  A    between atoms: C_11  and  C_12
REMARK    5  A    between atoms: C_17  and  C_19
REMARK    6  A    between atoms: C_23  and  O_24
REMARK    7  A    between atoms: O_24  and  C_25
REMARK    8  A    between atoms: C_28  and  C_29
REMARK                            x       y       z     vdW  Elec       q    Type
REMARK                         _______ _______ _______ _____ _____    ______ ____
ROOT
ATOM      1  C   UNL     1       7.307   5.739  16.844  0.00  0.00    +0.000 A 
ATOM      2  N   UNL     1       7.183   4.945  17.917  0.00  0.00    +0.000 NA
ATOM      3  S   UNL     1       7.736   5.824  19.224  0.00  0.00    +0.000 S 
ATOM      4  C   UNL     1       8.023   7.217  18.282  0.00  0.00    +0.000 A 
ATOM      5  N   UNL     1       8.544   8.300  18.931  0.00  0.00    +0.000 N 
ATOM      6  C   UNL     1       8.625   9.518  18.295  0.00  0.00    +0.000 C 
ATOM      7  O   UNL     1       8.108   9.802  17.222  0.00  0.00    +0.000 OA
ATOM      8  N   UNL     1       7.737   7.047  17.020  0.00  0.00    +0.000 NA
ATOM      9  H   UNL     1       8.909   8.140  19.855  0.00  0.00    +0.000 HD
ENDROOT
BRANCH   1  13
ATOM     10  N   UNL     1       6.555   4.182  13.652  0.00  0.00    +0.000 N 
ATOM     11  N   UNL     1       7.560   5.048  13.364  0.00  0.00    +0.000 NA
ATOM     12  N   UNL     1       7.833   5.755  14.449  0.00  0.00    +0.000 NA
ATOM     13  C   UNL     1       7.080   5.259  15.475  0.00  0.00    +0.000 A 
ATOM     14  C   UNL     1       6.266   4.240  15.011  0.00  0.00    +0.000 A 
ATOM     15  C   UNL     1       5.382   3.303  15.743  0.00  0.00    +0.000 C 
BRANCH  10  20
ATOM     16  C   UNL     1       4.141   2.945  11.097  0.00  0.00    +0.000 A 
ATOM     17  C   UNL     1       4.817   1.817  10.620  0.00  0.00    +0.000 A 
ATOM     18  C   UNL     1       6.065   1.474  11.134  0.00  0.00    +0.000 A 
ATOM     19  C   UNL     1       6.656   2.257  12.128  0.00  0.00    +0.000 A 
ATOM     20  C   UNL     1       5.993   3.383  12.622  0.00  0.00    +0.000 A 
ATOM     21  C   UNL     1       4.724   3.712  12.117  0.00  0.00    +0.000 A 
BRANCH  16  23
ATOM     22  C   UNL     1       2.892   4.409   9.491  0.00  0.00    +0.000 C 
ATOM     23  C   UNL     1       2.789   3.315  10.540  0.00  0.00    +0.000 C 
ENDBRANCH  16  23
ENDBRANCH  10  20
ENDBRANCH   1  13
BRANCH   6  24
ATOM     24  C   UNL     1       9.413  10.576  18.989  0.00  0.00    +0.000 A 
ATOM     25  C   UNL     1       9.254  10.675  20.379  0.00  0.00    +0.000 A 
ATOM     26  C   UNL     1       9.939  11.649  21.098  0.00  0.00    +0.000 A 
ATOM     27  C   UNL     1      10.783  12.531  20.428  0.00  0.00    +0.000 A 
ATOM     28  C   UNL     1      10.962  12.440  19.043  0.00  0.00    +0.000 A 
ATOM     29  C   UNL     1      10.285  11.452  18.324  0.00  0.00    +0.000 A 
BRANCH  28  30
ATOM     30  O   UNL     1      11.818  13.371  18.522  0.00  0.00    +0.000 OA
ATOM     31  C   UNL     1      11.834  13.526  17.109  0.00  0.00    +0.000 C 
ENDBRANCH  28  30
ENDBRANCH   6  24
TORSDOF 5
ENDMDL
MODEL 2
REMARK VINA RESULT:      -9.0      0.954      1.634
REMARK  Name = 
REMARK  8 active torsions:
REMARK  status: ('A' for Active; 'I' for Inactive)
REMARK    1  A    between atoms: C_1  and  C_2
REMARK    2  A    between atoms: C_2  and  C_3
REMARK    3  A    between atoms: C_7  and  N_8
REMARK    4  A    between atoms: C_11  and  C_12
REMARK    5  A    between atoms: C_17  and  C_19
REMARK    6  A    between atoms: C_23  and  O_24
REMARK    7  A    between atoms: O_24  and  C_25
REMARK    8  A    between atoms: C_28  and  C_29
REMARK                            x       y       z     vdW  Elec       q    Type
REMARK                         _______ _______ _______ _____ _____    ______ ____
ROOT
ATOM      1  C   UNL     1       7.330   5.708  16.893  0.00  0.00    +0.000 A 
ATOM      2  N   UNL     1       7.200   4.895  17.951  0.00  0.00    +0.000 NA
ATOM      3  S   UNL     1       7.742   5.751  19.277  0.00  0.00    +0.000 S 
ATOM      4  C   UNL     1       8.034   7.161  18.361  0.00  0.00    +0.000 A 
ATOM      5  N   UNL     1       8.550   8.233  19.034  0.00  0.00    +0.000 N 
ATOM      6  C   UNL     1       8.634   9.462  18.420  0.00  0.00    +0.000 C 
ATOM      7  O   UNL     1       8.124   9.765  17.348  0.00  0.00    +0.000 OA
ATOM      8  N   UNL     1       7.758   7.013  17.095  0.00  0.00    +0.000 NA
ATOM      9  H   UNL     1       8.908   8.057  19.956  0.00  0.00    +0.000 HD
ENDROOT
BRANCH   1  13
ATOM     10  N   UNL     1       6.607   4.205  13.669  0.00  0.00    +0.000 N 
ATOM     11  N   UNL     1       7.604   5.086  13.401  0.00  0.00    +0.000 NA
ATOM     12  N   UNL     1       7.865   5.774  14.501  0.00  0.00    +0.000 NA
ATOM     13  C   UNL     1       7.114   5.252  15.514  0.00  0.00    +0.000 A 
ATOM     14  C   UNL     1       6.312   4.234  15.027  0.00  0.00    +0.000 A 
ATOM     15  C   UNL     1       5.434   3.275  15.737  0.00  0.00    +0.000 C 
BRANCH  10  20
ATOM     16  C   UNL     1       4.196   2.966  11.111  0.00  0.00    +0.000 A 
ATOM     17  C   UNL     1       4.905   1.879  10.586  0.00  0.00    +0.000 A 
ATOM     18  C   UNL     1       6.172   1.565  11.070  0.00  0.00    +0.000 A 
ATOM     19  C   UNL     1       6.751   2.335  12.080  0.00  0.00    +0.000 A 
ATOM     20  C   UNL     1       6.056   3.421  12.621  0.00  0.00    +0.000 A 
ATOM     21  C   UNL     1       4.768   3.720  12.146  0.00  0.00    +0.000 A 
BRANCH  16  23
ATOM     22  C   UNL     1       2.890   4.264   9.410  0.00  0.00    +0.000 C 
ATOM     23  C   UNL     1       2.823   3.305  10.587  0.00  0.00    +0.000 C 
ENDBRANCH  16  23
ENDBRANCH  10  20
ENDBRANCH   1  13
BRANCH   6  24
ATOM     24  C   UNL     1       9.416  10.509  19.137  0.00  0.00    +0.000 A 
ATOM     25  C   UNL     1      10.553  11.008  18.486  0.00  0.00    +0.000 A 
ATOM     26  C   UNL     1      11.347  11.973  19.097  0.00  0.00    +0.000 A 
ATOM     27  C   UNL     1      11.009  12.438  20.365  0.00  0.00    +0.000 A 
ATOM     28  C   UNL     1       9.873  11.959  21.025  0.00  0.00    +0.000 A 
ATOM     29  C   UNL     1       9.067  11.001  20.404  0.00  0.00    +0.000 A 
BRANCH  28  30
ATOM     30  O   UNL     1       9.665  12.505  22.262  0.00  0.00    +0.000 OA
ATOM     31  C   UNL     1       8.683  13.527  22.370  0.00  0.00    +0.000 C 
ENDBRANCH  28  30
ENDBRANCH   6  24
TORSDOF 5
ENDMDL
MODEL 3
REMARK VINA RESULT:      -8.8      6.439     10.056
REMARK  Name = 
REMARK  8 active torsions:
REMARK  status: ('A' for Active; 'I' for Inactive)
REMARK    1  A    between atoms: C_1  and  C_2
REMARK    2  A    between atoms: C_2  and  C_3
REMARK    3  A    between atoms: C_7  and  N_8
REMARK    4  A    between atoms: C_11  and  C_12
REMARK    5  A    between atoms: C_17  and  C_19
REMARK    6  A    between atoms: C_23  and  O_24
REMARK    7  A    between atoms: O_24  and  C_25
REMARK    8  A    between atoms: C_28  and  C_29
REMARK                            x       y       z     vdW  Elec       q    Type
REMARK                         _______ _______ _______ _____ _____    ______ ____
ROOT
ATOM      1  C   UNL     1       3.153   6.008  19.251  0.00  0.00    +0.000 A 
ATOM      2  N   UNL     1       3.330   4.903  19.989  0.00  0.00    +0.000 NA
ATOM      3  S   UNL     1       4.238   3.854  19.061  0.00  0.00    +0.000 S 
ATOM      4  C   UNL     1       4.393   4.974  17.784  0.00  0.00    +0.000 A 
ATOM      5  N   UNL     1       5.086   4.556  16.683  0.00  0.00    +0.000 N 
ATOM      6  C   UNL     1       5.424   5.451  15.693  0.00  0.00    +0.000 C 
ATOM      7  O   UNL     1       5.319   6.670  15.764  0.00  0.00    +0.000 OA
ATOM      8  N   UNL     1       3.777   6.100  18.015  0.00  0.00    +0.000 NA
ATOM      9  H   UNL     1       5.274   3.570  16.615  0.00  0.00    +0.000 HD
ENDROOT
BRANCH   1  13
ATOM     10  N   UNL     1       1.136   8.949  19.933  0.00  0.00    +0.000 N 
ATOM     11  N   UNL     1       1.097   8.251  21.096  0.00  0.00    +0.000 NA
ATOM     12  N   UNL     1       1.714   7.094  20.914  0.00  0.00    +0.000 NA
ATOM     13  C   UNL     1       2.258   7.098  19.662  0.00  0.00    +0.000 A 
ATOM     14  C   UNL     1       1.928   8.274  19.010  0.00  0.00    +0.000 A 
ATOM     15  C   UNL     1       2.382   8.815  17.708  0.00  0.00    +0.000 C 
BRANCH  10  20
ATOM     16  C   UNL     1      -1.434  11.449  18.915  0.00  0.00    +0.000 A 
ATOM     17  C   UNL     1      -0.944  12.600  19.543  0.00  0.00    +0.000 A 
ATOM     18  C   UNL     1       0.221  12.546  20.303  0.00  0.00    +0.000 A 
ATOM     19  C   UNL     1       0.911  11.341  20.450  0.00  0.00    +0.000 A 
ATOM     20  C   UNL     1       0.442  10.182  19.825  0.00  0.00    +0.000 A 
ATOM     21  C   UNL     1      -0.722  10.246  19.041  0.00  0.00    +0.000 A 
BRANCH  16  23
ATOM     22  C   UNL     1      -2.519  10.832  16.742  0.00  0.00    +0.000 C 
ATOM     23  C   UNL     1      -2.696  11.508  18.091  0.00  0.00    +0.000 C 
ENDBRANCH  16  23
ENDBRANCH  10  20
ENDBRANCH   1  13
BRANCH   6  24
ATOM     24  C   UNL     1       5.968   4.872  14.433  0.00  0.00    +0.000 A 
ATOM     25  C   UNL     1       7.247   5.295  14.042  0.00  0.00    +0.000 A 
ATOM     26  C   UNL     1       7.818   4.816  12.868  0.00  0.00    +0.000 A 
ATOM     27  C   UNL     1       7.109   3.914  12.077  0.00  0.00    +0.000 A 
ATOM     28  C   UNL     1       5.838   3.473  12.457  0.00  0.00    +0.000 A 
ATOM     29  C   UNL     1       5.271   3.944  13.645  0.00  0.00    +0.000 A 
BRANCH  28  30
ATOM     30  O   UNL     1       5.262   2.589  11.586  0.00  0.00    +0.000 OA
ATOM     31  C   UNL     1       3.983   2.924  11.065  0.00  0.00    +0.000 C 
ENDBRANCH  28  30
ENDBRANCH   6  24
TORSDOF 5
ENDMDL
MODEL 4
REMARK VINA RESULT:      -8.6      6.345     10.410
REMARK  Name = 
REMARK  8 active torsions:
REMARK  status: ('A' for Active; 'I' for Inactive)
REMARK    1  A    between atoms: C_1  and  C_2
REMARK    2  A    between atoms: C_2  and  C_3
REMARK    3  A    between atoms: C_7  and  N_8
REMARK    4  A    between atoms: C_11  and  C_12
REMARK    5  A    between atoms: C_17  and  C_19
REMARK    6  A    between atoms: C_23  and  O_24
REMARK    7  A    between atoms: O_24  and  C_25
REMARK    8  A    between atoms: C_28  and  C_29
REMARK                            x       y       z     vdW  Elec       q    Type
REMARK                         _______ _______ _______ _____ _____    ______ ____
ROOT
ATOM      1  C   UNL     1       3.376   5.705  19.186  0.00  0.00    +0.000 A 
ATOM      2  N   UNL     1       3.676   4.629  19.927  0.00  0.00    +0.000 NA
ATOM      3  S   UNL     1       4.616   3.639  18.967  0.00  0.00    +0.000 S 
ATOM      4  C   UNL     1       4.620   4.748  17.670  0.00  0.00    +0.000 A 
ATOM      5  N   UNL     1       5.289   4.368  16.540  0.00  0.00    +0.000 N 
ATOM      6  C   UNL     1       5.506   5.272  15.525  0.00  0.00    +0.000 C 
ATOM      7  O   UNL     1       5.309   6.479  15.586  0.00  0.00    +0.000 OA
ATOM      8  N   UNL     1       3.930   5.826  17.919  0.00  0.00    +0.000 NA
ATOM      9  H   UNL     1       5.550   3.399  16.475  0.00  0.00    +0.000 HD
ENDROOT
BRANCH   1  13
ATOM     10  N   UNL     1       1.215   8.512  19.978  0.00  0.00    +0.000 N 
ATOM     11  N   UNL     1       1.142   7.724  21.080  0.00  0.00    +0.000 NA
ATOM     12  N   UNL     1       1.812   6.607  20.845  0.00  0.00    +0.000 NA
ATOM     13  C   UNL     1       2.420   6.728  19.629  0.00  0.00    +0.000 A 
ATOM     14  C   UNL     1       2.080   7.939  19.052  0.00  0.00    +0.000 A 
ATOM     15  C   UNL     1       2.581   8.596  17.822  0.00  0.00    +0.000 C 
BRANCH  10  20
ATOM     16  C   UNL     1      -0.500  11.624  21.104  0.00  0.00    +0.000 A 
ATOM     17  C   UNL     1      -1.001  12.103  19.888  0.00  0.00    +0.000 A 
ATOM     18  C   UNL     1      -0.766  11.405  18.706  0.00  0.00    +0.000 A 
ATOM     19  C   UNL     1      -0.023  10.224  18.721  0.00  0.00    +0.000 A 
ATOM     20  C   UNL     1       0.481   9.726  19.926  0.00  0.00    +0.000 A 
ATOM     21  C   UNL     1       0.222  10.420  21.120  0.00  0.00    +0.000 A 
BRANCH  16  23
ATOM     22  C   UNL     1      -2.062  11.957  23.035  0.00  0.00    +0.000 C 
ATOM     23  C   UNL     1      -0.756  12.379  22.384  0.00  0.00    +0.000 C 
ENDBRANCH  16  23
ENDBRANCH  10  20
ENDBRANCH   1  13
BRANCH   6  24
ATOM     24  C   UNL     1       6.031   4.717  14.245  0.00  0.00    +0.000 A 
ATOM     25  C   UNL     1       7.221   5.275  13.754  0.00  0.00    +0.000 A 
ATOM     26  C   UNL     1       7.766   4.826  12.556  0.00  0.00    +0.000 A 
ATOM     27  C   UNL     1       7.121   3.819  11.842  0.00  0.00    +0.000 A 
ATOM     28  C   UNL     1       5.940   3.244  12.322  0.00  0.00    +0.000 A 
ATOM     29  C   UNL     1       5.400   3.685  13.533  0.00  0.00    +0.000 A 
BRANCH  28  30
ATOM     30  O   UNL     1       5.418   2.268  11.518  0.00  0.00    +0.000 OA
ATOM     31  C   UNL     1       6.272   1.191  11.158  0.00  0.00    +0.000 C 
ENDBRANCH  28  30
ENDBRANCH   6  24
TORSDOF 5
ENDMDL
MODEL 5
REMARK VINA RESULT:      -8.4      6.265     10.337
REMARK  Name = 
REMARK  8 active torsions:
REMARK  status: ('A' for Active; 'I' for Inactive)
REMARK    1  A    between atoms: C_1  and  C_2
REMARK    2  A    between atoms: C_2  and  C_3
REMARK    3  A    between atoms: C_7  and  N_8
REMARK    4  A    between atoms: C_11  and  C_12
REMARK    5  A    between atoms: C_17  and  C_19
REMARK    6  A    between atoms: C_23  and  O_24
REMARK    7  A    between atoms: O_24  and  C_25
REMARK    8  A    between atoms: C_28  and  C_29
REMARK                            x       y       z     vdW  Elec       q    Type
REMARK                         _______ _______ _______ _____ _____    ______ ____
ROOT
ATOM      1  C   UNL     1       3.070   6.106  19.246  0.00  0.00    +0.000 A 
ATOM      2  N   UNL     1       3.195   4.990  19.978  0.00  0.00    +0.000 NA
ATOM      3  S   UNL     1       4.093   3.921  19.063  0.00  0.00    +0.000 S 
ATOM      4  C   UNL     1       4.314   5.046  17.800  0.00  0.00    +0.000 A 
ATOM      5  N   UNL     1       5.021   4.616  16.712  0.00  0.00    +0.000 N 
ATOM      6  C   UNL     1       5.410   5.509  15.740  0.00  0.00    +0.000 C 
ATOM      7  O   UNL     1       5.340   6.730  15.818  0.00  0.00    +0.000 OA
ATOM      8  N   UNL     1       3.727   6.189  18.026  0.00  0.00    +0.000 NA
ATOM      9  H   UNL     1       5.180   3.626  16.641  0.00  0.00    +0.000 HD
ENDROOT
BRANCH   1  13
ATOM     10  N   UNL     1       1.100   9.089  19.879  0.00  0.00    +0.000 N 
ATOM     11  N   UNL     1       1.104   8.442  21.072  0.00  0.00    +0.000 NA
ATOM     12  N   UNL     1       1.707   7.274  20.917  0.00  0.00    +0.000 NA
ATOM     13  C   UNL     1       2.199   7.219  19.644  0.00  0.00    +0.000 A 
ATOM     14  C   UNL     1       1.850   8.368  18.956  0.00  0.00    +0.000 A 
ATOM     15  C   UNL     1       2.253   8.849  17.614  0.00  0.00    +0.000 C 
BRANCH  10  20
ATOM     16  C   UNL     1       0.425  12.754  19.929  0.00  0.00    +0.000 A 
ATOM     17  C   UNL     1      -0.920  12.779  19.542  0.00  0.00    +0.000 A 
ATOM     18  C   UNL     1      -1.593  11.593  19.259  0.00  0.00    +0.000 A 
ATOM     19  C   UNL     1      -0.932  10.368  19.354  0.00  0.00    +0.000 A 
ATOM     20  C   UNL     1       0.409  10.322  19.746  0.00  0.00    +0.000 A 
ATOM     21  C   UNL     1       1.078  11.518  20.053  0.00  0.00    +0.000 A 
BRANCH  16  23
ATOM     22  C   UNL     1       0.578  15.211  19.460  0.00  0.00    +0.000 C 
ATOM     23  C   UNL     1       1.153  14.038  20.236  0.00  0.00    +0.000 C 
ENDBRANCH  16  23
ENDBRANCH  10  20
ENDBRANCH   1  13
BRANCH   6  24
ATOM     24  C   UNL     1       5.967   4.923  14.488  0.00  0.00    +0.000 A 
ATOM     25  C   UNL     1       7.246   5.353  14.102  0.00  0.00    +0.000 A 
ATOM     26  C   UNL     1       7.829   4.868  12.936  0.00  0.00    +0.000 A 
ATOM     27  C   UNL     1       7.132   3.955  12.148  0.00  0.00    +0.000 A 
ATOM     28  C   UNL     1       5.861   3.508  12.522  0.00  0.00    +0.000 A 
ATOM     29  C   UNL     1       5.282   3.984  13.702  0.00  0.00    +0.000 A 
BRANCH  28  30
ATOM     30  O   UNL     1       5.297   2.613  11.654  0.00  0.00    +0.000 OA
ATOM     31  C   UNL     1       4.004   2.918  11.149  0.00  0.00    +0.000 C 
ENDBRANCH  28  30
ENDBRANCH   6  24
TORSDOF 5
ENDMDL
MODEL 6
REMARK VINA RESULT:      -8.2      6.155      7.087
REMARK  Name = 
REMARK  8 active torsions:
REMARK  status: ('A' for Active; 'I' for Inactive)
REMARK    1  A    between atoms: C_1  and  C_2
REMARK    2  A    between atoms: C_2  and  C_3
REMARK    3  A    between atoms: C_7  and  N_8
REMARK    4  A    between atoms: C_11  and  C_12
REMARK    5  A    between atoms: C_17  and  C_19
REMARK    6  A    between atoms: C_23  and  O_24
REMARK    7  A    between atoms: O_24  and  C_25
REMARK    8  A    between atoms: C_28  and  C_29
REMARK                            x       y       z     vdW  Elec       q    Type
REMARK                         _______ _______ _______ _____ _____    ______ ____
ROOT
ATOM      1  C   UNL     1       3.566   5.862  18.616  0.00  0.00    +0.000 A 
ATOM      2  N   UNL     1       3.516   4.824  19.463  0.00  0.00    +0.000 NA
ATOM      3  S   UNL     1       2.563   5.305  20.746  0.00  0.00    +0.000 S 
ATOM      4  C   UNL     1       2.225   6.823  20.045  0.00  0.00    +0.000 A 
ATOM      5  N   UNL     1       1.439   7.673  20.771  0.00  0.00    +0.000 N 
ATOM      6  C   UNL     1       0.960   8.832  20.203  0.00  0.00    +0.000 C 
ATOM      7  O   UNL     1       1.018   9.124  19.015  0.00  0.00    +0.000 OA
ATOM      8  N   UNL     1       2.811   6.994  18.892  0.00  0.00    +0.000 NA
ATOM      9  H   UNL     1       1.289   7.434  21.736  0.00  0.00    +0.000 HD
ENDROOT
BRANCH   1  13
ATOM     10  N   UNL     1       5.656   5.469  15.674  0.00  0.00    +0.000 N 
ATOM     11  N   UNL     1       6.153   6.575  16.281  0.00  0.00    +0.000 NA
ATOM     12  N   UNL     1       5.381   6.873  17.314  0.00  0.00    +0.000 NA
ATOM     13  C   UNL     1       4.450   5.884  17.443  0.00  0.00    +0.000 A 
ATOM     14  C   UNL     1       4.605   4.957  16.427  0.00  0.00    +0.000 A 
ATOM     15  C   UNL     1       3.946   3.648  16.207  0.00  0.00    +0.000 C 
BRANCH  10  20
ATOM     16  C   UNL     1       6.111   3.544  12.515  0.00  0.00    +0.000 A 
ATOM     17  C   UNL     1       7.357   4.020  12.094  0.00  0.00    +0.000 A 
ATOM     18  C   UNL     1       8.036   4.976  12.845  0.00  0.00    +0.000 A 
ATOM     19  C   UNL     1       7.478   5.472  14.024  0.00  0.00    +0.000 A 
ATOM     20  C   UNL     1       6.237   5.004  14.465  0.00  0.00    +0.000 A 
ATOM     21  C   UNL     1       5.565   4.023  13.716  0.00  0.00    +0.000 A 
BRANCH  16  23
ATOM     22  C   UNL     1       4.053   3.040  11.176  0.00  0.00    +0.000 C 
ATOM     23  C   UNL     1       5.376   2.508  11.701  0.00  0.00    +0.000 C 
ENDBRANCH  16  23
ENDBRANCH  10  20
ENDBRANCH   1  13
BRANCH   6  24
ATOM     24  C   UNL     1       0.312   9.804  21.128  0.00  0.00    +0.000 A 
ATOM     25  C   UNL     1      -0.130   9.306  22.362  0.00  0.00    +0.000 A 
ATOM     26  C   UNL     1      -0.762  10.145  23.274  0.00  0.00    +0.000 A 
ATOM     27  C   UNL     1      -0.958  11.486  22.952  0.00  0.00    +0.000 A 
ATOM     28  C   UNL     1      -0.514  12.002  21.731  0.00  0.00    +0.000 A 
ATOM     29  C   UNL     1       0.134  11.162  20.821  0.00  0.00    +0.000 A 
BRANCH  28  30
ATOM     30  O   UNL     1      -0.775  13.333  21.551  0.00  0.00    +0.000 OA
ATOM     31  C   UNL     1      -1.748  13.929  22.398  0.00  0.00    +0.000 C 
ENDBRANCH  28  30
ENDBRANCH   6  24
TORSDOF 5
ENDMDL
MODEL 7
REMARK VINA RESULT:      -8.1      9.464     11.042
REMARK  Name = 
REMARK  8 active torsions:
REMARK  status: ('A' for Active; 'I' for Inactive)
REMARK    1  A    between atoms: C_1  and  C_2
REMARK    2  A    between atoms: C_2  and  C_3
REMARK    3  A    between atoms: C_7  and  N_8
REMARK    4  A    between atoms: C_11  and  C_12
REMARK    5  A    between atoms: C_17  and  C_19
REMARK    6  A    between atoms: C_23  and  O_24
REMARK    7  A    between atoms: O_24  and  C_25
REMARK    8  A    between atoms: C_28  and  C_29
REMARK                            x       y       z     vdW  Elec       q    Type
REMARK                         _______ _______ _______ _____ _____    ______ ____
ROOT
ATOM      1  C   UNL     1       1.179  10.674  19.023  0.00  0.00    +0.000 A 
ATOM      2  N   UNL     1       1.219  11.678  18.136  0.00  0.00    +0.000 NA
ATOM      3  S   UNL     1       0.302  12.915  18.780  0.00  0.00    +0.000 S 
ATOM      4  C   UNL     1      -0.012  12.055  20.220  0.00  0.00    +0.000 A 
ATOM      5  N   UNL     1      -0.806  12.675  21.143  0.00  0.00    +0.000 N 
ATOM      6  C   UNL     1      -0.952  12.140  22.404  0.00  0.00    +0.000 C 
ATOM      7  O   UNL     1      -0.291  11.222  22.873  0.00  0.00    +0.000 OA
ATOM      8  N   UNL     1       0.528  10.868  20.233  0.00  0.00    +0.000 NA
ATOM      9  H   UNL     1      -1.310  13.488  20.833  0.00  0.00    +0.000 HD
ENDROOT
BRANCH   1  13
ATOM     10  N   UNL     1       2.560   7.326  18.765  0.00  0.00    +0.000 N 
ATOM     11  N   UNL     1       2.879   7.902  17.579  0.00  0.00    +0.000 NA
ATOM     12  N   UNL     1       2.317   9.099  17.526  0.00  0.00    +0.000 NA
ATOM     13  C   UNL     1       1.731   9.343  18.735  0.00  0.00    +0.000 A 
ATOM     14  C   UNL     1       1.882   8.243  19.561  0.00  0.00    +0.000 A 
ATOM     15  C   UNL     1       1.555   8.061  20.994  0.00  0.00    +0.000 C 
BRANCH  10  20
ATOM     16  C   UNL     1       2.334   3.745  19.772  0.00  0.00    +0.000 A 
ATOM     17  C   UNL     1       3.662   3.339  19.600  0.00  0.00    +0.000 A 
ATOM     18  C   UNL     1       4.621   4.241  19.146  0.00  0.00    +0.000 A 
ATOM     19  C   UNL     1       4.266   5.558  18.854  0.00  0.00    +0.000 A 
ATOM     20  C   UNL     1       2.946   5.985  19.027  0.00  0.00    +0.000 A 
ATOM     21  C   UNL     1       1.986   5.078  19.506  0.00  0.00    +0.000 A 
BRANCH  16  23
ATOM     22  C   UNL     1       1.399   2.544  21.763  0.00  0.00    +0.000 C 
ATOM     23  C   UNL     1       1.296   2.768  20.264  0.00  0.00    +0.000 C 
ENDBRANCH  16  23
ENDBRANCH  10  20
ENDBRANCH   1  13
BRANCH   6  24
ATOM     24  C   UNL     1      -2.009  12.746  23.262  0.00  0.00    +0.000 A 
ATOM     25  C   UNL     1      -1.738  14.012  23.801  0.00  0.00    +0.000 A 
ATOM     26  C   UNL     1      -2.664  14.638  24.628  0.00  0.00    +0.000 A 
ATOM     27  C   UNL     1      -3.865  13.996  24.923  0.00  0.00    +0.000 A 
ATOM     28  C   UNL     1      -4.157  12.739  24.385  0.00  0.00    +0.000 A 
ATOM     29  C   UNL     1      -3.232  12.117  23.543  0.00  0.00    +0.000 A 
BRANCH  28  30
ATOM     30  O   UNL     1      -5.371  12.231  24.760  0.00  0.00    +0.000 OA
ATOM     31  C   UNL     1      -6.517  12.690  24.057  0.00  0.00    +0.000 C 
ENDBRANCH  28  30
ENDBRANCH   6  24
TORSDOF 5
ENDMDL
MODEL 8
REMARK VINA RESULT:      -8.0      9.873     13.036
REMARK  Name = 
REMARK  8 active torsions:
REMARK  status: ('A' for Active; 'I' for Inactive)
REMARK    1  A    between atoms: C_1  and  C_2
REMARK    2  A    between atoms: C_2  and  C_3
REMARK    3  A    between atoms: C_7  and  N_8
REMARK    4  A    between atoms: C_11  and  C_12
REMARK    5  A    between atoms: C_17  and  C_19
REMARK    6  A    between atoms: C_23  and  O_24
REMARK    7  A    between atoms: O_24  and  C_25
REMARK    8  A    between atoms: C_28  and  C_29
REMARK                            x       y       z     vdW  Elec       q    Type
REMARK                         _______ _______ _______ _____ _____    ______ ____
ROOT
ATOM      1  C   UNL     1       0.441  10.323  19.989  0.00  0.00    +0.000 A 
ATOM      2  N   UNL     1       0.783  10.923  18.840  0.00  0.00    +0.000 NA
ATOM      3  S   UNL     1       1.792   9.865  18.035  0.00  0.00    +0.000 S 
ATOM      4  C   UNL     1       1.636   8.661  19.233  0.00  0.00    +0.000 A 
ATOM      5  N   UNL     1       2.345   7.509  19.041  0.00  0.00    +0.000 N 
ATOM      6  C   UNL     1       2.129   6.417  19.852  0.00  0.00    +0.000 C 
ATOM      7  O   UNL     1       1.215   6.292  20.657  0.00  0.00    +0.000 OA
ATOM      8  N   UNL     1       0.870   9.024  20.225  0.00  0.00    +0.000 NA
ATOM      9  H   UNL     1       3.056   7.530  18.330  0.00  0.00    +0.000 HD
ENDROOT
BRANCH   1  13
ATOM     10  N   UNL     1      -1.590  12.281  22.274  0.00  0.00    +0.000 N 
ATOM     11  N   UNL     1      -0.590  11.802  23.056  0.00  0.00    +0.000 NA
ATOM     12  N   UNL     1       0.150  10.974  22.335  0.00  0.00    +0.000 NA
ATOM     13  C   UNL     1      -0.306  11.013  21.049  0.00  0.00    +0.000 A 
ATOM     14  C   UNL     1      -1.403  11.852  20.964  0.00  0.00    +0.000 A 
ATOM     15  C   UNL     1      -2.161  12.333  19.786  0.00  0.00    +0.000 C 
BRANCH  10  20
ATOM     16  C   UNL     1      -4.867  13.331  23.706  0.00  0.00    +0.000 A 
ATOM     17  C   UNL     1      -4.636  14.694  23.919  0.00  0.00    +0.000 A 
ATOM     18  C   UNL     1      -3.403  15.258  23.600  0.00  0.00    +0.000 A 
ATOM     19  C   UNL     1      -2.384  14.468  23.068  0.00  0.00    +0.000 A 
ATOM     20  C   UNL     1      -2.597  13.105  22.841  0.00  0.00    +0.000 A 
ATOM     21  C   UNL     1      -3.850  12.545  23.143  0.00  0.00    +0.000 A 
BRANCH  16  23
ATOM     22  C   UNL     1      -7.298  13.771  24.124  0.00  0.00    +0.000 C 
ATOM     23  C   UNL     1      -6.202  12.721  24.051  0.00  0.00    +0.000 C 
ENDBRANCH  16  23
ENDBRANCH  10  20
ENDBRANCH   1  13
BRANCH   6  24
ATOM     24  C   UNL     1       3.101   5.294  19.723  0.00  0.00    +0.000 A 
ATOM     25  C   UNL     1       2.651   4.021  20.104  0.00  0.00    +0.000 A 
ATOM     26  C   UNL     1       3.503   2.924  20.032  0.00  0.00    +0.000 A 
ATOM     27  C   UNL     1       4.810   3.097  19.583  0.00  0.00    +0.000 A 
ATOM     28  C   UNL     1       5.272   4.357  19.188  0.00  0.00    +0.000 A 
ATOM     29  C   UNL     1       4.411   5.456  19.247  0.00  0.00    +0.000 A 
BRANCH  28  30
ATOM     30  O   UNL     1       6.574   4.377  18.770  0.00  0.00    +0.000 OA
ATOM     31  C   UNL     1       7.257   5.622  18.817  0.00  0.00    +0.000 C 
ENDBRANCH  28  30
ENDBRANCH   6  24
TORSDOF 5
ENDMDL
MODEL 9
REMARK VINA RESULT:      -7.9      8.749     12.607
REMARK  Name = 
REMARK  8 active torsions:
REMARK  status: ('A' for Active; 'I' for Inactive)
REMARK    1  A    between atoms: C_1  and  C_2
REMARK    2  A    between atoms: C_2  and  C_3
REMARK    3  A    between atoms: C_7  and  N_8
REMARK    4  A    between atoms: C_11  and  C_12
REMARK    5  A    between atoms: C_17  and  C_19
REMARK    6  A    between atoms: C_23  and  O_24
REMARK    7  A    between atoms: O_24  and  C_25
REMARK    8  A    between atoms: C_28  and  C_29
REMARK                            x       y       z     vdW  Elec       q    Type
REMARK                         _______ _______ _______ _____ _____    ______ ____
ROOT
ATOM      1  C   UNL     1       0.605  10.578  20.675  0.00  0.00    +0.000 A 
ATOM      2  N   UNL     1       0.528  10.208  21.961  0.00  0.00    +0.000 NA
ATOM      3  S   UNL     1       1.123   8.651  22.043  0.00  0.00    +0.000 S 
ATOM      4  C   UNL     1       1.510   8.614  20.382  0.00  0.00    +0.000 A 
ATOM      5  N   UNL     1       2.047   7.452  19.903  0.00  0.00    +0.000 N 
ATOM      6  C   UNL     1       2.565   7.400  18.628  0.00  0.00    +0.000 C 
ATOM      7  O   UNL     1       2.764   8.362  17.896  0.00  0.00    +0.000 OA
ATOM      8  N   UNL     1       1.197   9.717  19.760  0.00  0.00    +0.000 NA
ATOM      9  H   UNL     1       1.986   6.647  20.502  0.00  0.00    +0.000 HD
ENDROOT
BRANCH   1  13
ATOM     10  N   UNL     1      -0.560  13.882  19.723  0.00  0.00    +0.000 N 
ATOM     11  N   UNL     1      -1.591  13.065  19.392  0.00  0.00    +0.000 NA
ATOM     12  N   UNL     1      -1.220  11.811  19.596  0.00  0.00    +0.000 NA
ATOM     13  C   UNL     1       0.017  11.827  20.175  0.00  0.00    +0.000 A 
ATOM     14  C   UNL     1       0.464  13.132  20.292  0.00  0.00    +0.000 A 
ATOM     15  C   UNL     1       1.661  13.684  20.968  0.00  0.00    +0.000 C 
BRANCH  10  20
ATOM     16  C   UNL     1       0.172  17.266  18.344  0.00  0.00    +0.000 A 
ATOM     17  C   UNL     1      -0.783  18.036  19.017  0.00  0.00    +0.000 A 
ATOM     18  C   UNL     1      -1.666  17.439  19.913  0.00  0.00    +0.000 A 
ATOM     19  C   UNL     1      -1.610  16.064  20.145  0.00  0.00    +0.000 A 
ATOM     20  C   UNL     1      -0.659  15.278  19.487  0.00  0.00    +0.000 A 
ATOM     21  C   UNL     1       0.245  15.888  18.601  0.00  0.00    +0.000 A 
BRANCH  16  23
ATOM     22  C   UNL     1       0.394  18.630  16.253  0.00  0.00    +0.000 C 
ATOM     23  C   UNL     1       1.128  17.914  17.374  0.00  0.00    +0.000 C 
ENDBRANCH  16  23
ENDBRANCH  10  20
ENDBRANCH   1  13
BRANCH   6  24
ATOM     24  C   UNL     1       2.914   6.047  18.110  0.00  0.00    +0.000 A 
ATOM     25  C   UNL     1       4.097   5.940  17.365  0.00  0.00    +0.000 A 
ATOM     26  C   UNL     1       4.483   4.716  16.830  0.00  0.00    +0.000 A 
ATOM     27  C   UNL     1       3.683   3.594  17.034  0.00  0.00    +0.000 A 
ATOM     28  C   UNL     1       2.505   3.680  17.783  0.00  0.00    +0.000 A 
ATOM     29  C   UNL     1       2.126   4.908  18.333  0.00  0.00    +0.000 A 
BRANCH  28  30
ATOM     30  O   UNL     1       1.823   2.501  17.901  0.00  0.00    +0.000 OA
ATOM     31  C   UNL     1       0.691   2.483  18.760  0.00  0.00    +0.000 C 
ENDBRANCH  28  30
ENDBRANCH   6  24
TORSDOF 5
ENDMDL
