MODEL 1
REMARK VINA RESULT:      -8.7      0.000      0.000
REMARK  Name = 
REMARK  9 active torsions:
REMARK  status: ('A' for Active; 'I' for Inactive)
REMARK    1  A    between atoms: C_1  and  C_2
REMARK    2  A    between atoms: C_2  and  C_3
REMARK    3  A    between atoms: C_3  and  C_4
REMARK    4  A    between atoms: C_4  and  N_5
REMARK    5  A    between atoms: C_4  and  C_18
REMARK    6  A    between atoms: C_6  and  C_8
REMARK    7  A    between atoms: C_18  and  O_19
REMARK    8  A    between atoms: C_18  and  C_20
REMARK    9  A    between atoms: C_25  and  C_26
REMARK                            x       y       z     vdW  Elec       q    Type
REMARK                         _______ _______ _______ _____ _____    ______ ____
ROOT
ATOM      1  N   UNL     1       3.041   5.556  19.248  0.00  0.00    +0.000 N 
ATOM      2  C   UNL     1       2.180   6.328  19.999  0.00  0.00    +0.000 C 
ATOM      3  O   UNL     1       1.650   5.941  21.032  0.00  0.00    +0.000 OA
ATOM      4  H   UNL     1       3.631   6.011  18.563  0.00  0.00    +0.000 HD
ENDROOT
BRANCH   2   5
ATOM      5  C   UNL     1       1.932   7.703  19.493  0.00  0.00    +0.000 A 
ATOM      6  C   UNL     1       2.228   8.050  18.162  0.00  0.00    +0.000 A 
ATOM      7  C   UNL     1       1.985   9.351  17.682  0.00  0.00    +0.000 A 
ATOM      8  C   UNL     1       1.433  10.325  18.516  0.00  0.00    +0.000 A 
ATOM      9  C   UNL     1       1.135   9.957  19.810  0.00  0.00    +0.000 A 
ATOM     10  C   UNL     1       1.366   8.674  20.307  0.00  0.00    +0.000 A 
ATOM     11  C   UNL     1       0.930   8.621  21.744  0.00  0.00    +0.000 C 
ATOM     12  C   UNL     1       0.429  10.050  21.986  0.00  0.00    +0.000 C 
ATOM     13  O   UNL     1      -0.023  10.504  23.024  0.00  0.00    +0.000 OA
ATOM     14  N   UNL     1       0.586  10.755  20.799  0.00  0.00    +0.000 N 
ATOM     15  H   UNL     1       0.324  11.725  20.703  0.00  0.00    +0.000 HD
ENDBRANCH   2   5
BRANCH   1  16
ATOM     16  C   UNL     1       3.386   4.183  19.635  0.00  0.00    +0.000 C 
BRANCH  16  17
ATOM     17  C   UNL     1       2.350   3.196  19.044  0.00  0.00    +0.000 C 
BRANCH  17  19
ATOM     18  C   UNL     1       2.047   2.628  21.508  0.00  0.00    +0.000 C 
ATOM     19  C   UNL     1       1.411   2.636  20.125  0.00  0.00    +0.000 C 
ENDBRANCH  17  19
ENDBRANCH  16  17
BRANCH  16  20
ATOM     20  C   UNL     1       4.884   3.816  19.323  0.00  0.00    +0.000 C 
BRANCH  20  21
ATOM     21  C   UNL     1       5.414   4.382  18.006  0.00  0.00    +0.000 A 
ATOM     22  C   UNL     1       4.720   4.006  16.834  0.00  0.00    +0.000 A 
ATOM     23  C   UNL     1       5.183   4.351  15.566  0.00  0.00    +0.000 A 
ATOM     24  C   UNL     1       6.353   5.085  15.437  0.00  0.00    +0.000 A 
ATOM     25  C   UNL     1       7.021   5.522  16.577  0.00  0.00    +0.000 A 
ATOM     26  C   UNL     1       6.553   5.208  17.869  0.00  0.00    +0.000 A 
ATOM     27  C   UNL     1       7.295   5.811  19.032  0.00  0.00    +0.000 C 
ENDBRANCH  20  21
BRANCH  20  28
ATOM     28  O   UNL     1       5.119   2.412  19.444  0.00  0.00    +0.000 OA
ATOM     29  H   UNL     1       4.278   1.947  19.322  0.00  0.00    +0.000 HD
ENDBRANCH  20  28
ENDBRANCH  16  20
ENDBRANCH   1  16
TORSDOF 7
ENDMDL
MODEL 2
REMARK VINA RESULT:      -8.3      3.267      5.919
REMARK  Name = 
REMARK  9 active torsions:
REMARK  status: ('A' for Active; 'I' for Inactive)
REMARK    1  A    between atoms: C_1  and  C_2
REMARK    2  A    between atoms: C_2  and  C_3
REMARK    3  A    between atoms: C_3  and  C_4
REMARK    4  A    between atoms: C_4  and  N_5
REMARK    5  A    between atoms: C_4  and  C_18
REMARK    6  A    between atoms: C_6  and  C_8
REMARK    7  A    between atoms: C_18  and  O_19
REMARK    8  A    between atoms: C_18  and  C_20
REMARK    9  A    between atoms: C_25  and  C_26
REMARK                            x       y       z     vdW  Elec       q    Type
REMARK                         _______ _______ _______ _____ _____    ______ ____
ROOT
ATOM      1  N   UNL     1       5.824   5.803  17.895  0.00  0.00    +0.000 N 
ATOM      2  C   UNL     1       4.542   6.308  17.828  0.00  0.00    +0.000 C 
ATOM      3  O   UNL     1       4.202   7.191  17.052  0.00  0.00    +0.000 OA
ATOM      4  H   UNL     1       5.975   4.919  18.364  0.00  0.00    +0.000 HD
ENDROOT
BRANCH   2   5
ATOM      5  C   UNL     1       3.555   5.697  18.755  0.00  0.00    +0.000 A 
ATOM      6  C   UNL     1       2.705   6.497  19.540  0.00  0.00    +0.000 A 
ATOM      7  C   UNL     1       1.765   5.916  20.412  0.00  0.00    +0.000 A 
ATOM      8  C   UNL     1       1.647   4.529  20.509  0.00  0.00    +0.000 A 
ATOM      9  C   UNL     1       2.478   3.765  19.717  0.00  0.00    +0.000 A 
ATOM     10  C   UNL     1       3.416   4.319  18.846  0.00  0.00    +0.000 A 
ATOM     11  C   UNL     1       4.147   3.208  18.146  0.00  0.00    +0.000 C 
ATOM     12  C   UNL     1       3.495   1.958  18.748  0.00  0.00    +0.000 C 
ATOM     13  O   UNL     1       3.763   0.795  18.495  0.00  0.00    +0.000 OA
ATOM     14  N   UNL     1       2.530   2.383  19.653  0.00  0.00    +0.000 N 
ATOM     15  H   UNL     1       1.958   1.742  20.182  0.00  0.00    +0.000 HD
ENDBRANCH   2   5
BRANCH   1  16
ATOM     16  C   UNL     1       6.898   6.304  17.030  0.00  0.00    +0.000 C 
BRANCH  16  17
ATOM     17  C   UNL     1       7.845   7.218  17.845  0.00  0.00    +0.000 C 
BRANCH  17  19
ATOM     18  C   UNL     1       8.580   9.619  18.269  0.00  0.00    +0.000 C 
ATOM     19  C   UNL     1       7.595   8.707  17.553  0.00  0.00    +0.000 C 
ENDBRANCH  17  19
ENDBRANCH  16  17
BRANCH  16  20
ATOM     20  C   UNL     1       7.628   5.159  16.233  0.00  0.00    +0.000 C 
BRANCH  20  21
ATOM     21  C   UNL     1       6.945   4.764  14.925  0.00  0.00    +0.000 A 
ATOM     22  C   UNL     1       5.693   4.118  15.036  0.00  0.00    +0.000 A 
ATOM     23  C   UNL     1       5.036   3.595  13.924  0.00  0.00    +0.000 A 
ATOM     24  C   UNL     1       5.614   3.708  12.668  0.00  0.00    +0.000 A 
ATOM     25  C   UNL     1       6.816   4.396  12.522  0.00  0.00    +0.000 A 
ATOM     26  C   UNL     1       7.481   4.956  13.631  0.00  0.00    +0.000 A 
ATOM     27  C   UNL     1       8.721   5.762  13.349  0.00  0.00    +0.000 C 
ENDBRANCH  20  21
BRANCH  20  28
ATOM     28  O   UNL     1       7.901   4.029  17.065  0.00  0.00    +0.000 OA
ATOM     29  H   UNL     1       8.005   3.249  16.500  0.00  0.00    +0.000 HD
ENDBRANCH  20  28
ENDBRANCH  16  20
ENDBRANCH   1  16
TORSDOF 7
ENDMDL
MODEL 3
REMARK VINA RESULT:      -8.2      0.585      1.525
REMARK  Name = 
REMARK  9 active torsions:
REMARK  status: ('A' for Active; 'I' for Inactive)
REMARK    1  A    between atoms: C_1  and  C_2
REMARK    2  A    between atoms: C_2  and  C_3
REMARK    3  A    between atoms: C_3  and  C_4
REMARK    4  A    between atoms: C_4  and  N_5
REMARK    5  A    between atoms: C_4  and  C_18
REMARK    6  A    between atoms: C_6  and  C_8
REMARK    7  A    between atoms: C_18  and  O_19
REMARK    8  A    between atoms: C_18  and  C_20
REMARK    9  A    between atoms: C_25  and  C_26
REMARK                            x       y       z     vdW  Elec       q    Type
REMARK                         _______ _______ _______ _____ _____    ______ ____
ROOT
ATOM      1  N   UNL     1       2.921   5.539  18.944  0.00  0.00    +0.000 N 
ATOM      2  C   UNL     1       2.174   6.320  19.800  0.00  0.00    +0.000 C 
ATOM      3  O   UNL     1       1.709   5.912  20.857  0.00  0.00    +0.000 OA
ATOM      4  H   UNL     1       3.478   5.993  18.232  0.00  0.00    +0.000 HD
ENDROOT
BRANCH   2   5
ATOM      5  C   UNL     1       1.968   7.730  19.380  0.00  0.00    +0.000 A 
ATOM      6  C   UNL     1       2.287   8.152  18.077  0.00  0.00    +0.000 A 
ATOM      7  C   UNL     1       2.084   9.487  17.678  0.00  0.00    +0.000 A 
ATOM      8  C   UNL     1       1.550  10.421  18.567  0.00  0.00    +0.000 A 
ATOM      9  C   UNL     1       1.228   9.980  19.833  0.00  0.00    +0.000 A 
ATOM     10  C   UNL     1       1.419   8.663  20.249  0.00  0.00    +0.000 A 
ATOM     11  C   UNL     1       0.967   8.531  21.676  0.00  0.00    +0.000 C 
ATOM     12  C   UNL     1       0.502   9.956  22.004  0.00  0.00    +0.000 C 
ATOM     13  O   UNL     1       0.051  10.355  23.064  0.00  0.00    +0.000 OA
ATOM     14  N   UNL     1       0.690  10.729  20.865  0.00  0.00    +0.000 N 
ATOM     15  H   UNL     1       0.456  11.710  20.828  0.00  0.00    +0.000 HD
ENDBRANCH   2   5
BRANCH   1  16
ATOM     16  C   UNL     1       3.213   4.131  19.238  0.00  0.00    +0.000 C 
BRANCH  16  17
ATOM     17  C   UNL     1       2.482   3.221  18.221  0.00  0.00    +0.000 C 
BRANCH  17  19
ATOM     18  C   UNL     1       1.313   2.587  20.393  0.00  0.00    +0.000 C 
ATOM     19  C   UNL     1       1.340   2.429  18.879  0.00  0.00    +0.000 C 
ENDBRANCH  17  19
ENDBRANCH  16  17
BRANCH  16  20
ATOM     20  C   UNL     1       4.754   3.842  19.379  0.00  0.00    +0.000 C 
BRANCH  20  21
ATOM     21  C   UNL     1       5.646   4.721  18.504  0.00  0.00    +0.000 A 
ATOM     22  C   UNL     1       6.578   5.543  19.177  0.00  0.00    +0.000 A 
ATOM     23  C   UNL     1       7.354   6.480  18.498  0.00  0.00    +0.000 A 
ATOM     24  C   UNL     1       7.219   6.619  17.125  0.00  0.00    +0.000 A 
ATOM     25  C   UNL     1       6.355   5.778  16.428  0.00  0.00    +0.000 A 
ATOM     26  C   UNL     1       5.583   4.805  17.094  0.00  0.00    +0.000 A 
ATOM     27  C   UNL     1       4.756   3.884  16.236  0.00  0.00    +0.000 C 
ENDBRANCH  20  21
BRANCH  20  28
ATOM     28  O   UNL     1       5.045   2.451  19.224  0.00  0.00    +0.000 OA
ATOM     29  H   UNL     1       5.925   2.362  18.826  0.00  0.00    +0.000 HD
ENDBRANCH  20  28
ENDBRANCH  16  20
ENDBRANCH   1  16
TORSDOF 7
ENDMDL
MODEL 4
REMARK VINA RESULT:      -8.1      2.750      5.429
REMARK  Name = 
REMARK  9 active torsions:
REMARK  status: ('A' for Active; 'I' for Inactive)
REMARK    1  A    between atoms: C_1  and  C_2
REMARK    2  A    between atoms: C_2  and  C_3
REMARK    3  A    between atoms: C_3  and  C_4
REMARK    4  A    between atoms: C_4  and  N_5
REMARK    5  A    between atoms: C_4  and  C_18
REMARK    6  A    between atoms: C_6  and  C_8
REMARK    7  A    between atoms: C_18  and  O_19
REMARK    8  A    between atoms: C_18  and  C_20
REMARK    9  A    between atoms: C_25  and  C_26
REMARK                            x       y       z     vdW  Elec       q    Type
REMARK                         _______ _______ _______ _____ _____    ______ ____
ROOT
ATOM      1  N   UNL     1       5.257   5.379  16.983  0.00  0.00    +0.000 N 
ATOM      2  C   UNL     1       5.262   4.496  18.043  0.00  0.00    +0.000 C 
ATOM      3  O   UNL     1       6.260   4.237  18.703  0.00  0.00    +0.000 OA
ATOM      4  H   UNL     1       4.370   5.735  16.651  0.00  0.00    +0.000 HD
ENDROOT
BRANCH   2   5
ATOM      5  C   UNL     1       3.957   3.867  18.370  0.00  0.00    +0.000 A 
ATOM      6  C   UNL     1       3.638   2.576  17.910  0.00  0.00    +0.000 A 
ATOM      7  C   UNL     1       2.403   1.979  18.229  0.00  0.00    +0.000 A 
ATOM      8  C   UNL     1       1.471   2.652  19.019  0.00  0.00    +0.000 A 
ATOM      9  C   UNL     1       1.812   3.908  19.473  0.00  0.00    +0.000 A 
ATOM     10  C   UNL     1       3.030   4.519  19.171  0.00  0.00    +0.000 A 
ATOM     11  C   UNL     1       3.070   5.873  19.820  0.00  0.00    +0.000 C 
ATOM     12  C   UNL     1       1.708   5.940  20.521  0.00  0.00    +0.000 C 
ATOM     13  O   UNL     1       1.267   6.865  21.184  0.00  0.00    +0.000 OA
ATOM     14  N   UNL     1       1.045   4.746  20.264  0.00  0.00    +0.000 N 
ATOM     15  H   UNL     1       0.123   4.546  20.621  0.00  0.00    +0.000 HD
ENDBRANCH   2   5
BRANCH   1  16
ATOM     16  C   UNL     1       6.472   6.082  16.557  0.00  0.00    +0.000 C 
BRANCH  16  17
ATOM     17  C   UNL     1       7.106   6.813  17.765  0.00  0.00    +0.000 C 
BRANCH  17  19
ATOM     18  C   UNL     1       8.510   8.827  18.441  0.00  0.00    +0.000 C 
ATOM     19  C   UNL     1       7.584   8.226  17.394  0.00  0.00    +0.000 C 
ENDBRANCH  17  19
ENDBRANCH  16  17
BRANCH  16  20
ATOM     20  C   UNL     1       7.468   5.158  15.761  0.00  0.00    +0.000 C 
BRANCH  20  21
ATOM     21  C   UNL     1       6.948   4.689  14.403  0.00  0.00    +0.000 A 
ATOM     22  C   UNL     1       5.765   3.918  14.412  0.00  0.00    +0.000 A 
ATOM     23  C   UNL     1       5.266   3.326  13.252  0.00  0.00    +0.000 A 
ATOM     24  C   UNL     1       5.939   3.493  12.051  0.00  0.00    +0.000 A 
ATOM     25  C   UNL     1       7.073   4.301  12.003  0.00  0.00    +0.000 A 
ATOM     26  C   UNL     1       7.575   4.931  13.159  0.00  0.00    +0.000 A 
ATOM     27  C   UNL     1       8.746   5.860  12.978  0.00  0.00    +0.000 C 
ENDBRANCH  20  21
BRANCH  20  28
ATOM     28  O   UNL     1       7.938   4.074  16.565  0.00  0.00    +0.000 OA
ATOM     29  H   UNL     1       8.685   4.386  17.098  0.00  0.00    +0.000 HD
ENDBRANCH  20  28
ENDBRANCH  16  20
ENDBRANCH   1  16
TORSDOF 7
ENDMDL
MODEL 5
REMARK VINA RESULT:      -8.1      1.323      2.037
REMARK  Name = 
REMARK  9 active torsions:
REMARK  status: ('A' for Active; 'I' for Inactive)
REMARK    1  A    between atoms: C_1  and  C_2
REMARK    2  A    between atoms: C_2  and  C_3
REMARK    3  A    between atoms: C_3  and  C_4
REMARK    4  A    between atoms: C_4  and  N_5
REMARK    5  A    between atoms: C_4  and  C_18
REMARK    6  A    between atoms: C_6  and  C_8
REMARK    7  A    between atoms: C_18  and  O_19
REMARK    8  A    between atoms: C_18  and  C_20
REMARK    9  A    between atoms: C_25  and  C_26
REMARK                            x       y       z     vdW  Elec       q    Type
REMARK                         _______ _______ _______ _____ _____    ______ ____
ROOT
ATOM      1  N   UNL     1       3.518   6.128  19.682  0.00  0.00    +0.000 N 
ATOM      2  C   UNL     1       2.509   6.485  18.811  0.00  0.00    +0.000 C 
ATOM      3  O   UNL     1       1.943   5.692  18.070  0.00  0.00    +0.000 OA
ATOM      4  H   UNL     1       3.760   6.763  20.431  0.00  0.00    +0.000 HD
ENDROOT
BRANCH   2   5
ATOM      5  C   UNL     1       2.114   7.916  18.827  0.00  0.00    +0.000 A 
ATOM      6  C   UNL     1       2.332   8.743  17.710  0.00  0.00    +0.000 A 
ATOM      7  C   UNL     1       1.949  10.097  17.724  0.00  0.00    +0.000 A 
ATOM      8  C   UNL     1       1.331  10.649  18.848  0.00  0.00    +0.000 A 
ATOM      9  C   UNL     1       1.111   9.816  19.924  0.00  0.00    +0.000 A 
ATOM     10  C   UNL     1       1.481   8.471  19.931  0.00  0.00    +0.000 A 
ATOM     11  C   UNL     1       1.098   7.867  21.252  0.00  0.00    +0.000 C 
ATOM     12  C   UNL     1       0.468   9.058  21.986  0.00  0.00    +0.000 C 
ATOM     13  O   UNL     1       0.007   9.064  23.115  0.00  0.00    +0.000 OA
ATOM     14  N   UNL     1       0.518  10.150  21.129  0.00  0.00    +0.000 N 
ATOM     15  H   UNL     1       0.161  11.059  21.384  0.00  0.00    +0.000 HD
ENDBRANCH   2   5
BRANCH   1  16
ATOM     16  C   UNL     1       4.001   4.747  19.780  0.00  0.00    +0.000 C 
BRANCH  16  17
ATOM     17  C   UNL     1       2.800   3.781  19.933  0.00  0.00    +0.000 C 
BRANCH  17  19
ATOM     18  C   UNL     1       1.413   2.602  21.714  0.00  0.00    +0.000 C 
ATOM     19  C   UNL     1       2.173   3.865  21.334  0.00  0.00    +0.000 C 
ENDBRANCH  17  19
ENDBRANCH  16  17
BRANCH  16  20
ATOM     20  C   UNL     1       5.001   4.363  18.627  0.00  0.00    +0.000 C 
BRANCH  20  21
ATOM     21  C   UNL     1       6.046   5.432  18.314  0.00  0.00    +0.000 A 
ATOM     22  C   UNL     1       7.171   5.484  19.167  0.00  0.00    +0.000 A 
ATOM     23  C   UNL     1       8.125   6.494  19.062  0.00  0.00    +0.000 A 
ATOM     24  C   UNL     1       7.980   7.480  18.097  0.00  0.00    +0.000 A 
ATOM     25  C   UNL     1       6.915   7.416  17.202  0.00  0.00    +0.000 A 
ATOM     26  C   UNL     1       5.956   6.386  17.274  0.00  0.00    +0.000 A 
ATOM     27  C   UNL     1       4.902   6.356  16.199  0.00  0.00    +0.000 C 
ENDBRANCH  20  21
BRANCH  20  28
ATOM     28  O   UNL     1       4.310   3.921  17.456  0.00  0.00    +0.000 OA
ATOM     29  H   UNL     1       4.343   4.627  16.794  0.00  0.00    +0.000 HD
ENDBRANCH  20  28
ENDBRANCH  16  20
ENDBRANCH   1  16
TORSDOF 7
ENDMDL
MODEL 6
REMARK VINA RESULT:      -8.1      1.351      2.024
REMARK  Name = 
REMARK  9 active torsions:
REMARK  status: ('A' for Active; 'I' for Inactive)
REMARK    1  A    between atoms: C_1  and  C_2
REMARK    2  A    between atoms: C_2  and  C_3
REMARK    3  A    between atoms: C_3  and  C_4
REMARK    4  A    between atoms: C_4  and  N_5
REMARK    5  A    between atoms: C_4  and  C_18
REMARK    6  A    between atoms: C_6  and  C_8
REMARK    7  A    between atoms: C_18  and  O_19
REMARK    8  A    between atoms: C_18  and  C_20
REMARK    9  A    between atoms: C_25  and  C_26
REMARK                            x       y       z     vdW  Elec       q    Type
REMARK                         _______ _______ _______ _____ _____    ______ ____
ROOT
ATOM      1  N   UNL     1       3.019   5.633  18.061  0.00  0.00    +0.000 N 
ATOM      2  C   UNL     1       2.678   6.301  19.219  0.00  0.00    +0.000 C 
ATOM      3  O   UNL     1       2.759   5.805  20.335  0.00  0.00    +0.000 OA
ATOM      4  H   UNL     1       3.171   6.169  17.217  0.00  0.00    +0.000 HD
ENDROOT
BRANCH   2   5
ATOM      5  C   UNL     1       2.215   7.702  19.047  0.00  0.00    +0.000 A 
ATOM      6  C   UNL     1       2.491   8.418  17.868  0.00  0.00    +0.000 A 
ATOM      7  C   UNL     1       2.044   9.742  17.704  0.00  0.00    +0.000 A 
ATOM      8  C   UNL     1       1.306  10.373  18.706  0.00  0.00    +0.000 A 
ATOM      9  C   UNL     1       1.032   9.646  19.845  0.00  0.00    +0.000 A 
ATOM     10  C   UNL     1       1.464   8.332  20.029  0.00  0.00    +0.000 A 
ATOM     11  C   UNL     1       0.996   7.848  21.372  0.00  0.00    +0.000 C 
ATOM     12  C   UNL     1       0.249   9.072  21.918  0.00  0.00    +0.000 C 
ATOM     13  O   UNL     1      -0.308   9.170  22.999  0.00  0.00    +0.000 OA
ATOM     14  N   UNL     1       0.321  10.070  20.955  0.00  0.00    +0.000 N 
ATOM     15  H   UNL     1      -0.099  10.979  21.080  0.00  0.00    +0.000 HD
ENDBRANCH   2   5
BRANCH   1  16
ATOM     16  C   UNL     1       3.503   4.248  18.082  0.00  0.00    +0.000 C 
BRANCH  16  17
ATOM     17  C   UNL     1       2.355   3.285  17.693  0.00  0.00    +0.000 C 
BRANCH  17  19
ATOM     18  C   UNL     1       0.843   2.982  19.720  0.00  0.00    +0.000 C 
ATOM     19  C   UNL     1       1.948   2.377  18.865  0.00  0.00    +0.000 C 
ENDBRANCH  17  19
ENDBRANCH  16  17
BRANCH  16  20
ATOM     20  C   UNL     1       4.827   4.049  17.253  0.00  0.00    +0.000 C 
BRANCH  20  21
ATOM     21  C   UNL     1       5.897   5.110  17.505  0.00  0.00    +0.000 A 
ATOM     22  C   UNL     1       6.838   4.829  18.520  0.00  0.00    +0.000 A 
ATOM     23  C   UNL     1       7.780   5.771  18.929  0.00  0.00    +0.000 A 
ATOM     24  C   UNL     1       7.805   7.022  18.330  0.00  0.00    +0.000 A 
ATOM     25  C   UNL     1       6.931   7.303  17.284  0.00  0.00    +0.000 A 
ATOM     26  C   UNL     1       5.991   6.353  16.837  0.00  0.00    +0.000 A 
ATOM     27  C   UNL     1       5.160   6.724  15.637  0.00  0.00    +0.000 C 
ENDBRANCH  20  21
BRANCH  20  28
ATOM     28  O   UNL     1       4.556   3.873  15.861  0.00  0.00    +0.000 OA
ATOM     29  H   UNL     1       3.596   3.836  15.736  0.00  0.00    +0.000 HD
ENDBRANCH  20  28
ENDBRANCH  16  20
ENDBRANCH   1  16
TORSDOF 7
ENDMDL
MODEL 7
REMARK VINA RESULT:      -8.1      2.496      7.456
REMARK  Name = 
REMARK  9 active torsions:
REMARK  status: ('A' for Active; 'I' for Inactive)
REMARK    1  A    between atoms: C_1  and  C_2
REMARK    2  A    between atoms: C_2  and  C_3
REMARK    3  A    between atoms: C_3  and  C_4
REMARK    4  A    between atoms: C_4  and  N_5
REMARK    5  A    between atoms: C_4  and  C_18
REMARK    6  A    between atoms: C_6  and  C_8
REMARK    7  A    between atoms: C_18  and  O_19
REMARK    8  A    between atoms: C_18  and  C_20
REMARK    9  A    between atoms: C_25  and  C_26
REMARK                            x       y       z     vdW  Elec       q    Type
REMARK                         _______ _______ _______ _____ _____    ______ ____
ROOT
ATOM      1  N   UNL     1       2.531   7.952  19.195  0.00  0.00    +0.000 N 
ATOM      2  C   UNL     1       2.548   6.983  18.214  0.00  0.00    +0.000 C 
ATOM      3  O   UNL     1       1.563   6.664  17.561  0.00  0.00    +0.000 OA
ATOM      4  H   UNL     1       3.411   8.340  19.511  0.00  0.00    +0.000 HD
ENDROOT
BRANCH   2   5
ATOM      5  C   UNL     1       3.862   6.338  17.962  0.00  0.00    +0.000 A 
ATOM      6  C   UNL     1       4.819   6.942  17.126  0.00  0.00    +0.000 A 
ATOM      7  C   UNL     1       6.066   6.333  16.894  0.00  0.00    +0.000 A 
ATOM      8  C   UNL     1       6.387   5.117  17.500  0.00  0.00    +0.000 A 
ATOM      9  C   UNL     1       5.442   4.553  18.330  0.00  0.00    +0.000 A 
ATOM     10  C   UNL     1       4.200   5.139  18.574  0.00  0.00    +0.000 A 
ATOM     11  C   UNL     1       3.423   4.262  19.515  0.00  0.00    +0.000 C 
ATOM     12  C   UNL     1       4.397   3.102  19.759  0.00  0.00    +0.000 C 
ATOM     13  O   UNL     1       4.210   2.121  20.460  0.00  0.00    +0.000 OA
ATOM     14  N   UNL     1       5.549   3.362  19.028  0.00  0.00    +0.000 N 
ATOM     15  H   UNL     1       6.344   2.741  19.025  0.00  0.00    +0.000 HD
ENDBRANCH   2   5
BRANCH   1  16
ATOM     16  C   UNL     1       1.305   8.680  19.542  0.00  0.00    +0.000 C 
BRANCH  16  17
ATOM     17  C   UNL     1       1.228   8.877  21.075  0.00  0.00    +0.000 C 
BRANCH  17  19
ATOM     18  C   UNL     1      -0.487   9.428  22.875  0.00  0.00    +0.000 C 
ATOM     19  C   UNL     1      -0.190   8.629  21.614  0.00  0.00    +0.000 C 
ENDBRANCH  17  19
ENDBRANCH  16  17
BRANCH  16  20
ATOM     20  C   UNL     1       1.121  10.002  18.707  0.00  0.00    +0.000 C 
BRANCH  20  21
ATOM     21  C   UNL     1      -0.328  10.467  18.569  0.00  0.00    +0.000 A 
ATOM     22  C   UNL     1      -1.120   9.788  17.616  0.00  0.00    +0.000 A 
ATOM     23  C   UNL     1      -2.414  10.205  17.309  0.00  0.00    +0.000 A 
ATOM     24  C   UNL     1      -2.951  11.312  17.949  0.00  0.00    +0.000 A 
ATOM     25  C   UNL     1      -2.215  11.960  18.938  0.00  0.00    +0.000 A 
ATOM     26  C   UNL     1      -0.916  11.536  19.284  0.00  0.00    +0.000 A 
ATOM     27  C   UNL     1      -0.248  12.244  20.432  0.00  0.00    +0.000 C 
ENDBRANCH  20  21
BRANCH  20  28
ATOM     28  O   UNL     1       1.789   9.927  17.446  0.00  0.00    +0.000 OA
ATOM     29  H   UNL     1       1.777   9.006  17.145  0.00  0.00    +0.000 HD
ENDBRANCH  20  28
ENDBRANCH  16  20
ENDBRANCH   1  16
TORSDOF 7
ENDMDL
MODEL 8
REMARK VINA RESULT:      -7.9      1.821      4.522
REMARK  Name = 
REMARK  9 active torsions:
REMARK  status: ('A' for Active; 'I' for Inactive)
REMARK    1  A    between atoms: C_1  and  C_2
REMARK    2  A    between atoms: C_2  and  C_3
REMARK    3  A    between atoms: C_3  and  C_4
REMARK    4  A    between atoms: C_4  and  N_5
REMARK    5  A    between atoms: C_4  and  C_18
REMARK    6  A    between atoms: C_6  and  C_8
REMARK    7  A    between atoms: C_18  and  O_19
REMARK    8  A    between atoms: C_18  and  C_20
REMARK    9  A    between atoms: C_25  and  C_26
REMARK                            x       y       z     vdW  Elec       q    Type
REMARK                         _______ _______ _______ _____ _____    ______ ____
ROOT
ATOM      1  N   UNL     1       3.642   6.406  19.117  0.00  0.00    +0.000 N 
ATOM      2  C   UNL     1       2.783   7.339  18.573  0.00  0.00    +0.000 C 
ATOM      3  O   UNL     1       2.711   7.573  17.374  0.00  0.00    +0.000 OA
ATOM      4  H   UNL     1       3.475   6.084  20.062  0.00  0.00    +0.000 HD
ENDROOT
BRANCH   2   5
ATOM      5  C   UNL     1       1.907   8.054  19.536  0.00  0.00    +0.000 A 
ATOM      6  C   UNL     1       1.391   7.401  20.671  0.00  0.00    +0.000 A 
ATOM      7  C   UNL     1       0.568   8.083  21.586  0.00  0.00    +0.000 A 
ATOM      8  C   UNL     1       0.253   9.429  21.394  0.00  0.00    +0.000 A 
ATOM      9  C   UNL     1       0.785  10.053  20.285  0.00  0.00    +0.000 A 
ATOM     10  C   UNL     1       1.603   9.397  19.365  0.00  0.00    +0.000 A 
ATOM     11  C   UNL     1       1.999  10.366  18.288  0.00  0.00    +0.000 C 
ATOM     12  C   UNL     1       1.286  11.651  18.726  0.00  0.00    +0.000 C 
ATOM     13  O   UNL     1       1.299  12.730  18.156  0.00  0.00    +0.000 OA
ATOM     14  N   UNL     1       0.605  11.371  19.904  0.00  0.00    +0.000 N 
ATOM     15  H   UNL     1       0.056  12.062  20.394  0.00  0.00    +0.000 HD
ENDBRANCH   2   5
BRANCH   1  16
ATOM     16  C   UNL     1       4.555   5.617  18.283  0.00  0.00    +0.000 C 
BRANCH  16  17
ATOM     17  C   UNL     1       6.017   6.049  18.553  0.00  0.00    +0.000 C 
BRANCH  17  19
ATOM     18  C   UNL     1       7.636   7.740  17.550  0.00  0.00    +0.000 C 
ATOM     19  C   UNL     1       6.707   6.565  17.280  0.00  0.00    +0.000 C 
ENDBRANCH  17  19
ENDBRANCH  16  17
BRANCH  16  20
ATOM     20  C   UNL     1       4.305   4.067  18.396  0.00  0.00    +0.000 C 
BRANCH  20  21
ATOM     21  C   UNL     1       3.132   3.680  19.296  0.00  0.00    +0.000 A 
ATOM     22  C   UNL     1       3.450   3.307  20.622  0.00  0.00    +0.000 A 
ATOM     23  C   UNL     1       2.484   2.811  21.496  0.00  0.00    +0.000 A 
ATOM     24  C   UNL     1       1.172   2.677  21.066  0.00  0.00    +0.000 A 
ATOM     25  C   UNL     1       0.820   3.096  19.786  0.00  0.00    +0.000 A 
ATOM     26  C   UNL     1       1.776   3.627  18.897  0.00  0.00    +0.000 A 
ATOM     27  C   UNL     1       1.272   4.140  17.575  0.00  0.00    +0.000 C 
ENDBRANCH  20  21
BRANCH  20  28
ATOM     28  O   UNL     1       5.502   3.363  18.732  0.00  0.00    +0.000 OA
ATOM     29  H   UNL     1       5.426   3.043  19.644  0.00  0.00    +0.000 HD
ENDBRANCH  20  28
ENDBRANCH  16  20
ENDBRANCH   1  16
TORSDOF 7
ENDMDL
MODEL 9
REMARK VINA RESULT:      -7.9      1.128      1.344
REMARK  Name = 
REMARK  9 active torsions:
REMARK  status: ('A' for Active; 'I' for Inactive)
REMARK    1  A    between atoms: C_1  and  C_2
REMARK    2  A    between atoms: C_2  and  C_3
REMARK    3  A    between atoms: C_3  and  C_4
REMARK    4  A    between atoms: C_4  and  N_5
REMARK    5  A    between atoms: C_4  and  C_18
REMARK    6  A    between atoms: C_6  and  C_8
REMARK    7  A    between atoms: C_18  and  O_19
REMARK    8  A    between atoms: C_18  and  C_20
REMARK    9  A    between atoms: C_25  and  C_26
REMARK                            x       y       z     vdW  Elec       q    Type
REMARK                         _______ _______ _______ _____ _____    ______ ____
ROOT
ATOM      1  N   UNL     1       2.132   5.368  18.597  0.00  0.00    +0.000 N 
ATOM      2  C   UNL     1       2.504   6.329  19.513  0.00  0.00    +0.000 C 
ATOM      3  O   UNL     1       3.168   6.089  20.514  0.00  0.00    +0.000 OA
ATOM      4  H   UNL     1       1.813   5.664  17.683  0.00  0.00    +0.000 HD
ENDROOT
BRANCH   2   5
ATOM      5  C   UNL     1       2.069   7.717  19.212  0.00  0.00    +0.000 A 
ATOM      6  C   UNL     1       2.168   8.241  17.910  0.00  0.00    +0.000 A 
ATOM      7  C   UNL     1       1.747   9.554  17.624  0.00  0.00    +0.000 A 
ATOM      8  C   UNL     1       1.209  10.362  18.627  0.00  0.00    +0.000 A 
ATOM      9  C   UNL     1       1.105   9.821  19.891  0.00  0.00    +0.000 A 
ATOM     10  C   UNL     1       1.515   8.523  20.196  0.00  0.00    +0.000 A 
ATOM     11  C   UNL     1       1.262   8.262  21.654  0.00  0.00    +0.000 C 
ATOM     12  C   UNL     1       0.661   9.592  22.124  0.00  0.00    +0.000 C 
ATOM     13  O   UNL     1       0.296   9.875  23.254  0.00  0.00    +0.000 OA
ATOM     14  N   UNL     1       0.606  10.439  21.024  0.00  0.00    +0.000 N 
ATOM     15  H   UNL     1       0.244  11.379  21.078  0.00  0.00    +0.000 HD
ENDBRANCH   2   5
BRANCH   1  16
ATOM     16  C   UNL     1       2.503   3.958  18.761  0.00  0.00    +0.000 C 
BRANCH  16  17
ATOM     17  C   UNL     1       1.275   3.144  19.238  0.00  0.00    +0.000 C 
BRANCH  17  19
ATOM     18  C   UNL     1       2.262   2.728  21.548  0.00  0.00    +0.000 C 
ATOM     19  C   UNL     1       1.072   3.252  20.758  0.00  0.00    +0.000 C 
ENDBRANCH  17  19
ENDBRANCH  16  17
BRANCH  16  20
ATOM     20  C   UNL     1       3.226   3.363  17.496  0.00  0.00    +0.000 C 
BRANCH  20  21
ATOM     21  C   UNL     1       4.495   4.107  17.083  0.00  0.00    +0.000 A 
ATOM     22  C   UNL     1       4.574   4.520  15.734  0.00  0.00    +0.000 A 
ATOM     23  C   UNL     1       5.732   5.090  15.209  0.00  0.00    +0.000 A 
ATOM     24  C   UNL     1       6.842   5.265  16.022  0.00  0.00    +0.000 A 
ATOM     25  C   UNL     1       6.770   4.925  17.370  0.00  0.00    +0.000 A 
ATOM     26  C   UNL     1       5.598   4.374  17.927  0.00  0.00    +0.000 A 
ATOM     27  C   UNL     1       5.593   4.134  19.413  0.00  0.00    +0.000 C 
ENDBRANCH  20  21
BRANCH  20  28
ATOM     28  O   UNL     1       2.320   3.189  16.405  0.00  0.00    +0.000 OA
ATOM     29  H   UNL     1       1.480   3.618  16.629  0.00  0.00    +0.000 HD
ENDBRANCH  20  28
ENDBRANCH  16  20
ENDBRANCH   1  16
TORSDOF 7
ENDMDL
