MODEL 1
REMARK VINA RESULT:      -8.2      0.000      0.000
REMARK  Name = 
REMARK  6 active torsions:
REMARK  status: ('A' for Active; 'I' for Inactive)
REMARK    1  A    between atoms: N_2  and  C_4
REMARK    2  A    between atoms: C_4  and  C_5
REMARK    3  A    between atoms: C_5  and  C_6
REMARK    4  A    between atoms: C_5  and  C_13
REMARK    5  A    between atoms: C_6  and  C_7
REMARK    6  A    between atoms: C_14  and  C_15
REMARK                            x       y       z     vdW  Elec       q    Type
REMARK                         _______ _______ _______ _____ _____    ______ ____
ROOT
ATOM      1  C   UNL     1       4.958   4.683  17.814  0.00  0.00    +0.000 A 
ATOM      2  C   UNL     1       6.040   3.982  17.243  0.00  0.00    +0.000 A 
ATOM      3  N   UNL     1       6.983   4.204  18.244  0.00  0.00    +0.000 N 
ATOM      4  C   UNL     1       6.985   5.581  18.375  0.00  0.00    +0.000 A 
ATOM      5  C   UNL     1       8.069   6.416  18.639  0.00  0.00    +0.000 A 
ATOM      6  C   UNL     1       7.986   7.681  18.076  0.00  0.00    +0.000 A 
ATOM      7  C   UNL     1       6.808   8.093  17.445  0.00  0.00    +0.000 A 
ATOM      8  C   UNL     1       5.624   7.296  17.440  0.00  0.00    +0.000 A 
ATOM      9  C   UNL     1       5.701   5.958  17.911  0.00  0.00    +0.000 A 
ATOM     10  H   UNL     1       7.069   3.627  19.068  0.00  0.00    +0.000 HD
ENDROOT
BRANCH   2  11
ATOM     11  C   UNL     1       6.324   4.147  15.766  0.00  0.00    +0.000 A 
ATOM     12  C   UNL     1       5.463   3.533  14.809  0.00  0.00    +0.000 A 
ATOM     13  C   UNL     1       5.616   3.698  13.443  0.00  0.00    +0.000 A 
ATOM     14  C   UNL     1       6.670   4.466  12.992  0.00  0.00    +0.000 A 
ATOM     15  C   UNL     1       7.548   5.061  13.907  0.00  0.00    +0.000 A 
ATOM     16  C   UNL     1       7.378   4.899  15.290  0.00  0.00    +0.000 A 
ENDBRANCH   2  11
BRANCH   1  17
ATOM     17  C   UNL     1       3.625   3.950  17.536  0.00  0.00    +0.000 C 
BRANCH  17  18
ATOM     18  C   UNL     1       3.747   2.475  17.988  0.00  0.00    +0.000 C 
BRANCH  18  20
ATOM     19  O   UNL     1       4.899   2.386  20.031  0.00  0.00    +0.000 OA
ATOM     20  N   UNL     1       3.789   2.404  19.493  0.00  0.00    +0.000 N 
ATOM     21  O   UNL     1       2.704   2.334  20.092  0.00  0.00    +0.000 OA
ENDBRANCH  18  20
ENDBRANCH  17  18
BRANCH  17  22
ATOM     22  C   UNL     1       2.225   4.560  17.679  0.00  0.00    +0.000 C 
BRANCH  22  23
ATOM     23  C   UNL     1       2.065   5.785  18.527  0.00  0.00    +0.000 A 
ATOM     24  C   UNL     1       1.877   5.649  19.905  0.00  0.00    +0.000 A 
ATOM     25  C   UNL     1       1.781   6.779  20.709  0.00  0.00    +0.000 A 
ATOM     26  C   UNL     1       1.852   8.051  20.153  0.00  0.00    +0.000 A 
ATOM     27  C   UNL     1       2.034   8.209  18.780  0.00  0.00    +0.000 A 
ATOM     28  C   UNL     1       2.140   7.078  17.969  0.00  0.00    +0.000 A 
ENDBRANCH  22  23
ENDBRANCH  17  22
ENDBRANCH   1  17
TORSDOF 6
ENDMDL
MODEL 2
REMARK VINA RESULT:      -8.2      0.084      1.109
REMARK  Name = 
REMARK  6 active torsions:
REMARK  status: ('A' for Active; 'I' for Inactive)
REMARK    1  A    between atoms: N_2  and  C_4
REMARK    2  A    between atoms: C_4  and  C_5
REMARK    3  A    between atoms: C_5  and  C_6
REMARK    4  A    between atoms: C_5  and  C_13
REMARK    5  A    between atoms: C_6  and  C_7
REMARK    6  A    between atoms: C_14  and  C_15
REMARK                            x       y       z     vdW  Elec       q    Type
REMARK                         _______ _______ _______ _____ _____    ______ ____
ROOT
ATOM      1  C   UNL     1       4.987   4.735  17.776  0.00  0.00    +0.000 A 
ATOM      2  C   UNL     1       6.061   4.018  17.210  0.00  0.00    +0.000 A 
ATOM      3  N   UNL     1       7.001   4.222  18.217  0.00  0.00    +0.000 N 
ATOM      4  C   UNL     1       7.025   5.599  18.351  0.00  0.00    +0.000 A 
ATOM      5  C   UNL     1       8.121   6.415  18.624  0.00  0.00    +0.000 A 
ATOM      6  C   UNL     1       8.062   7.682  18.063  0.00  0.00    +0.000 A 
ATOM      7  C   UNL     1       6.895   8.115  17.425  0.00  0.00    +0.000 A 
ATOM      8  C   UNL     1       5.698   7.338  17.412  0.00  0.00    +0.000 A 
ATOM      9  C   UNL     1       5.750   5.997  17.881  0.00  0.00    +0.000 A 
ATOM     10  H   UNL     1       7.072   3.642  19.040  0.00  0.00    +0.000 HD
ENDROOT
BRANCH   2  11
ATOM     11  C   UNL     1       6.356   4.181  15.735  0.00  0.00    +0.000 A 
ATOM     12  C   UNL     1       5.513   3.552  14.772  0.00  0.00    +0.000 A 
ATOM     13  C   UNL     1       5.677   3.715  13.407  0.00  0.00    +0.000 A 
ATOM     14  C   UNL     1       6.724   4.495  12.963  0.00  0.00    +0.000 A 
ATOM     15  C   UNL     1       7.585   5.105  13.885  0.00  0.00    +0.000 A 
ATOM     16  C   UNL     1       7.404   4.947  15.266  0.00  0.00    +0.000 A 
ENDBRANCH   2  11
BRANCH   1  17
ATOM     17  C   UNL     1       3.644   4.025  17.488  0.00  0.00    +0.000 C 
BRANCH  17  18
ATOM     18  C   UNL     1       3.758   2.534  17.885  0.00  0.00    +0.000 C 
BRANCH  18  20
ATOM     19  O   UNL     1       2.652   2.268  19.938  0.00  0.00    +0.000 OA
ATOM     20  N   UNL     1       3.748   2.402  19.386  0.00  0.00    +0.000 N 
ATOM     21  O   UNL     1       4.840   2.469  19.972  0.00  0.00    +0.000 OA
ENDBRANCH  18  20
ENDBRANCH  17  18
BRANCH  17  22
ATOM     22  C   UNL     1       2.252   4.642  17.671  0.00  0.00    +0.000 C 
BRANCH  22  23
ATOM     23  C   UNL     1       2.114   5.838  18.562  0.00  0.00    +0.000 A 
ATOM     24  C   UNL     1       2.170   7.119  18.009  0.00  0.00    +0.000 A 
ATOM     25  C   UNL     1       1.989   8.236  18.817  0.00  0.00    +0.000 A 
ATOM     26  C   UNL     1       1.771   8.093  20.182  0.00  0.00    +0.000 A 
ATOM     27  C   UNL     1       1.716   6.824  20.756  0.00  0.00    +0.000 A 
ATOM     28  C   UNL     1       1.887   5.699  19.948  0.00  0.00    +0.000 A 
ENDBRANCH  22  23
ENDBRANCH  17  22
ENDBRANCH   1  17
TORSDOF 6
ENDMDL
MODEL 3
REMARK VINA RESULT:      -8.2      0.109      1.317
REMARK  Name = 
REMARK  6 active torsions:
REMARK  status: ('A' for Active; 'I' for Inactive)
REMARK    1  A    between atoms: N_2  and  C_4
REMARK    2  A    between atoms: C_4  and  C_5
REMARK    3  A    between atoms: C_5  and  C_6
REMARK    4  A    between atoms: C_5  and  C_13
REMARK    5  A    between atoms: C_6  and  C_7
REMARK    6  A    between atoms: C_14  and  C_15
REMARK                            x       y       z     vdW  Elec       q    Type
REMARK                         _______ _______ _______ _____ _____    ______ ____
ROOT
ATOM      1  C   UNL     1       4.909   4.690  17.761  0.00  0.00    +0.000 A 
ATOM      2  C   UNL     1       5.959   3.978  17.147  0.00  0.00    +0.000 A 
ATOM      3  N   UNL     1       6.935   4.162  18.124  0.00  0.00    +0.000 N 
ATOM      4  C   UNL     1       6.969   5.536  18.278  0.00  0.00    +0.000 A 
ATOM      5  C   UNL     1       8.078   6.343  18.526  0.00  0.00    +0.000 A 
ATOM      6  C   UNL     1       8.006   7.620  17.987  0.00  0.00    +0.000 A 
ATOM      7  C   UNL     1       6.819   8.067  17.398  0.00  0.00    +0.000 A 
ATOM      8  C   UNL     1       5.620   7.295  17.414  0.00  0.00    +0.000 A 
ATOM      9  C   UNL     1       5.681   5.947  17.859  0.00  0.00    +0.000 A 
ATOM     10  H   UNL     1       7.032   3.568  18.935  0.00  0.00    +0.000 HD
ENDROOT
BRANCH   2  11
ATOM     11  C   UNL     1       6.204   4.163  15.665  0.00  0.00    +0.000 A 
ATOM     12  C   UNL     1       7.329   4.920  15.225  0.00  0.00    +0.000 A 
ATOM     13  C   UNL     1       7.659   5.072  13.889  0.00  0.00    +0.000 A 
ATOM     14  C   UNL     1       6.840   4.489  12.944  0.00  0.00    +0.000 A 
ATOM     15  C   UNL     1       5.713   3.760  13.345  0.00  0.00    +0.000 A 
ATOM     16  C   UNL     1       5.394   3.599  14.701  0.00  0.00    +0.000 A 
ENDBRANCH   2  11
BRANCH   1  17
ATOM     17  C   UNL     1       3.553   3.990  17.509  0.00  0.00    +0.000 C 
BRANCH  17  18
ATOM     18  C   UNL     1       3.659   2.504  17.924  0.00  0.00    +0.000 C 
BRANCH  18  20
ATOM     19  O   UNL     1       4.838   2.397  19.951  0.00  0.00    +0.000 OA
ATOM     20  N   UNL     1       3.721   2.395  19.426  0.00  0.00    +0.000 N 
ATOM     21  O   UNL     1       2.645   2.277  20.034  0.00  0.00    +0.000 OA
ENDBRANCH  18  20
ENDBRANCH  17  18
BRANCH  17  22
ATOM     22  C   UNL     1       2.171   4.624  17.711  0.00  0.00    +0.000 C 
BRANCH  22  23
ATOM     23  C   UNL     1       2.061   5.826  18.598  0.00  0.00    +0.000 A 
ATOM     24  C   UNL     1       2.119   7.104  18.038  0.00  0.00    +0.000 A 
ATOM     25  C   UNL     1       1.964   8.226  18.844  0.00  0.00    +0.000 A 
ATOM     26  C   UNL     1       1.769   8.091  20.213  0.00  0.00    +0.000 A 
ATOM     27  C   UNL     1       1.712   6.825  20.794  0.00  0.00    +0.000 A 
ATOM     28  C   UNL     1       1.858   5.695  19.988  0.00  0.00    +0.000 A 
ENDBRANCH  22  23
ENDBRANCH  17  22
ENDBRANCH   1  17
TORSDOF 6
ENDMDL
MODEL 4
REMARK VINA RESULT:      -8.1      2.074      6.406
REMARK  Name = 
REMARK  6 active torsions:
REMARK  status: ('A' for Active; 'I' for Inactive)
REMARK    1  A    between atoms: N_2  and  C_4
REMARK    2  A    between atoms: C_4  and  C_5
REMARK    3  A    between atoms: C_5  and  C_6
REMARK    4  A    between atoms: C_5  and  C_13
REMARK    5  A    between atoms: C_6  and  C_7
REMARK    6  A    between atoms: C_14  and  C_15
REMARK                            x       y       z     vdW  Elec       q    Type
REMARK                         _______ _______ _______ _____ _____    ______ ____
ROOT
ATOM      1  C   UNL     1       4.545   4.708  17.941  0.00  0.00    +0.000 A 
ATOM      2  C   UNL     1       4.298   5.541  19.052  0.00  0.00    +0.000 A 
ATOM      3  N   UNL     1       4.204   4.557  20.033  0.00  0.00    +0.000 N 
ATOM      4  C   UNL     1       3.244   3.699  19.527  0.00  0.00    +0.000 A 
ATOM      5  C   UNL     1       2.266   2.997  20.230  0.00  0.00    +0.000 A 
ATOM      6  C   UNL     1       1.083   2.785  19.537  0.00  0.00    +0.000 A 
ATOM      7  C   UNL     1       0.994   3.121  18.182  0.00  0.00    +0.000 A 
ATOM      8  C   UNL     1       2.117   3.587  17.434  0.00  0.00    +0.000 A 
ATOM      9  C   UNL     1       3.311   3.916  18.130  0.00  0.00    +0.000 A 
ATOM     10  H   UNL     1       5.003   4.175  20.520  0.00  0.00    +0.000 HD
ENDROOT
BRANCH   2  11
ATOM     11  C   UNL     1       3.318   6.685  18.909  0.00  0.00    +0.000 A 
ATOM     12  C   UNL     1       2.424   6.986  19.979  0.00  0.00    +0.000 A 
ATOM     13  C   UNL     1       1.551   8.060  19.950  0.00  0.00    +0.000 A 
ATOM     14  C   UNL     1       1.525   8.851  18.821  0.00  0.00    +0.000 A 
ATOM     15  C   UNL     1       2.373   8.565  17.743  0.00  0.00    +0.000 A 
ATOM     16  C   UNL     1       3.265   7.483  17.786  0.00  0.00    +0.000 A 
ENDBRANCH   2  11
BRANCH   1  17
ATOM     17  C   UNL     1       5.551   5.373  16.973  0.00  0.00    +0.000 C 
BRANCH  17  18
ATOM     18  C   UNL     1       6.952   4.752  17.184  0.00  0.00    +0.000 C 
BRANCH  18  20
ATOM     19  O   UNL     1       8.141   4.884  19.203  0.00  0.00    +0.000 OA
ATOM     20  N   UNL     1       7.699   5.521  18.243  0.00  0.00    +0.000 N 
ATOM     21  O   UNL     1       7.794   6.750  18.096  0.00  0.00    +0.000 OA
ENDBRANCH  18  20
ENDBRANCH  17  18
BRANCH  17  22
ATOM     22  C   UNL     1       5.247   5.817  15.537  0.00  0.00    +0.000 C 
BRANCH  22  23
ATOM     23  C   UNL     1       5.900   5.078  14.409  0.00  0.00    +0.000 A 
ATOM     24  C   UNL     1       5.229   4.015  13.802  0.00  0.00    +0.000 A 
ATOM     25  C   UNL     1       5.802   3.357  12.720  0.00  0.00    +0.000 A 
ATOM     26  C   UNL     1       7.051   3.734  12.243  0.00  0.00    +0.000 A 
ATOM     27  C   UNL     1       7.741   4.790  12.837  0.00  0.00    +0.000 A 
ATOM     28  C   UNL     1       7.166   5.460  13.918  0.00  0.00    +0.000 A 
ENDBRANCH  22  23
ENDBRANCH  17  22
ENDBRANCH   1  17
TORSDOF 6
ENDMDL
MODEL 5
REMARK VINA RESULT:      -8.0      2.123      6.427
REMARK  Name = 
REMARK  6 active torsions:
REMARK  status: ('A' for Active; 'I' for Inactive)
REMARK    1  A    between atoms: N_2  and  C_4
REMARK    2  A    between atoms: C_4  and  C_5
REMARK    3  A    between atoms: C_5  and  C_6
REMARK    4  A    between atoms: C_5  and  C_13
REMARK    5  A    between atoms: C_6  and  C_7
REMARK    6  A    between atoms: C_14  and  C_15
REMARK                            x       y       z     vdW  Elec       q    Type
REMARK                         _______ _______ _______ _____ _____    ______ ____
ROOT
ATOM      1  C   UNL     1       4.616   4.359  17.676  0.00  0.00    +0.000 A 
ATOM      2  C   UNL     1       4.535   5.132  18.853  0.00  0.00    +0.000 A 
ATOM      3  N   UNL     1       4.520   4.093  19.782  0.00  0.00    +0.000 N 
ATOM      4  C   UNL     1       3.473   3.300  19.349  0.00  0.00    +0.000 A 
ATOM      5  C   UNL     1       2.559   2.588  20.124  0.00  0.00    +0.000 A 
ATOM      6  C   UNL     1       1.295   2.458  19.568  0.00  0.00    +0.000 A 
ATOM      7  C   UNL     1       1.059   2.877  18.255  0.00  0.00    +0.000 A 
ATOM      8  C   UNL     1       2.102   3.350  17.404  0.00  0.00    +0.000 A 
ATOM      9  C   UNL     1       3.383   3.598  17.968  0.00  0.00    +0.000 A 
ATOM     10  H   UNL     1       5.355   3.658  20.147  0.00  0.00    +0.000 HD
ENDROOT
BRANCH   2  11
ATOM     11  C   UNL     1       3.591   6.313  18.894  0.00  0.00    +0.000 A 
ATOM     12  C   UNL     1       3.559   7.229  17.802  0.00  0.00    +0.000 A 
ATOM     13  C   UNL     1       2.673   8.290  17.735  0.00  0.00    +0.000 A 
ATOM     14  C   UNL     1       1.805   8.484  18.789  0.00  0.00    +0.000 A 
ATOM     15  C   UNL     1       1.830   7.616  19.888  0.00  0.00    +0.000 A 
ATOM     16  C   UNL     1       2.722   6.535  19.942  0.00  0.00    +0.000 A 
ENDBRANCH   2  11
BRANCH   1  17
ATOM     17  C   UNL     1       5.526   5.049  16.633  0.00  0.00    +0.000 C 
BRANCH  17  18
ATOM     18  C   UNL     1       6.968   4.507  16.774  0.00  0.00    +0.000 C 
BRANCH  18  20
ATOM     19  O   UNL     1       7.883   6.477  17.664  0.00  0.00    +0.000 OA
ATOM     20  N   UNL     1       7.698   5.271  17.849  0.00  0.00    +0.000 N 
ATOM     21  O   UNL     1       8.095   4.630  18.835  0.00  0.00    +0.000 OA
ENDBRANCH  18  20
ENDBRANCH  17  18
BRANCH  17  22
ATOM     22  C   UNL     1       5.114   5.435  15.207  0.00  0.00    +0.000 C 
BRANCH  22  23
ATOM     23  C   UNL     1       5.816   4.776  14.059  0.00  0.00    +0.000 A 
ATOM     24  C   UNL     1       5.187   3.736  13.371  0.00  0.00    +0.000 A 
ATOM     25  C   UNL     1       5.805   3.154  12.271  0.00  0.00    +0.000 A 
ATOM     26  C   UNL     1       7.059   3.584  11.855  0.00  0.00    +0.000 A 
ATOM     27  C   UNL     1       7.708   4.617  12.530  0.00  0.00    +0.000 A 
ATOM     28  C   UNL     1       7.087   5.211  13.629  0.00  0.00    +0.000 A 
ENDBRANCH  22  23
ENDBRANCH  17  22
ENDBRANCH   1  17
TORSDOF 6
ENDMDL
MODEL 6
REMARK VINA RESULT:      -8.0      2.005      6.379
REMARK  Name = 
REMARK  6 active torsions:
REMARK  status: ('A' for Active; 'I' for Inactive)
REMARK    1  A    between atoms: N_2  and  C_4
REMARK    2  A    between atoms: C_4  and  C_5
REMARK    3  A    between atoms: C_5  and  C_6
REMARK    4  A    between atoms: C_5  and  C_13
REMARK    5  A    between atoms: C_6  and  C_7
REMARK    6  A    between atoms: C_14  and  C_15
REMARK                            x       y       z     vdW  Elec       q    Type
REMARK                         _______ _______ _______ _____ _____    ______ ____
ROOT
ATOM      1  C   UNL     1       4.294   5.026  18.672  0.00  0.00    +0.000 A 
ATOM      2  C   UNL     1       3.759   5.855  19.680  0.00  0.00    +0.000 A 
ATOM      3  N   UNL     1       3.432   4.868  20.608  0.00  0.00    +0.000 N 
ATOM      4  C   UNL     1       2.645   3.997  19.876  0.00  0.00    +0.000 A 
ATOM      5  C   UNL     1       1.531   3.280  20.307  0.00  0.00    +0.000 A 
ATOM      6  C   UNL     1       0.568   3.052  19.335  0.00  0.00    +0.000 A 
ATOM      7  C   UNL     1       0.823   3.387  18.001  0.00  0.00    +0.000 A 
ATOM      8  C   UNL     1       2.093   3.870  17.564  0.00  0.00    +0.000 A 
ATOM      9  C   UNL     1       3.065   4.216  18.541  0.00  0.00    +0.000 A 
ATOM     10  H   UNL     1       4.085   4.499  21.284  0.00  0.00    +0.000 HD
ENDROOT
BRANCH   2  11
ATOM     11  C   UNL     1       2.832   6.984  19.287  0.00  0.00    +0.000 A 
ATOM     12  C   UNL     1       1.994   7.584  20.272  0.00  0.00    +0.000 A 
ATOM     13  C   UNL     1       1.174   8.667  20.005  0.00  0.00    +0.000 A 
ATOM     14  C   UNL     1       1.146   9.163  18.719  0.00  0.00    +0.000 A 
ATOM     15  C   UNL     1       1.940   8.579  17.723  0.00  0.00    +0.000 A 
ATOM     16  C   UNL     1       2.778   7.490  18.005  0.00  0.00    +0.000 A 
ENDBRANCH   2  11
BRANCH   1  17
ATOM     17  C   UNL     1       5.505   5.707  17.992  0.00  0.00    +0.000 C 
BRANCH  17  18
ATOM     18  C   UNL     1       6.795   4.930  18.346  0.00  0.00    +0.000 C 
BRANCH  18  20
ATOM     19  O   UNL     1       8.159   6.790  18.781  0.00  0.00    +0.000 OA
ATOM     20  N   UNL     1       7.662   5.764  19.254  0.00  0.00    +0.000 N 
ATOM     21  O   UNL     1       7.845   5.348  20.409  0.00  0.00    +0.000 OA
ENDBRANCH  18  20
ENDBRANCH  17  18
BRANCH  17  22
ATOM     22  C   UNL     1       5.499   6.355  16.602  0.00  0.00    +0.000 C 
BRANCH  22  23
ATOM     23  C   UNL     1       5.811   5.497  15.414  0.00  0.00    +0.000 A 
ATOM     24  C   UNL     1       7.032   5.652  14.754  0.00  0.00    +0.000 A 
ATOM     25  C   UNL     1       7.356   4.825  13.685  0.00  0.00    +0.000 A 
ATOM     26  C   UNL     1       6.465   3.852  13.248  0.00  0.00    +0.000 A 
ATOM     27  C   UNL     1       5.239   3.683  13.889  0.00  0.00    +0.000 A 
ATOM     28  C   UNL     1       4.913   4.504  14.969  0.00  0.00    +0.000 A 
ENDBRANCH  22  23
ENDBRANCH  17  22
ENDBRANCH   1  17
TORSDOF 6
ENDMDL
MODEL 7
REMARK VINA RESULT:      -8.0      1.975      6.372
REMARK  Name = 
REMARK  6 active torsions:
REMARK  status: ('A' for Active; 'I' for Inactive)
REMARK    1  A    between atoms: N_2  and  C_4
REMARK    2  A    between atoms: C_4  and  C_5
REMARK    3  A    between atoms: C_5  and  C_6
REMARK    4  A    between atoms: C_5  and  C_13
REMARK    5  A    between atoms: C_6  and  C_7
REMARK    6  A    between atoms: C_14  and  C_15
REMARK                            x       y       z     vdW  Elec       q    Type
REMARK                         _______ _______ _______ _____ _____    ______ ____
ROOT
ATOM      1  C   UNL     1       4.358   5.010  18.387  0.00  0.00    +0.000 A 
ATOM      2  C   UNL     1       3.971   5.808  19.483  0.00  0.00    +0.000 A 
ATOM      3  N   UNL     1       3.754   4.794  20.413  0.00  0.00    +0.000 N 
ATOM      4  C   UNL     1       2.866   3.956  19.762  0.00  0.00    +0.000 A 
ATOM      5  C   UNL     1       1.808   3.234  20.312  0.00  0.00    +0.000 A 
ATOM      6  C   UNL     1       0.724   3.048  19.468  0.00  0.00    +0.000 A 
ATOM      7  C   UNL     1       0.807   3.427  18.124  0.00  0.00    +0.000 A 
ATOM      8  C   UNL     1       2.015   3.913  17.540  0.00  0.00    +0.000 A 
ATOM      9  C   UNL     1       3.111   4.216  18.392  0.00  0.00    +0.000 A 
ATOM     10  H   UNL     1       4.485   4.395  20.984  0.00  0.00    +0.000 HD
ENDROOT
BRANCH   2  11
ATOM     11  C   UNL     1       3.015   6.959  19.252  0.00  0.00    +0.000 A 
ATOM     12  C   UNL     1       2.982   7.605  17.982  0.00  0.00    +0.000 A 
ATOM     13  C   UNL     1       2.086   8.614  17.674  0.00  0.00    +0.000 A 
ATOM     14  C   UNL     1       1.211   9.032  18.654  0.00  0.00    +0.000 A 
ATOM     15  C   UNL     1       1.237   8.434  19.921  0.00  0.00    +0.000 A 
ATOM     16  C   UNL     1       2.138   7.402  20.220  0.00  0.00    +0.000 A 
ENDBRANCH   2  11
BRANCH   1  17
ATOM     17  C   UNL     1       5.478   5.702  17.576  0.00  0.00    +0.000 C 
BRANCH  17  18
ATOM     18  C   UNL     1       6.836   5.038  17.908  0.00  0.00    +0.000 C 
BRANCH  18  20
ATOM     19  O   UNL     1       8.110   6.882  18.604  0.00  0.00    +0.000 OA
ATOM     20  N   UNL     1       7.553   5.840  18.963  0.00  0.00    +0.000 N 
ATOM     21  O   UNL     1       7.566   5.384  20.117  0.00  0.00    +0.000 OA
ENDBRANCH  18  20
ENDBRANCH  17  18
BRANCH  17  22
ATOM     22  C   UNL     1       5.346   6.228  16.141  0.00  0.00    +0.000 C 
BRANCH  22  23
ATOM     23  C   UNL     1       5.837   5.366  15.018  0.00  0.00    +0.000 A 
ATOM     24  C   UNL     1       5.001   4.379  14.491  0.00  0.00    +0.000 A 
ATOM     25  C   UNL     1       5.425   3.610  13.414  0.00  0.00    +0.000 A 
ATOM     26  C   UNL     1       6.686   3.799  12.862  0.00  0.00    +0.000 A 
ATOM     27  C   UNL     1       7.539   4.776  13.376  0.00  0.00    +0.000 A 
ATOM     28  C   UNL     1       7.115   5.557  14.452  0.00  0.00    +0.000 A 
ENDBRANCH  22  23
ENDBRANCH  17  22
ENDBRANCH   1  17
TORSDOF 6
ENDMDL
MODEL 8
REMARK VINA RESULT:      -8.0      2.742      4.514
REMARK  Name = 
REMARK  6 active torsions:
REMARK  status: ('A' for Active; 'I' for Inactive)
REMARK    1  A    between atoms: N_2  and  C_4
REMARK    2  A    between atoms: C_4  and  C_5
REMARK    3  A    between atoms: C_5  and  C_6
REMARK    4  A    between atoms: C_5  and  C_13
REMARK    5  A    between atoms: C_6  and  C_7
REMARK    6  A    between atoms: C_14  and  C_15
REMARK                            x       y       z     vdW  Elec       q    Type
REMARK                         _______ _______ _______ _____ _____    ______ ____
ROOT
ATOM      1  C   UNL     1       4.379   6.216  17.454  0.00  0.00    +0.000 A 
ATOM      2  C   UNL     1       5.078   5.358  18.329  0.00  0.00    +0.000 A 
ATOM      3  N   UNL     1       6.373   5.791  18.054  0.00  0.00    +0.000 N 
ATOM      4  C   UNL     1       6.459   5.669  16.678  0.00  0.00    +0.000 A 
ATOM      5  C   UNL     1       7.563   5.285  15.919  0.00  0.00    +0.000 A 
ATOM      6  C   UNL     1       7.262   4.606  14.747  0.00  0.00    +0.000 A 
ATOM      7  C   UNL     1       5.934   4.495  14.323  0.00  0.00    +0.000 A 
ATOM      8  C   UNL     1       4.858   5.146  14.997  0.00  0.00    +0.000 A 
ATOM      9  C   UNL     1       5.111   5.758  16.254  0.00  0.00    +0.000 A 
ATOM     10  H   UNL     1       6.807   6.580  18.510  0.00  0.00    +0.000 HD
ENDROOT
BRANCH   2  11
ATOM     11  C   UNL     1       4.674   3.902  18.408  0.00  0.00    +0.000 A 
ATOM     12  C   UNL     1       4.896   3.172  19.612  0.00  0.00    +0.000 A 
ATOM     13  C   UNL     1       4.489   1.860  19.784  0.00  0.00    +0.000 A 
ATOM     14  C   UNL     1       3.870   1.225  18.728  0.00  0.00    +0.000 A 
ATOM     15  C   UNL     1       3.660   1.908  17.522  0.00  0.00    +0.000 A 
ATOM     16  C   UNL     1       4.064   3.242  17.362  0.00  0.00    +0.000 A 
ENDBRANCH   2  11
BRANCH   1  17
ATOM     17  C   UNL     1       3.049   6.679  18.091  0.00  0.00    +0.000 C 
BRANCH  17  18
ATOM     18  C   UNL     1       2.858   8.193  17.835  0.00  0.00    +0.000 C 
BRANCH  18  20
ATOM     19  O   UNL     1       0.859   9.390  18.115  0.00  0.00    +0.000 OA
ATOM     20  N   UNL     1       1.725   8.716  18.680  0.00  0.00    +0.000 N 
ATOM     21  O   UNL     1       1.754   8.462  19.895  0.00  0.00    +0.000 OA
ENDBRANCH  18  20
ENDBRANCH  17  18
BRANCH  17  22
ATOM     22  C   UNL     1       1.752   5.861  18.144  0.00  0.00    +0.000 C 
BRANCH  22  23
ATOM     23  C   UNL     1       1.586   4.858  19.244  0.00  0.00    +0.000 A 
ATOM     24  C   UNL     1       0.930   3.653  18.985  0.00  0.00    +0.000 A 
ATOM     25  C   UNL     1       0.818   2.692  19.983  0.00  0.00    +0.000 A 
ATOM     26  C   UNL     1       1.337   2.925  21.251  0.00  0.00    +0.000 A 
ATOM     27  C   UNL     1       1.991   4.124  21.533  0.00  0.00    +0.000 A 
ATOM     28  C   UNL     1       2.115   5.088  20.532  0.00  0.00    +0.000 A 
ENDBRANCH  22  23
ENDBRANCH  17  22
ENDBRANCH   1  17
TORSDOF 6
ENDMDL
MODEL 9
REMARK VINA RESULT:      -7.8      2.174      6.392
REMARK  Name = 
REMARK  6 active torsions:
REMARK  status: ('A' for Active; 'I' for Inactive)
REMARK    1  A    between atoms: N_2  and  C_4
REMARK    2  A    between atoms: C_4  and  C_5
REMARK    3  A    between atoms: C_5  and  C_6
REMARK    4  A    between atoms: C_5  and  C_13
REMARK    5  A    between atoms: C_6  and  C_7
REMARK    6  A    between atoms: C_14  and  C_15
REMARK                            x       y       z     vdW  Elec       q    Type
REMARK                         _______ _______ _______ _____ _____    ______ ____
ROOT
ATOM      1  C   UNL     1       4.456   4.110  17.842  0.00  0.00    +0.000 A 
ATOM      2  C   UNL     1       4.512   5.109  18.835  0.00  0.00    +0.000 A 
ATOM      3  N   UNL     1       4.594   4.285  19.955  0.00  0.00    +0.000 N 
ATOM      4  C   UNL     1       3.500   3.450  19.811  0.00  0.00    +0.000 A 
ATOM      5  C   UNL     1       2.673   2.941  20.811  0.00  0.00    +0.000 A 
ATOM      6  C   UNL     1       1.354   2.736  20.433  0.00  0.00    +0.000 A 
ATOM      7  C   UNL     1       0.975   2.884  19.095  0.00  0.00    +0.000 A 
ATOM      8  C   UNL     1       1.921   3.141  18.057  0.00  0.00    +0.000 A 
ATOM      9  C   UNL     1       3.258   3.461  18.416  0.00  0.00    +0.000 A 
ATOM     10  H   UNL     1       5.461   3.909  20.310  0.00  0.00    +0.000 HD
ENDROOT
BRANCH   2  11
ATOM     11  C   UNL     1       3.586   6.301  18.731  0.00  0.00    +0.000 A 
ATOM     12  C   UNL     1       2.669   6.576  19.788  0.00  0.00    +0.000 A 
ATOM     13  C   UNL     1       1.842   7.687  19.797  0.00  0.00    +0.000 A 
ATOM     14  C   UNL     1       1.890   8.545  18.718  0.00  0.00    +0.000 A 
ATOM     15  C   UNL     1       2.763   8.288  17.653  0.00  0.00    +0.000 A 
ATOM     16  C   UNL     1       3.606   7.168  17.658  0.00  0.00    +0.000 A 
ENDBRANCH   2  11
BRANCH   1  17
ATOM     17  C   UNL     1       5.248   4.543  16.586  0.00  0.00    +0.000 C 
BRANCH  17  18
ATOM     18  C   UNL     1       6.714   4.065  16.716  0.00  0.00    +0.000 C 
BRANCH  18  20
ATOM     19  O   UNL     1       7.629   6.168  17.216  0.00  0.00    +0.000 OA
ATOM     20  N   UNL     1       7.482   5.007  17.608  0.00  0.00    +0.000 N 
ATOM     21  O   UNL     1       7.945   4.544  18.662  0.00  0.00    +0.000 OA
ENDBRANCH  18  20
ENDBRANCH  17  18
BRANCH  17  22
ATOM     22  C   UNL     1       4.701   4.577  15.154  0.00  0.00    +0.000 C 
BRANCH  22  23
ATOM     23  C   UNL     1       5.666   4.425  14.018  0.00  0.00    +0.000 A 
ATOM     24  C   UNL     1       6.843   5.176  14.010  0.00  0.00    +0.000 A 
ATOM     25  C   UNL     1       7.772   5.004  12.989  0.00  0.00    +0.000 A 
ATOM     26  C   UNL     1       7.533   4.102  11.960  0.00  0.00    +0.000 A 
ATOM     27  C   UNL     1       6.361   3.346  11.946  0.00  0.00    +0.000 A 
ATOM     28  C   UNL     1       5.430   3.507  12.973  0.00  0.00    +0.000 A 
ENDBRANCH  22  23
ENDBRANCH  17  22
ENDBRANCH   1  17
TORSDOF 6
ENDMDL
