MODEL 1
REMARK VINA RESULT:      -7.8      0.000      0.000
REMARK  Name = 
REMARK  6 active torsions:
REMARK  status: ('A' for Active; 'I' for Inactive)
REMARK    1  A    between atoms: C_1  and  C_2
REMARK    2  A    between atoms: C_5  and  C_6
REMARK    3  A    between atoms: C_7  and  N_8
REMARK    4  A    between atoms: C_12  and  S_13
REMARK    5  A    between atoms: N_14  and  C_15
REMARK    6  A    between atoms: C_28  and  C_29
REMARK                            x       y       z     vdW  Elec       q    Type
REMARK                         _______ _______ _______ _____ _____    ______ ____
ROOT
ATOM      1  N   UNL     1       2.770   6.887  18.519  0.00  0.00    +0.000 N 
ATOM      2  C   UNL     1       2.101   6.732  19.823  0.00  0.00    +0.000 C 
ATOM      3  C   UNL     1       2.078   8.108  20.509  0.00  0.00    +0.000 C 
ATOM      4  N   UNL     1       1.321   9.072  19.684  0.00  0.00    +0.000 N 
ATOM      5  C   UNL     1       0.155   9.728  20.045  0.00  0.00    +0.000 C 
ATOM      6  N   UNL     1      -0.345  10.694  19.315  0.00  0.00    +0.000 NA
ATOM      7  C   UNL     1       1.897   9.212  18.326  0.00  0.00    +0.000 C 
ATOM      8  C   UNL     1       2.028   7.825  17.634  0.00  0.00    +0.000 C 
ENDROOT
BRANCH   6   9
ATOM      9  C   UNL     1      -1.454  11.478  19.691  0.00  0.00    +0.000 A 
ATOM     10  C   UNL     1      -2.622  11.494  18.935  0.00  0.00    +0.000 A 
ATOM     11  C   UNL     1      -3.714  12.302  19.316  0.00  0.00    +0.000 A 
ATOM     12  C   UNL     1      -3.704  13.077  20.477  0.00  0.00    +0.000 A 
ATOM     13  N   UNL     1      -4.782  13.797  20.853  0.00  0.00    +0.000 NA
ATOM     14  C   UNL     1      -4.743  14.525  22.000  0.00  0.00    +0.000 A 
ATOM     15  N   UNL     1      -5.824  15.307  22.344  0.00  0.00    +0.000 N 
ATOM     16  C   UNL     1      -7.174  14.985  21.881  0.00  0.00    +0.000 C 
ATOM     17  C   UNL     1      -7.832  16.238  21.281  0.00  0.00    +0.000 C 
ATOM     18  O   UNL     1      -7.798  17.350  22.197  0.00  0.00    +0.000 OA
ATOM     19  C   UNL     1      -6.439  17.677  22.523  0.00  0.00    +0.000 C 
ATOM     20  C   UNL     1      -5.719  16.498  23.192  0.00  0.00    +0.000 C 
ATOM     21  C   UNL     1      -3.624  14.482  22.817  0.00  0.00    +0.000 A 
ATOM     22  C   UNL     1      -2.495  13.760  22.451  0.00  0.00    +0.000 A 
ATOM     23  C   UNL     1      -1.337  13.682  23.408  0.00  0.00    +0.000 C 
ATOM     24  C   UNL     1      -2.514  13.069  21.233  0.00  0.00    +0.000 A 
ATOM     25  C   UNL     1      -1.396  12.350  20.778  0.00  0.00    +0.000 A 
ENDBRANCH   6   9
BRANCH   1  32
ATOM     26  C   UNL     1       2.609   2.001  17.625  0.00  0.00    +0.000 C 
ATOM     27  C   UNL     1       3.293   3.329  17.471  0.00  0.00    +0.000 A 
ATOM     28  C   UNL     1       4.502   3.435  16.794  0.00  0.00    +0.000 A 
ATOM     29  C   UNL     1       5.134   4.670  16.687  0.00  0.00    +0.000 A 
ATOM     30  C   UNL     1       4.575   5.826  17.262  0.00  0.00    +0.000 A 
ATOM     31  C   UNL     1       5.377   7.100  17.200  0.00  0.00    +0.000 C 
ATOM     32  C   UNL     1       3.325   5.752  17.923  0.00  0.00    +0.000 A 
ATOM     33  C   UNL     1       2.716   4.485  18.023  0.00  0.00    +0.000 A 
ENDBRANCH   1  32
BRANCH   5  34
ATOM     34  S   UNL     1      -0.598   9.168  21.554  0.00  0.00    +0.000 S 
ATOM     35  H   UNL     1      -1.560   8.467  20.935  0.00  0.00    +0.000 HD
ENDBRANCH   5  34
TORSDOF 3
ENDMDL
MODEL 2
REMARK VINA RESULT:      -7.4      0.445      1.512
REMARK  Name = 
REMARK  6 active torsions:
REMARK  status: ('A' for Active; 'I' for Inactive)
REMARK    1  A    between atoms: C_1  and  C_2
REMARK    2  A    between atoms: C_5  and  C_6
REMARK    3  A    between atoms: C_7  and  N_8
REMARK    4  A    between atoms: C_12  and  S_13
REMARK    5  A    between atoms: N_14  and  C_15
REMARK    6  A    between atoms: C_28  and  C_29
REMARK                            x       y       z     vdW  Elec       q    Type
REMARK                         _______ _______ _______ _____ _____    ______ ____
ROOT
ATOM      1  N   UNL     1       2.953   6.905  18.459  0.00  0.00    +0.000 N 
ATOM      2  C   UNL     1       2.229   6.682  19.723  0.00  0.00    +0.000 C 
ATOM      3  C   UNL     1       2.157   8.023  20.470  0.00  0.00    +0.000 C 
ATOM      4  N   UNL     1       1.424   9.016  19.658  0.00  0.00    +0.000 N 
ATOM      5  C   UNL     1       0.233   9.641  19.996  0.00  0.00    +0.000 C 
ATOM      6  N   UNL     1      -0.247  10.633  19.290  0.00  0.00    +0.000 NA
ATOM      7  C   UNL     1       2.057   9.226  18.335  0.00  0.00    +0.000 C 
ATOM      8  C   UNL     1       2.238   7.875  17.586  0.00  0.00    +0.000 C 
ENDROOT
BRANCH   6   9
ATOM      9  C   UNL     1      -1.382  11.385  19.652  0.00  0.00    +0.000 A 
ATOM     10  C   UNL     1      -2.530  11.391  18.867  0.00  0.00    +0.000 A 
ATOM     11  C   UNL     1      -3.650  12.167  19.234  0.00  0.00    +0.000 A 
ATOM     12  C   UNL     1      -3.686  12.920  20.410  0.00  0.00    +0.000 A 
ATOM     13  N   UNL     1      -4.789  13.609  20.772  0.00  0.00    +0.000 NA
ATOM     14  C   UNL     1      -4.795  14.316  21.933  0.00  0.00    +0.000 A 
ATOM     15  N   UNL     1      -5.902  15.067  22.263  0.00  0.00    +0.000 N 
ATOM     16  C   UNL     1      -7.232  14.725  21.760  0.00  0.00    +0.000 C 
ATOM     17  C   UNL     1      -7.902  15.975  21.167  0.00  0.00    +0.000 C 
ATOM     18  O   UNL     1      -7.917  17.069  22.103  0.00  0.00    +0.000 OA
ATOM     19  C   UNL     1      -6.574  17.419  22.471  0.00  0.00    +0.000 C 
ATOM     20  C   UNL     1      -5.844  16.243  23.136  0.00  0.00    +0.000 C 
ATOM     21  C   UNL     1      -3.696  14.281  22.777  0.00  0.00    +0.000 A 
ATOM     22  C   UNL     1      -2.543  13.591  22.427  0.00  0.00    +0.000 A 
ATOM     23  C   UNL     1      -1.408  13.519  23.412  0.00  0.00    +0.000 C 
ATOM     24  C   UNL     1      -2.516  12.923  21.196  0.00  0.00    +0.000 A 
ATOM     25  C   UNL     1      -1.371  12.238  20.756  0.00  0.00    +0.000 A 
ENDBRANCH   6   9
BRANCH   1  32
ATOM     26  C   UNL     1       6.716   4.979  15.846  0.00  0.00    +0.000 C 
ATOM     27  C   UNL     1       5.387   4.815  16.525  0.00  0.00    +0.000 A 
ATOM     28  C   UNL     1       4.713   3.600  16.491  0.00  0.00    +0.000 A 
ATOM     29  C   UNL     1       3.468   3.477  17.101  0.00  0.00    +0.000 A 
ATOM     30  C   UNL     1       2.866   4.569  17.754  0.00  0.00    +0.000 A 
ATOM     31  C   UNL     1       1.470   4.385  18.288  0.00  0.00    +0.000 C 
ATOM     32  C   UNL     1       3.550   5.806  17.836  0.00  0.00    +0.000 A 
ATOM     33  C   UNL     1       4.803   5.901  17.198  0.00  0.00    +0.000 A 
ENDBRANCH   1  32
BRANCH   5  34
ATOM     34  S   UNL     1      -0.577   9.001  21.442  0.00  0.00    +0.000 S 
ATOM     35  H   UNL     1      -0.052   7.772  21.320  0.00  0.00    +0.000 HD
ENDBRANCH   5  34
TORSDOF 3
ENDMDL
MODEL 3
REMARK VINA RESULT:      -7.2      6.320      7.719
REMARK  Name = 
REMARK  6 active torsions:
REMARK  status: ('A' for Active; 'I' for Inactive)
REMARK    1  A    between atoms: C_1  and  C_2
REMARK    2  A    between atoms: C_5  and  C_6
REMARK    3  A    between atoms: C_7  and  N_8
REMARK    4  A    between atoms: C_12  and  S_13
REMARK    5  A    between atoms: N_14  and  C_15
REMARK    6  A    between atoms: C_28  and  C_29
REMARK                            x       y       z     vdW  Elec       q    Type
REMARK                         _______ _______ _______ _____ _____    ______ ____
ROOT
ATOM      1  N   UNL     1       8.355  14.963  18.447  0.00  0.00    +0.000 N 
ATOM      2  C   UNL     1       7.900  15.587  19.702  0.00  0.00    +0.000 C 
ATOM      3  C   UNL     1       6.715  16.509  19.369  0.00  0.00    +0.000 C 
ATOM      4  N   UNL     1       5.609  15.721  18.788  0.00  0.00    +0.000 N 
ATOM      5  C   UNL     1       4.341  15.561  19.324  0.00  0.00    +0.000 C 
ATOM      6  N   UNL     1       3.376  14.987  18.649  0.00  0.00    +0.000 NA
ATOM      7  C   UNL     1       6.026  14.998  17.564  0.00  0.00    +0.000 C 
ATOM      8  C   UNL     1       7.286  14.128  17.836  0.00  0.00    +0.000 C 
ENDROOT
BRANCH   6   9
ATOM      9  C   UNL     1       2.041  14.907  19.090  0.00  0.00    +0.000 A 
ATOM     10  C   UNL     1       1.132  15.932  18.845  0.00  0.00    +0.000 A 
ATOM     11  C   UNL     1      -0.196  15.843  19.314  0.00  0.00    +0.000 A 
ATOM     12  C   UNL     1      -0.678  14.722  19.993  0.00  0.00    +0.000 A 
ATOM     13  N   UNL     1      -1.968  14.633  20.381  0.00  0.00    +0.000 NA
ATOM     14  C   UNL     1      -2.406  13.518  21.023  0.00  0.00    +0.000 A 
ATOM     15  N   UNL     1      -3.708  13.463  21.472  0.00  0.00    +0.000 N 
ATOM     16  C   UNL     1      -4.767  14.246  20.835  0.00  0.00    +0.000 C 
ATOM     17  C   UNL     1      -5.571  15.001  21.905  0.00  0.00    +0.000 C 
ATOM     18  O   UNL     1      -6.062  14.116  22.929  0.00  0.00    +0.000 OA
ATOM     19  C   UNL     1      -4.963  13.462  23.582  0.00  0.00    +0.000 C 
ATOM     20  C   UNL     1      -4.136  12.625  22.595  0.00  0.00    +0.000 C 
ATOM     21  C   UNL     1      -1.550  12.447  21.226  0.00  0.00    +0.000 A 
ATOM     22  C   UNL     1      -0.216  12.513  20.849  0.00  0.00    +0.000 A 
ATOM     23  C   UNL     1       0.652  11.296  21.020  0.00  0.00    +0.000 C 
ATOM     24  C   UNL     1       0.250  13.692  20.252  0.00  0.00    +0.000 A 
ATOM     25  C   UNL     1       1.595  13.847  19.880  0.00  0.00    +0.000 A 
ENDBRANCH   6   9
BRANCH   1  32
ATOM     26  C   UNL     1      11.771  11.690  19.970  0.00  0.00    +0.000 C 
ATOM     27  C   UNL     1      11.389  12.877  19.133  0.00  0.00    +0.000 A 
ATOM     28  C   UNL     1      12.333  13.527  18.347  0.00  0.00    +0.000 A 
ATOM     29  C   UNL     1      11.966  14.644  17.600  0.00  0.00    +0.000 A 
ATOM     30  C   UNL     1      10.649  15.138  17.629  0.00  0.00    +0.000 A 
ATOM     31  C   UNL     1      10.361  16.415  16.883  0.00  0.00    +0.000 C 
ATOM     32  C   UNL     1       9.661  14.469  18.390  0.00  0.00    +0.000 A 
ATOM     33  C   UNL     1      10.067  13.349  19.143  0.00  0.00    +0.000 A 
ENDBRANCH   1  32
BRANCH   5  34
ATOM     34  S   UNL     1       4.127  16.187  20.973  0.00  0.00    +0.000 S 
ATOM     35  H   UNL     1       2.855  15.773  21.077  0.00  0.00    +0.000 HD
ENDBRANCH   5  34
TORSDOF 3
ENDMDL
MODEL 4
REMARK VINA RESULT:      -7.1      3.976     12.259
REMARK  Name = 
REMARK  6 active torsions:
REMARK  status: ('A' for Active; 'I' for Inactive)
REMARK    1  A    between atoms: C_1  and  C_2
REMARK    2  A    between atoms: C_5  and  C_6
REMARK    3  A    between atoms: C_7  and  N_8
REMARK    4  A    between atoms: C_12  and  S_13
REMARK    5  A    between atoms: N_14  and  C_15
REMARK    6  A    between atoms: C_28  and  C_29
REMARK                            x       y       z     vdW  Elec       q    Type
REMARK                         _______ _______ _______ _____ _____    ______ ____
ROOT
ATOM      1  N   UNL     1      -2.694  13.715  22.895  0.00  0.00    +0.000 N 
ATOM      2  C   UNL     1      -1.820  12.819  23.674  0.00  0.00    +0.000 C 
ATOM      3  C   UNL     1      -1.936  11.408  23.075  0.00  0.00    +0.000 C 
ATOM      4  N   UNL     1      -1.491  11.418  21.666  0.00  0.00    +0.000 N 
ATOM      5  C   UNL     1      -0.416  10.722  21.136  0.00  0.00    +0.000 C 
ATOM      6  N   UNL     1      -0.207  10.658  19.844  0.00  0.00    +0.000 NA
ATOM      7  C   UNL     1      -2.279  12.366  20.843  0.00  0.00    +0.000 C 
ATOM      8  C   UNL     1      -2.268  13.788  21.472  0.00  0.00    +0.000 C 
ENDROOT
BRANCH   6   9
ATOM      9  C   UNL     1       0.791   9.868  19.242  0.00  0.00    +0.000 A 
ATOM     10  C   UNL     1       1.573  10.355  18.200  0.00  0.00    +0.000 A 
ATOM     11  C   UNL     1       2.554   9.541  17.594  0.00  0.00    +0.000 A 
ATOM     12  C   UNL     1       2.823   8.242  18.031  0.00  0.00    +0.000 A 
ATOM     13  N   UNL     1       3.806   7.502  17.476  0.00  0.00    +0.000 NA
ATOM     14  C   UNL     1       4.053   6.248  17.940  0.00  0.00    +0.000 A 
ATOM     15  N   UNL     1       5.016   5.476  17.325  0.00  0.00    +0.000 N 
ATOM     16  C   UNL     1       6.136   6.084  16.607  0.00  0.00    +0.000 C 
ATOM     17  C   UNL     1       6.276   5.440  15.219  0.00  0.00    +0.000 C 
ATOM     18  O   UNL     1       6.370   4.005  15.303  0.00  0.00    +0.000 OA
ATOM     19  C   UNL     1       5.190   3.470  15.921  0.00  0.00    +0.000 C 
ATOM     20  C   UNL     1       5.004   4.011  17.346  0.00  0.00    +0.000 C 
ATOM     21  C   UNL     1       3.343   5.751  19.021  0.00  0.00    +0.000 A 
ATOM     22  C   UNL     1       2.319   6.484  19.606  0.00  0.00    +0.000 A 
ATOM     23  C   UNL     1       1.631   5.933  20.825  0.00  0.00    +0.000 C 
ATOM     24  C   UNL     1       2.020   7.747  19.078  0.00  0.00    +0.000 A 
ATOM     25  C   UNL     1       0.972   8.529  19.591  0.00  0.00    +0.000 A 
ENDBRANCH   6   9
BRANCH   1  32
ATOM     26  C   UNL     1      -1.648  17.886  25.387  0.00  0.00    +0.000 C 
ATOM     27  C   UNL     1      -2.652  16.972  24.745  0.00  0.00    +0.000 A 
ATOM     28  C   UNL     1      -4.010  17.260  24.790  0.00  0.00    +0.000 A 
ATOM     29  C   UNL     1      -4.927  16.384  24.215  0.00  0.00    +0.000 A 
ATOM     30  C   UNL     1      -4.505  15.198  23.588  0.00  0.00    +0.000 A 
ATOM     31  C   UNL     1      -5.567  14.250  23.092  0.00  0.00    +0.000 C 
ATOM     32  C   UNL     1      -3.125  14.902  23.494  0.00  0.00    +0.000 A 
ATOM     33  C   UNL     1      -2.223  15.802  24.096  0.00  0.00    +0.000 A 
ENDBRANCH   1  32
BRANCH   5  34
ATOM     34  S   UNL     1       0.640   9.931  22.326  0.00  0.00    +0.000 S 
ATOM     35  H   UNL     1       1.290  11.058  22.653  0.00  0.00    +0.000 HD
ENDBRANCH   5  34
TORSDOF 3
ENDMDL
MODEL 5
REMARK VINA RESULT:      -7.0      0.970      1.976
REMARK  Name = 
REMARK  6 active torsions:
REMARK  status: ('A' for Active; 'I' for Inactive)
REMARK    1  A    between atoms: C_1  and  C_2
REMARK    2  A    between atoms: C_5  and  C_6
REMARK    3  A    between atoms: C_7  and  N_8
REMARK    4  A    between atoms: C_12  and  S_13
REMARK    5  A    between atoms: N_14  and  C_15
REMARK    6  A    between atoms: C_28  and  C_29
REMARK                            x       y       z     vdW  Elec       q    Type
REMARK                         _______ _______ _______ _____ _____    ______ ____
ROOT
ATOM      1  N   UNL     1       2.577   6.705  18.823  0.00  0.00    +0.000 N 
ATOM      2  C   UNL     1       1.921   6.662  20.142  0.00  0.00    +0.000 C 
ATOM      3  C   UNL     1       2.130   8.026  20.819  0.00  0.00    +0.000 C 
ATOM      4  N   UNL     1       1.516   9.095  20.004  0.00  0.00    +0.000 N 
ATOM      5  C   UNL     1       0.475   9.927  20.385  0.00  0.00    +0.000 C 
ATOM      6  N   UNL     1       0.117  10.957  19.660  0.00  0.00    +0.000 NA
ATOM      7  C   UNL     1       2.077   9.137  18.633  0.00  0.00    +0.000 C 
ATOM      8  C   UNL     1       1.973   7.745  17.948  0.00  0.00    +0.000 C 
ENDROOT
BRANCH   6   9
ATOM      9  C   UNL     1      -0.846  11.906  20.054  0.00  0.00    +0.000 A 
ATOM     10  C   UNL     1      -0.501  13.016  20.819  0.00  0.00    +0.000 A 
ATOM     11  C   UNL     1      -1.483  13.946  21.222  0.00  0.00    +0.000 A 
ATOM     12  C   UNL     1      -2.822  13.833  20.842  0.00  0.00    +0.000 A 
ATOM     13  N   UNL     1      -3.734  14.765  21.191  0.00  0.00    +0.000 NA
ATOM     14  C   UNL     1      -5.025  14.633  20.787  0.00  0.00    +0.000 A 
ATOM     15  N   UNL     1      -5.962  15.555  21.201  0.00  0.00    +0.000 N 
ATOM     16  C   UNL     1      -5.580  16.921  21.557  0.00  0.00    +0.000 C 
ATOM     17  C   UNL     1      -6.197  17.297  22.913  0.00  0.00    +0.000 C 
ATOM     18  O   UNL     1      -7.621  17.086  22.930  0.00  0.00    +0.000 OA
ATOM     19  C   UNL     1      -7.917  15.704  22.679  0.00  0.00    +0.000 C 
ATOM     20  C   UNL     1      -7.393  15.255  21.307  0.00  0.00    +0.000 C 
ATOM     21  C   UNL     1      -5.396  13.578  19.967  0.00  0.00    +0.000 A 
ATOM     22  C   UNL     1      -4.483  12.598  19.602  0.00  0.00    +0.000 A 
ATOM     23  C   UNL     1      -4.915  11.517  18.648  0.00  0.00    +0.000 C 
ATOM     24  C   UNL     1      -3.170  12.700  20.080  0.00  0.00    +0.000 A 
ATOM     25  C   UNL     1      -2.203  11.725  19.785  0.00  0.00    +0.000 A 
ENDBRANCH   6   9
BRANCH   1  32
ATOM     26  C   UNL     1       1.851   1.821  18.260  0.00  0.00    +0.000 C 
ATOM     27  C   UNL     1       2.619   3.068  17.928  0.00  0.00    +0.000 A 
ATOM     28  C   UNL     1       3.717   3.024  17.078  0.00  0.00    +0.000 A 
ATOM     29  C   UNL     1       4.434   4.186  16.807  0.00  0.00    +0.000 A 
ATOM     30  C   UNL     1       4.072   5.417  17.385  0.00  0.00    +0.000 A 
ATOM     31  C   UNL     1       4.966   6.602  17.131  0.00  0.00    +0.000 C 
ATOM     32  C   UNL     1       2.934   5.494  18.223  0.00  0.00    +0.000 A 
ATOM     33  C   UNL     1       2.237   4.298  18.487  0.00  0.00    +0.000 A 
ENDBRANCH   1  32
BRANCH   5  34
ATOM     34  S   UNL     1      -0.323   9.497  21.913  0.00  0.00    +0.000 S 
ATOM     35  H   UNL     1      -1.362  10.325  21.724  0.00  0.00    +0.000 HD
ENDBRANCH   5  34
TORSDOF 3
ENDMDL
MODEL 6
REMARK VINA RESULT:      -7.0      6.187      7.517
REMARK  Name = 
REMARK  6 active torsions:
REMARK  status: ('A' for Active; 'I' for Inactive)
REMARK    1  A    between atoms: C_1  and  C_2
REMARK    2  A    between atoms: C_5  and  C_6
REMARK    3  A    between atoms: C_7  and  N_8
REMARK    4  A    between atoms: C_12  and  S_13
REMARK    5  A    between atoms: N_14  and  C_15
REMARK    6  A    between atoms: C_28  and  C_29
REMARK                            x       y       z     vdW  Elec       q    Type
REMARK                         _______ _______ _______ _____ _____    ______ ____
ROOT
ATOM      1  N   UNL     1       8.053  14.910  18.904  0.00  0.00    +0.000 N 
ATOM      2  C   UNL     1       7.569  14.920  20.296  0.00  0.00    +0.000 C 
ATOM      3  C   UNL     1       6.341  15.843  20.363  0.00  0.00    +0.000 C 
ATOM      4  N   UNL     1       5.273  15.329  19.480  0.00  0.00    +0.000 N 
ATOM      5  C   UNL     1       4.015  14.900  19.871  0.00  0.00    +0.000 C 
ATOM      6  N   UNL     1       3.079  14.626  18.997  0.00  0.00    +0.000 NA
ATOM      7  C   UNL     1       5.725  15.215  18.073  0.00  0.00    +0.000 C 
ATOM      8  C   UNL     1       7.025  14.369  17.975  0.00  0.00    +0.000 C 
ENDROOT
BRANCH   6   9
ATOM      9  C   UNL     1       1.749  14.307  19.335  0.00  0.00    +0.000 A 
ATOM     10  C   UNL     1       1.293  12.992  19.329  0.00  0.00    +0.000 A 
ATOM     11  C   UNL     1      -0.048  12.694  19.650  0.00  0.00    +0.000 A 
ATOM     12  C   UNL     1      -0.963  13.677  20.032  0.00  0.00    +0.000 A 
ATOM     13  N   UNL     1      -2.226  13.362  20.392  0.00  0.00    +0.000 NA
ATOM     14  C   UNL     1      -3.084  14.343  20.778  0.00  0.00    +0.000 A 
ATOM     15  N   UNL     1      -4.389  14.020  21.082  0.00  0.00    +0.000 N 
ATOM     16  C   UNL     1      -4.754  12.683  21.550  0.00  0.00    +0.000 C 
ATOM     17  C   UNL     1      -5.950  12.157  20.741  0.00  0.00    +0.000 C 
ATOM     18  O   UNL     1      -7.054  13.082  20.756  0.00  0.00    +0.000 OA
ATOM     19  C   UNL     1      -6.653  14.336  20.186  0.00  0.00    +0.000 C 
ATOM     20  C   UNL     1      -5.498  14.972  20.974  0.00  0.00    +0.000 C 
ATOM     21  C   UNL     1      -2.650  15.657  20.864  0.00  0.00    +0.000 A 
ATOM     22  C   UNL     1      -1.361  16.013  20.490  0.00  0.00    +0.000 A 
ATOM     23  C   UNL     1      -0.915  17.438  20.675  0.00  0.00    +0.000 C 
ATOM     24  C   UNL     1      -0.502  15.009  20.024  0.00  0.00    +0.000 A 
ATOM     25  C   UNL     1       0.802  15.299  19.591  0.00  0.00    +0.000 A 
ENDBRANCH   6   9
BRANCH   1  32
ATOM     26  C   UNL     1      11.841  11.785  19.671  0.00  0.00    +0.000 C 
ATOM     27  C   UNL     1      11.290  13.031  19.038  0.00  0.00    +0.000 A 
ATOM     28  C   UNL     1      12.101  13.858  18.269  0.00  0.00    +0.000 A 
ATOM     29  C   UNL     1      11.579  15.024  17.715  0.00  0.00    +0.000 A 
ATOM     30  C   UNL     1      10.237  15.391  17.923  0.00  0.00    +0.000 A 
ATOM     31  C   UNL     1       9.781  16.723  17.385  0.00  0.00    +0.000 C 
ATOM     32  C   UNL     1       9.382  14.545  18.669  0.00  0.00    +0.000 A 
ATOM     33  C   UNL     1       9.943  13.379  19.226  0.00  0.00    +0.000 A 
ENDBRANCH   1  32
BRANCH   5  34
ATOM     34  S   UNL     1       3.772  14.754  21.625  0.00  0.00    +0.000 S 
ATOM     35  H   UNL     1       2.756  13.885  21.517  0.00  0.00    +0.000 HD
ENDBRANCH   5  34
TORSDOF 3
ENDMDL
MODEL 7
REMARK VINA RESULT:      -7.0      3.842     12.172
REMARK  Name = 
REMARK  6 active torsions:
REMARK  status: ('A' for Active; 'I' for Inactive)
REMARK    1  A    between atoms: C_1  and  C_2
REMARK    2  A    between atoms: C_5  and  C_6
REMARK    3  A    between atoms: C_7  and  N_8
REMARK    4  A    between atoms: C_12  and  S_13
REMARK    5  A    between atoms: N_14  and  C_15
REMARK    6  A    between atoms: C_28  and  C_29
REMARK                            x       y       z     vdW  Elec       q    Type
REMARK                         _______ _______ _______ _____ _____    ______ ____
ROOT
ATOM      1  N   UNL     1      -3.720  14.661  22.843  0.00  0.00    +0.000 N 
ATOM      2  C   UNL     1      -2.520  15.031  22.071  0.00  0.00    +0.000 C 
ATOM      3  C   UNL     1      -1.318  14.296  22.684  0.00  0.00    +0.000 C 
ATOM      4  N   UNL     1      -1.521  12.834  22.597  0.00  0.00    +0.000 N 
ATOM      5  C   UNL     1      -0.735  11.934  21.894  0.00  0.00    +0.000 C 
ATOM      6  N   UNL     1      -0.894  10.640  22.019  0.00  0.00    +0.000 NA
ATOM      7  C   UNL     1      -2.760  12.405  23.285  0.00  0.00    +0.000 C 
ATOM      8  C   UNL     1      -3.990  13.200  22.761  0.00  0.00    +0.000 C 
ENDROOT
BRANCH   6   9
ATOM      9  C   UNL     1      -0.050   9.679  21.429  0.00  0.00    +0.000 A 
ATOM     10  C   UNL     1       0.182   8.447  22.033  0.00  0.00    +0.000 A 
ATOM     11  C   UNL     1       1.047   7.505  21.438  0.00  0.00    +0.000 A 
ATOM     12  C   UNL     1       1.670   7.731  20.208  0.00  0.00    +0.000 A 
ATOM     13  N   UNL     1       2.448   6.793  19.629  0.00  0.00    +0.000 NA
ATOM     14  C   UNL     1       3.022   7.041  18.422  0.00  0.00    +0.000 A 
ATOM     15  N   UNL     1       3.865   6.102  17.868  0.00  0.00    +0.000 N 
ATOM     16  C   UNL     1       3.746   4.682  18.197  0.00  0.00    +0.000 C 
ATOM     17  C   UNL     1       5.125   4.117  18.573  0.00  0.00    +0.000 C 
ATOM     18  O   UNL     1       6.107   4.380  17.552  0.00  0.00    +0.000 OA
ATOM     19  C   UNL     1       6.247   5.795  17.358  0.00  0.00    +0.000 C 
ATOM     20  C   UNL     1       4.925   6.438  16.913  0.00  0.00    +0.000 C 
ATOM     21  C   UNL     1       2.762   8.228  17.755  0.00  0.00    +0.000 A 
ATOM     22  C   UNL     1       1.975   9.217  18.331  0.00  0.00    +0.000 A 
ATOM     23  C   UNL     1       1.659  10.453  17.534  0.00  0.00    +0.000 C 
ATOM     24  C   UNL     1       1.444   8.986  19.606  0.00  0.00    +0.000 A 
ATOM     25  C   UNL     1       0.672   9.955  20.268  0.00  0.00    +0.000 A 
ENDBRANCH   6   9
BRANCH   1  32
ATOM     26  C   UNL     1      -7.611  16.519  20.373  0.00  0.00    +0.000 C 
ATOM     27  C   UNL     1      -6.752  16.477  21.604  0.00  0.00    +0.000 A 
ATOM     28  C   UNL     1      -7.005  17.321  22.679  0.00  0.00    +0.000 A 
ATOM     29  C   UNL     1      -6.179  17.287  23.799  0.00  0.00    +0.000 A 
ATOM     30  C   UNL     1      -5.078  16.413  23.866  0.00  0.00    +0.000 A 
ATOM     31  C   UNL     1      -4.169  16.519  25.062  0.00  0.00    +0.000 C 
ATOM     32  C   UNL     1      -4.824  15.517  22.801  0.00  0.00    +0.000 A 
ATOM     33  C   UNL     1      -5.671  15.583  21.677  0.00  0.00    +0.000 A 
ENDBRANCH   1  32
BRANCH   5  34
ATOM     34  S   UNL     1       0.486  12.660  20.827  0.00  0.00    +0.000 S 
ATOM     35  H   UNL     1       0.934  13.521  21.755  0.00  0.00    +0.000 HD
ENDBRANCH   5  34
TORSDOF 3
ENDMDL
MODEL 8
REMARK VINA RESULT:      -6.9      6.947     11.866
REMARK  Name = 
REMARK  6 active torsions:
REMARK  status: ('A' for Active; 'I' for Inactive)
REMARK    1  A    between atoms: C_1  and  C_2
REMARK    2  A    between atoms: C_5  and  C_6
REMARK    3  A    between atoms: C_7  and  N_8
REMARK    4  A    between atoms: C_12  and  S_13
REMARK    5  A    between atoms: N_14  and  C_15
REMARK    6  A    between atoms: C_28  and  C_29
REMARK                            x       y       z     vdW  Elec       q    Type
REMARK                         _______ _______ _______ _____ _____    ______ ____
ROOT
ATOM      1  N   UNL     1      -2.681  13.436  20.498  0.00  0.00    +0.000 N 
ATOM      2  C   UNL     1      -1.901  12.285  20.007  0.00  0.00    +0.000 C 
ATOM      3  C   UNL     1      -1.104  12.746  18.776  0.00  0.00    +0.000 C 
ATOM      4  N   UNL     1      -0.180  13.837  19.151  0.00  0.00    +0.000 N 
ATOM      5  C   UNL     1       1.204  13.806  19.080  0.00  0.00    +0.000 C 
ATOM      6  N   UNL     1       1.926  14.882  19.269  0.00  0.00    +0.000 NA
ATOM      7  C   UNL     1      -0.898  14.996  19.731  0.00  0.00    +0.000 C 
ATOM      8  C   UNL     1      -1.796  14.553  20.921  0.00  0.00    +0.000 C 
ENDROOT
BRANCH   6   9
ATOM      9  C   UNL     1       3.322  14.939  19.090  0.00  0.00    +0.000 A 
ATOM     10  C   UNL     1       3.888  15.032  17.822  0.00  0.00    +0.000 A 
ATOM     11  C   UNL     1       5.289  15.067  17.660  0.00  0.00    +0.000 A 
ATOM     12  C   UNL     1       6.169  15.061  18.745  0.00  0.00    +0.000 A 
ATOM     13  N   UNL     1       7.504  15.154  18.569  0.00  0.00    +0.000 NA
ATOM     14  C   UNL     1       8.330  15.165  19.649  0.00  0.00    +0.000 A 
ATOM     15  N   UNL     1       9.694  15.196  19.459  0.00  0.00    +0.000 N 
ATOM     16  C   UNL     1      10.281  15.768  18.247  0.00  0.00    +0.000 C 
ATOM     17  C   UNL     1      11.309  14.791  17.655  0.00  0.00    +0.000 C 
ATOM     18  O   UNL     1      12.295  14.397  18.628  0.00  0.00    +0.000 OA
ATOM     19  C   UNL     1      11.657  13.748  19.739  0.00  0.00    +0.000 C 
ATOM     20  C   UNL     1      10.654  14.678  20.437  0.00  0.00    +0.000 C 
ATOM     21  C   UNL     1       7.803  15.143  20.931  0.00  0.00    +0.000 A 
ATOM     22  C   UNL     1       6.434  15.036  21.143  0.00  0.00    +0.000 A 
ATOM     23  C   UNL     1       5.907  15.095  22.551  0.00  0.00    +0.000 C 
ATOM     24  C   UNL     1       5.593  14.953  20.026  0.00  0.00    +0.000 A 
ATOM     25  C   UNL     1       4.203  14.803  20.163  0.00  0.00    +0.000 A 
ENDBRANCH   6   9
BRANCH   1  32
ATOM     26  C   UNL     1      -4.676  12.462  24.945  0.00  0.00    +0.000 C 
ATOM     27  C   UNL     1      -4.836  12.680  23.467  0.00  0.00    +0.000 A 
ATOM     28  C   UNL     1      -6.082  12.574  22.862  0.00  0.00    +0.000 A 
ATOM     29  C   UNL     1      -6.205  12.750  21.486  0.00  0.00    +0.000 A 
ATOM     30  C   UNL     1      -5.082  13.030  20.685  0.00  0.00    +0.000 A 
ATOM     31  C   UNL     1      -5.282  13.093  19.193  0.00  0.00    +0.000 C 
ATOM     32  C   UNL     1      -3.809  13.182  21.284  0.00  0.00    +0.000 A 
ATOM     33  C   UNL     1      -3.716  12.986  22.677  0.00  0.00    +0.000 A 
ENDBRANCH   1  32
BRANCH   5  34
ATOM     34  S   UNL     1       1.912  12.218  18.716  0.00  0.00    +0.000 S 
ATOM     35  H   UNL     1       2.901  12.717  17.959  0.00  0.00    +0.000 HD
ENDBRANCH   5  34
TORSDOF 3
ENDMDL
MODEL 9
REMARK VINA RESULT:      -6.9      5.813      7.220
REMARK  Name = 
REMARK  6 active torsions:
REMARK  status: ('A' for Active; 'I' for Inactive)
REMARK    1  A    between atoms: C_1  and  C_2
REMARK    2  A    between atoms: C_5  and  C_6
REMARK    3  A    between atoms: C_7  and  N_8
REMARK    4  A    between atoms: C_12  and  S_13
REMARK    5  A    between atoms: N_14  and  C_15
REMARK    6  A    between atoms: C_28  and  C_29
REMARK                            x       y       z     vdW  Elec       q    Type
REMARK                         _______ _______ _______ _____ _____    ______ ____
ROOT
ATOM      1  N   UNL     1       7.323  15.026  18.491  0.00  0.00    +0.000 N 
ATOM      2  C   UNL     1       6.974  15.299  19.897  0.00  0.00    +0.000 C 
ATOM      3  C   UNL     1       5.882  16.381  19.912  0.00  0.00    +0.000 C 
ATOM      4  N   UNL     1       4.683  15.899  19.196  0.00  0.00    +0.000 N 
ATOM      5  C   UNL     1       3.422  15.707  19.739  0.00  0.00    +0.000 C 
ATOM      6  N   UNL     1       2.383  15.444  18.987  0.00  0.00    +0.000 NA
ATOM      7  C   UNL     1       4.985  15.528  17.794  0.00  0.00    +0.000 C 
ATOM      8  C   UNL     1       6.155  14.505  17.732  0.00  0.00    +0.000 C 
ENDROOT
BRANCH   6   9
ATOM      9  C   UNL     1       1.060  15.361  19.465  0.00  0.00    +0.000 A 
ATOM     10  C   UNL     1       0.344  16.499  19.820  0.00  0.00    +0.000 A 
ATOM     11  C   UNL     1      -0.973  16.395  20.317  0.00  0.00    +0.000 A 
ATOM     12  C   UNL     1      -1.636  15.171  20.432  0.00  0.00    +0.000 A 
ATOM     13  N   UNL     1      -2.916  15.100  20.855  0.00  0.00    +0.000 NA
ATOM     14  C   UNL     1      -3.536  13.893  20.935  0.00  0.00    +0.000 A 
ATOM     15  N   UNL     1      -4.821  13.824  21.428  0.00  0.00    +0.000 N 
ATOM     16  C   UNL     1      -5.733  14.964  21.342  0.00  0.00    +0.000 C 
ATOM     17  C   UNL     1      -6.376  15.222  22.713  0.00  0.00    +0.000 C 
ATOM     18  O   UNL     1      -7.002  14.037  23.241  0.00  0.00    +0.000 OA
ATOM     19  C   UNL     1      -6.027  12.995  23.399  0.00  0.00    +0.000 C 
ATOM     20  C   UNL     1      -5.375  12.623  22.060  0.00  0.00    +0.000 C 
ATOM     21  C   UNL     1      -2.880  12.743  20.526  0.00  0.00    +0.000 A 
ATOM     22  C   UNL     1      -1.560  12.783  20.097  0.00  0.00    +0.000 A 
ATOM     23  C   UNL     1      -0.919  11.519  19.590  0.00  0.00    +0.000 C 
ATOM     24  C   UNL     1      -0.902  14.019  20.084  0.00  0.00    +0.000 A 
ATOM     25  C   UNL     1       0.445  14.132  19.701  0.00  0.00    +0.000 A 
ENDBRANCH   6   9
BRANCH   1  32
ATOM     26  C   UNL     1      10.277  11.030  18.404  0.00  0.00    +0.000 C 
ATOM     27  C   UNL     1      10.071  12.501  18.177  0.00  0.00    +0.000 A 
ATOM     28  C   UNL     1      11.120  13.310  17.757  0.00  0.00    +0.000 A 
ATOM     29  C   UNL     1      10.916  14.677  17.582  0.00  0.00    +0.000 A 
ATOM     30  C   UNL     1       9.661  15.263  17.828  0.00  0.00    +0.000 A 
ATOM     31  C   UNL     1       9.554  16.763  17.725  0.00  0.00    +0.000 C 
ATOM     32  C   UNL     1       8.569  14.453  18.219  0.00  0.00    +0.000 A 
ATOM     33  C   UNL     1       8.810  13.077  18.399  0.00  0.00    +0.000 A 
ENDBRANCH   1  32
BRANCH   5  34
ATOM     34  S   UNL     1       3.325  15.845  21.507  0.00  0.00    +0.000 S 
ATOM     35  H   UNL     1       4.596  15.463  21.710  0.00  0.00    +0.000 HD
ENDBRANCH   5  34
TORSDOF 3
ENDMDL
