MODEL 1
REMARK VINA RESULT:      -9.8      0.000      0.000
REMARK  Name = 
REMARK  6 active torsions:
REMARK  status: ('A' for Active; 'I' for Inactive)
REMARK    1  A    between atoms: C_1  and  C_2
REMARK    2  A    between atoms: C_5  and  N_6
REMARK    3  A    between atoms: N_6  and  C_7
REMARK    4  A    between atoms: C_7  and  C_8
REMARK    5  A    between atoms: C_16  and  C_17
REMARK    6  A    between atoms: C_22  and  O_23
REMARK                            x       y       z     vdW  Elec       q    Type
REMARK                         _______ _______ _______ _____ _____    ______ ____
ROOT
ATOM      1  C   UNL     1       4.195   5.758  18.653  0.00  0.00    +0.000 A 
ATOM      2  C   UNL     1       4.214   6.425  17.400  0.00  0.00    +0.000 A 
ATOM      3  C   UNL     1       3.447   7.571  17.161  0.00  0.00    +0.000 A 
ATOM      4  C   UNL     1       2.661   8.021  18.192  0.00  0.00    +0.000 A 
ATOM      5  C   UNL     1       2.612   7.370  19.453  0.00  0.00    +0.000 A 
ATOM      6  C   UNL     1       3.382   6.243  19.691  0.00  0.00    +0.000 A 
ATOM      7  C   UNL     1       1.657   8.046  20.453  0.00  0.00    +0.000 C 
ATOM      8  C   UNL     1       1.215   9.159  19.569  0.00  0.00    +0.000 A 
ATOM      9  C   UNL     1       0.359  10.277  19.568  0.00  0.00    +0.000 A 
ATOM     10  N   UNL     1       0.395  10.881  18.356  0.00  0.00    +0.000 NA
ATOM     11  N   UNL     1       1.282  10.157  17.622  0.00  0.00    +0.000 N 
ATOM     12  C   UNL     1       1.776   9.124  18.324  0.00  0.00    +0.000 A 
ATOM     13  H   UNL     1       1.471  10.440  16.668  0.00  0.00    +0.000 HD
ENDROOT
BRANCH   9  14
ATOM     14  C   UNL     1      -0.487  10.757  20.658  0.00  0.00    +0.000 A 
ATOM     15  C   UNL     1      -0.341  10.248  21.952  0.00  0.00    +0.000 A 
ATOM     16  C   UNL     1      -1.120  10.743  23.002  0.00  0.00    +0.000 A 
ATOM     17  C   UNL     1      -2.068  11.754  22.779  0.00  0.00    +0.000 A 
ATOM     18  C   UNL     1      -2.854  12.272  23.820  0.00  0.00    +0.000 A 
ATOM     19  C   UNL     1      -3.788  13.273  23.561  0.00  0.00    +0.000 A 
ATOM     20  C   UNL     1      -3.961  13.772  22.278  0.00  0.00    +0.000 A 
ATOM     21  C   UNL     1      -3.188  13.268  21.234  0.00  0.00    +0.000 A 
ATOM     22  C   UNL     1      -2.237  12.262  21.470  0.00  0.00    +0.000 A 
ATOM     23  C   UNL     1      -1.448  11.753  20.428  0.00  0.00    +0.000 A 
BRANCH  19  24
ATOM     24  O   UNL     1      -4.562  13.799  24.552  0.00  0.00    +0.000 OA
ATOM     25  H   UNL     1      -5.425  13.352  24.542  0.00  0.00    +0.000 HD
ENDBRANCH  19  24
ENDBRANCH   9  14
BRANCH   1  26
ATOM     26  C   UNL     1       5.076   4.547  18.877  0.00  0.00    +0.000 C 
BRANCH  26  27
ATOM     27  N   UNL     1       4.677   3.421  18.032  0.00  0.00    +0.000 NA
ATOM     28  H   UNL     1       4.470   3.765  17.097  0.00  0.00    +0.000 HD
BRANCH  27  33
ATOM     29  C   UNL     1       0.702   4.214  20.506  0.00  0.00    +0.000 C 
ATOM     30  C   UNL     1       0.951   2.755  20.114  0.00  0.00    +0.000 C 
ATOM     31  C   UNL     1       0.966   2.573  18.594  0.00  0.00    +0.000 C 
ATOM     32  C   UNL     1       2.194   3.198  17.936  0.00  0.00    +0.000 C 
ATOM     33  C   UNL     1       3.510   2.688  18.547  0.00  0.00    +0.000 C 
ATOM     34  C   UNL     1       3.503   2.824  20.081  0.00  0.00    +0.000 C 
ATOM     35  C   UNL     1       2.253   2.213  20.717  0.00  0.00    +0.000 C 
ENDBRANCH  27  33
ENDBRANCH  26  27
ENDBRANCH   1  26
TORSDOF 5
ENDMDL
MODEL 2
REMARK VINA RESULT:      -9.5      3.434     10.077
REMARK  Name = 
REMARK  6 active torsions:
REMARK  status: ('A' for Active; 'I' for Inactive)
REMARK    1  A    between atoms: C_1  and  C_2
REMARK    2  A    between atoms: C_5  and  N_6
REMARK    3  A    between atoms: N_6  and  C_7
REMARK    4  A    between atoms: C_7  and  C_8
REMARK    5  A    between atoms: C_16  and  C_17
REMARK    6  A    between atoms: C_22  and  O_23
REMARK                            x       y       z     vdW  Elec       q    Type
REMARK                         _______ _______ _______ _____ _____    ______ ____
ROOT
ATOM      1  C   UNL     1      -0.945  11.492  22.222  0.00  0.00    +0.000 A 
ATOM      2  C   UNL     1      -0.756  12.432  21.176  0.00  0.00    +0.000 A 
ATOM      3  C   UNL     1      -0.060  12.106  20.007  0.00  0.00    +0.000 A 
ATOM      4  C   UNL     1       0.445  10.833  19.916  0.00  0.00    +0.000 A 
ATOM      5  C   UNL     1       0.281   9.873  20.950  0.00  0.00    +0.000 A 
ATOM      6  C   UNL     1      -0.419  10.195  22.102  0.00  0.00    +0.000 A 
ATOM      7  C   UNL     1       0.937   8.518  20.635  0.00  0.00    +0.000 C 
ATOM      8  C   UNL     1       1.457   8.869  19.285  0.00  0.00    +0.000 A 
ATOM      9  C   UNL     1       2.191   8.312  18.220  0.00  0.00    +0.000 A 
ATOM     10  N   UNL     1       2.360   9.239  17.246  0.00  0.00    +0.000 NA
ATOM     11  N   UNL     1       1.719  10.350  17.695  0.00  0.00    +0.000 N 
ATOM     12  C   UNL     1       1.180  10.152  18.909  0.00  0.00    +0.000 A 
ATOM     13  H   UNL     1       1.713  11.178  17.112  0.00  0.00    +0.000 HD
ENDROOT
BRANCH   9  14
ATOM     14  C   UNL     1       2.739   6.961  18.121  0.00  0.00    +0.000 A 
ATOM     15  C   UNL     1       4.088   6.760  17.815  0.00  0.00    +0.000 A 
ATOM     16  C   UNL     1       4.620   5.468  17.767  0.00  0.00    +0.000 A 
ATOM     17  C   UNL     1       3.812   4.348  18.019  0.00  0.00    +0.000 A 
ATOM     18  C   UNL     1       4.328   3.043  17.985  0.00  0.00    +0.000 A 
ATOM     19  C   UNL     1       3.495   1.955  18.237  0.00  0.00    +0.000 A 
ATOM     20  C   UNL     1       2.149   2.137  18.520  0.00  0.00    +0.000 A 
ATOM     21  C   UNL     1       1.623   3.427  18.557  0.00  0.00    +0.000 A 
ATOM     22  C   UNL     1       2.442   4.540  18.311  0.00  0.00    +0.000 A 
ATOM     23  C   UNL     1       1.925   5.843  18.353  0.00  0.00    +0.000 A 
BRANCH  19  24
ATOM     24  O   UNL     1       3.968   0.676  18.215  0.00  0.00    +0.000 OA
ATOM     25  H   UNL     1       4.248   0.434  19.114  0.00  0.00    +0.000 HD
ENDBRANCH  19  24
ENDBRANCH   9  14
BRANCH   1  26
ATOM     26  C   UNL     1      -1.743  11.880  23.451  0.00  0.00    +0.000 C 
BRANCH  26  27
ATOM     27  N   UNL     1      -2.054  13.309  23.467  0.00  0.00    +0.000 NA
ATOM     28  H   UNL     1      -1.374  13.791  24.051  0.00  0.00    +0.000 HD
BRANCH  27  33
ATOM     29  C   UNL     1      -6.584  12.784  22.142  0.00  0.00    +0.000 C 
ATOM     30  C   UNL     1      -6.368  13.526  23.464  0.00  0.00    +0.000 C 
ATOM     31  C   UNL     1      -5.696  12.633  24.510  0.00  0.00    +0.000 C 
ATOM     32  C   UNL     1      -4.237  12.331  24.178  0.00  0.00    +0.000 C 
ATOM     33  C   UNL     1      -3.408  13.609  23.957  0.00  0.00    +0.000 C 
ATOM     34  C   UNL     1      -4.086  14.542  22.936  0.00  0.00    +0.000 C 
ATOM     35  C   UNL     1      -5.554  14.812  23.274  0.00  0.00    +0.000 C 
ENDBRANCH  27  33
ENDBRANCH  26  27
ENDBRANCH   1  26
TORSDOF 5
ENDMDL
MODEL 3
REMARK VINA RESULT:      -9.5      1.425      2.363
REMARK  Name = 
REMARK  6 active torsions:
REMARK  status: ('A' for Active; 'I' for Inactive)
REMARK    1  A    between atoms: C_1  and  C_2
REMARK    2  A    between atoms: C_5  and  N_6
REMARK    3  A    between atoms: N_6  and  C_7
REMARK    4  A    between atoms: C_7  and  C_8
REMARK    5  A    between atoms: C_16  and  C_17
REMARK    6  A    between atoms: C_22  and  O_23
REMARK                            x       y       z     vdW  Elec       q    Type
REMARK                         _______ _______ _______ _____ _____    ______ ____
ROOT
ATOM      1  C   UNL     1       2.565   7.556  18.992  0.00  0.00    +0.000 A 
ATOM      2  C   UNL     1       2.717   8.398  17.858  0.00  0.00    +0.000 A 
ATOM      3  C   UNL     1       1.969   9.571  17.704  0.00  0.00    +0.000 A 
ATOM      4  C   UNL     1       1.070   9.872  18.696  0.00  0.00    +0.000 A 
ATOM      5  C   UNL     1       0.888   9.045  19.836  0.00  0.00    +0.000 A 
ATOM      6  C   UNL     1       1.637   7.890  19.992  0.00  0.00    +0.000 A 
ATOM      7  C   UNL     1      -0.178   9.574  20.811  0.00  0.00    +0.000 C 
ATOM      8  C   UNL     1      -0.531  10.806  20.054  0.00  0.00    +0.000 A 
ATOM      9  C   UNL     1      -1.392  11.918  20.120  0.00  0.00    +0.000 A 
ATOM     10  N   UNL     1      -1.228  12.692  19.020  0.00  0.00    +0.000 NA
ATOM     11  N   UNL     1      -0.259  12.076  18.292  0.00  0.00    +0.000 N 
ATOM     12  C   UNL     1       0.165  10.950  18.887  0.00  0.00    +0.000 A 
ATOM     13  H   UNL     1       0.032  12.494  17.416  0.00  0.00    +0.000 HD
ENDROOT
BRANCH   9  14
ATOM     14  C   UNL     1      -2.359  12.240  21.168  0.00  0.00    +0.000 A 
ATOM     15  C   UNL     1      -1.942  12.434  22.488  0.00  0.00    +0.000 A 
ATOM     16  C   UNL     1      -2.864  12.787  23.478  0.00  0.00    +0.000 A 
ATOM     17  C   UNL     1      -4.223  12.950  23.171  0.00  0.00    +0.000 A 
ATOM     18  C   UNL     1      -5.163  13.314  24.148  0.00  0.00    +0.000 A 
ATOM     19  C   UNL     1      -6.506  13.463  23.806  0.00  0.00    +0.000 A 
ATOM     20  C   UNL     1      -6.938  13.252  22.505  0.00  0.00    +0.000 A 
ATOM     21  C   UNL     1      -6.017  12.890  21.524  0.00  0.00    +0.000 A 
ATOM     22  C   UNL     1      -4.658  12.738  21.842  0.00  0.00    +0.000 A 
ATOM     23  C   UNL     1      -3.720  12.382  20.861  0.00  0.00    +0.000 A 
BRANCH  19  24
ATOM     24  O   UNL     1      -7.441  13.820  24.732  0.00  0.00    +0.000 OA
ATOM     25  H   UNL     1      -8.282  13.390  24.505  0.00  0.00    +0.000 HD
ENDBRANCH  19  24
ENDBRANCH   9  14
BRANCH   1  26
ATOM     26  C   UNL     1       3.428   6.319  19.133  0.00  0.00    +0.000 C 
BRANCH  26  27
ATOM     27  N   UNL     1       3.529   5.579  17.876  0.00  0.00    +0.000 NA
ATOM     28  H   UNL     1       3.020   6.084  17.152  0.00  0.00    +0.000 HD
BRANCH  27  33
ATOM     29  C   UNL     1       1.512   2.658  21.030  0.00  0.00    +0.000 C 
ATOM     30  C   UNL     1       1.785   2.049  19.651  0.00  0.00    +0.000 C 
ATOM     31  C   UNL     1       0.995   2.764  18.552  0.00  0.00    +0.000 C 
ATOM     32  C   UNL     1       1.505   4.177  18.281  0.00  0.00    +0.000 C 
ATOM     33  C   UNL     1       3.010   4.206  17.961  0.00  0.00    +0.000 C 
ATOM     34  C   UNL     1       3.823   3.458  19.034  0.00  0.00    +0.000 C 
ATOM     35  C   UNL     1       3.279   2.054  19.307  0.00  0.00    +0.000 C 
ENDBRANCH  27  33
ENDBRANCH  26  27
ENDBRANCH   1  26
TORSDOF 5
ENDMDL
MODEL 4
REMARK VINA RESULT:      -9.4      3.433     10.188
REMARK  Name = 
REMARK  6 active torsions:
REMARK  status: ('A' for Active; 'I' for Inactive)
REMARK    1  A    between atoms: C_1  and  C_2
REMARK    2  A    between atoms: C_5  and  N_6
REMARK    3  A    between atoms: N_6  and  C_7
REMARK    4  A    between atoms: C_7  and  C_8
REMARK    5  A    between atoms: C_16  and  C_17
REMARK    6  A    between atoms: C_22  and  O_23
REMARK                            x       y       z     vdW  Elec       q    Type
REMARK                         _______ _______ _______ _____ _____    ______ ____
ROOT
ATOM      1  C   UNL     1      -0.876  11.705  22.243  0.00  0.00    +0.000 A 
ATOM      2  C   UNL     1      -0.763  12.583  21.133  0.00  0.00    +0.000 A 
ATOM      3  C   UNL     1      -0.123  12.197  19.950  0.00  0.00    +0.000 A 
ATOM      4  C   UNL     1       0.403  10.930  19.909  0.00  0.00    +0.000 A 
ATOM      5  C   UNL     1       0.315  10.033  21.006  0.00  0.00    +0.000 A 
ATOM      6  C   UNL     1      -0.330  10.413  22.173  0.00  0.00    +0.000 A 
ATOM      7  C   UNL     1       0.981   8.673  20.738  0.00  0.00    +0.000 C 
ATOM      8  C   UNL     1       1.421   8.950  19.343  0.00  0.00    +0.000 A 
ATOM      9  C   UNL     1       2.109   8.342  18.275  0.00  0.00    +0.000 A 
ATOM     10  N   UNL     1       2.207   9.210  17.240  0.00  0.00    +0.000 NA
ATOM     11  N   UNL     1       1.567  10.335  17.655  0.00  0.00    +0.000 N 
ATOM     12  C   UNL     1       1.098  10.203  18.906  0.00  0.00    +0.000 A 
ATOM     13  H   UNL     1       1.513  11.126  17.024  0.00  0.00    +0.000 HD
ENDROOT
BRANCH   9  14
ATOM     14  C   UNL     1       2.680   6.998  18.228  0.00  0.00    +0.000 A 
ATOM     15  C   UNL     1       4.064   6.813  18.153  0.00  0.00    +0.000 A 
ATOM     16  C   UNL     1       4.609   5.525  18.155  0.00  0.00    +0.000 A 
ATOM     17  C   UNL     1       3.781   4.394  18.227  0.00  0.00    +0.000 A 
ATOM     18  C   UNL     1       4.308   3.093  18.240  0.00  0.00    +0.000 A 
ATOM     19  C   UNL     1       3.455   1.993  18.309  0.00  0.00    +0.000 A 
ATOM     20  C   UNL     1       2.079   2.160  18.361  0.00  0.00    +0.000 A 
ATOM     21  C   UNL     1       1.541   3.446  18.349  0.00  0.00    +0.000 A 
ATOM     22  C   UNL     1       2.379   4.570  18.285  0.00  0.00    +0.000 A 
ATOM     23  C   UNL     1       1.849   5.869  18.279  0.00  0.00    +0.000 A 
BRANCH  19  24
ATOM     24  O   UNL     1       3.937   0.718  18.327  0.00  0.00    +0.000 OA
ATOM     25  H   UNL     1       4.153   0.482  19.245  0.00  0.00    +0.000 HD
ENDBRANCH  19  24
ENDBRANCH   9  14
BRANCH   1  26
ATOM     26  C   UNL     1      -1.616  12.153  23.487  0.00  0.00    +0.000 C 
BRANCH  26  27
ATOM     27  N   UNL     1      -3.034  11.798  23.434  0.00  0.00    +0.000 NA
ATOM     28  H   UNL     1      -3.301  11.644  22.464  0.00  0.00    +0.000 HD
BRANCH  27  33
ATOM     29  C   UNL     1      -4.717  16.130  22.454  0.00  0.00    +0.000 C 
ATOM     30  C   UNL     1      -5.139  15.551  23.808  0.00  0.00    +0.000 C 
ATOM     31  C   UNL     1      -5.970  14.277  23.643  0.00  0.00    +0.000 C 
ATOM     32  C   UNL     1      -5.146  13.095  23.139  0.00  0.00    +0.000 C 
ATOM     33  C   UNL     1      -3.916  12.819  24.021  0.00  0.00    +0.000 C 
ATOM     34  C   UNL     1      -3.084  14.098  24.234  0.00  0.00    +0.000 C 
ATOM     35  C   UNL     1      -3.934  15.275  24.715  0.00  0.00    +0.000 C 
ENDBRANCH  27  33
ENDBRANCH  26  27
ENDBRANCH   1  26
TORSDOF 5
ENDMDL
MODEL 5
REMARK VINA RESULT:      -9.4      3.360     10.048
REMARK  Name = 
REMARK  6 active torsions:
REMARK  status: ('A' for Active; 'I' for Inactive)
REMARK    1  A    between atoms: C_1  and  C_2
REMARK    2  A    between atoms: C_5  and  N_6
REMARK    3  A    between atoms: N_6  and  C_7
REMARK    4  A    between atoms: C_7  and  C_8
REMARK    5  A    between atoms: C_16  and  C_17
REMARK    6  A    between atoms: C_22  and  O_23
REMARK                            x       y       z     vdW  Elec       q    Type
REMARK                         _______ _______ _______ _____ _____    ______ ____
ROOT
ATOM      1  C   UNL     1      -1.316  11.874  22.317  0.00  0.00    +0.000 A 
ATOM      2  C   UNL     1      -1.311  12.668  21.140  0.00  0.00    +0.000 A 
ATOM      3  C   UNL     1      -0.651  12.257  19.976  0.00  0.00    +0.000 A 
ATOM      4  C   UNL     1       0.004  11.052  20.021  0.00  0.00    +0.000 A 
ATOM      5  C   UNL     1       0.025  10.241  21.187  0.00  0.00    +0.000 A 
ATOM      6  C   UNL     1      -0.639  10.643  22.334  0.00  0.00    +0.000 A 
ATOM      7  C   UNL     1       0.826   8.939  21.010  0.00  0.00    +0.000 C 
ATOM      8  C   UNL     1       1.215   9.148  19.589  0.00  0.00    +0.000 A 
ATOM      9  C   UNL     1       1.947   8.531  18.556  0.00  0.00    +0.000 A 
ATOM     10  N   UNL     1       1.940   9.320  17.455  0.00  0.00    +0.000 NA
ATOM     11  N   UNL     1       1.192  10.403  17.795  0.00  0.00    +0.000 N 
ATOM     12  C   UNL     1       0.756  10.322  19.063  0.00  0.00    +0.000 A 
ATOM     13  H   UNL     1       1.047  11.131  17.106  0.00  0.00    +0.000 HD
ENDROOT
BRANCH   9  14
ATOM     14  C   UNL     1       2.654   7.253  18.601  0.00  0.00    +0.000 A 
ATOM     15  C   UNL     1       3.742   7.011  17.757  0.00  0.00    +0.000 A 
ATOM     16  C   UNL     1       4.446   5.805  17.835  0.00  0.00    +0.000 A 
ATOM     17  C   UNL     1       4.073   4.813  18.755  0.00  0.00    +0.000 A 
ATOM     18  C   UNL     1       4.771   3.599  18.856  0.00  0.00    +0.000 A 
ATOM     19  C   UNL     1       4.369   2.636  19.780  0.00  0.00    +0.000 A 
ATOM     20  C   UNL     1       3.278   2.853  20.608  0.00  0.00    +0.000 A 
ATOM     21  C   UNL     1       2.575   4.053  20.519  0.00  0.00    +0.000 A 
ATOM     22  C   UNL     1       2.962   5.041  19.600  0.00  0.00    +0.000 A 
ATOM     23  C   UNL     1       2.267   6.256  19.507  0.00  0.00    +0.000 A 
BRANCH  19  24
ATOM     24  O   UNL     1       5.030   1.450  19.904  0.00  0.00    +0.000 OA
ATOM     25  H   UNL     1       4.459   0.825  20.381  0.00  0.00    +0.000 HD
ENDBRANCH  19  24
ENDBRANCH   9  14
BRANCH   1  26
ATOM     26  C   UNL     1      -2.081  12.341  23.538  0.00  0.00    +0.000 C 
BRANCH  26  27
ATOM     27  N   UNL     1      -2.509  13.734  23.411  0.00  0.00    +0.000 NA
ATOM     28  H   UNL     1      -1.967  14.308  24.054  0.00  0.00    +0.000 HD
BRANCH  27  33
ATOM     29  C   UNL     1      -6.731  12.374  21.715  0.00  0.00    +0.000 C 
ATOM     30  C   UNL     1      -6.780  13.367  22.879  0.00  0.00    +0.000 C 
ATOM     31  C   UNL     1      -6.162  12.778  24.150  0.00  0.00    +0.000 C 
ATOM     32  C   UNL     1      -4.647  12.619  24.052  0.00  0.00    +0.000 C 
ATOM     33  C   UNL     1      -3.942  13.934  23.676  0.00  0.00    +0.000 C 
ATOM     34  C   UNL     1      -4.573  14.566  22.421  0.00  0.00    +0.000 C 
ATOM     35  C   UNL     1      -6.093  14.693  22.532  0.00  0.00    +0.000 C 
ENDBRANCH  27  33
ENDBRANCH  26  27
ENDBRANCH   1  26
TORSDOF 5
ENDMDL
MODEL 6
REMARK VINA RESULT:      -9.4      3.643      5.171
REMARK  Name = 
REMARK  6 active torsions:
REMARK  status: ('A' for Active; 'I' for Inactive)
REMARK    1  A    between atoms: C_1  and  C_2
REMARK    2  A    between atoms: C_5  and  N_6
REMARK    3  A    between atoms: N_6  and  C_7
REMARK    4  A    between atoms: C_7  and  C_8
REMARK    5  A    between atoms: C_16  and  C_17
REMARK    6  A    between atoms: C_22  and  O_23
REMARK                            x       y       z     vdW  Elec       q    Type
REMARK                         _______ _______ _______ _____ _____    ______ ____
ROOT
ATOM      1  C   UNL     1       2.518   5.841  18.508  0.00  0.00    +0.000 A 
ATOM      2  C   UNL     1       2.129   5.585  19.850  0.00  0.00    +0.000 A 
ATOM      3  C   UNL     1       1.653   6.601  20.687  0.00  0.00    +0.000 A 
ATOM      4  C   UNL     1       1.586   7.865  20.157  0.00  0.00    +0.000 A 
ATOM      5  C   UNL     1       1.976   8.154  18.823  0.00  0.00    +0.000 A 
ATOM      6  C   UNL     1       2.436   7.145  17.992  0.00  0.00    +0.000 A 
ATOM      7  C   UNL     1       1.823   9.638  18.449  0.00  0.00    +0.000 C 
ATOM      8  C   UNL     1       1.278  10.106  19.753  0.00  0.00    +0.000 A 
ATOM      9  C   UNL     1       0.842  11.281  20.394  0.00  0.00    +0.000 A 
ATOM     10  N   UNL     1       0.490  11.003  21.672  0.00  0.00    +0.000 NA
ATOM     11  N   UNL     1       0.686   9.664  21.813  0.00  0.00    +0.000 N 
ATOM     12  C   UNL     1       1.160   9.114  20.684  0.00  0.00    +0.000 A 
ATOM     13  H   UNL     1       0.477   9.233  22.705  0.00  0.00    +0.000 HD
ENDROOT
BRANCH   9  14
ATOM     14  C   UNL     1       0.776  12.632  19.840  0.00  0.00    +0.000 A 
ATOM     15  C   UNL     1      -0.407  13.373  19.906  0.00  0.00    +0.000 A 
ATOM     16  C   UNL     1      -0.453  14.682  19.417  0.00  0.00    +0.000 A 
ATOM     17  C   UNL     1       0.683  15.276  18.846  0.00  0.00    +0.000 A 
ATOM     18  C   UNL     1       0.661  16.592  18.357  0.00  0.00    +0.000 A 
ATOM     19  C   UNL     1       1.807  17.148  17.793  0.00  0.00    +0.000 A 
ATOM     20  C   UNL     1       2.983  16.417  17.700  0.00  0.00    +0.000 A 
ATOM     21  C   UNL     1       3.020  15.110  18.180  0.00  0.00    +0.000 A 
ATOM     22  C   UNL     1       1.879  14.529  18.757  0.00  0.00    +0.000 A 
ATOM     23  C   UNL     1       1.907  13.216  19.251  0.00  0.00    +0.000 A 
BRANCH  19  24
ATOM     24  O   UNL     1       1.818  18.425  17.314  0.00  0.00    +0.000 OA
ATOM     25  H   UNL     1       1.373  19.001  17.957  0.00  0.00    +0.000 HD
ENDBRANCH  19  24
ENDBRANCH   9  14
BRANCH   1  26
ATOM     26  C   UNL     1       2.986   4.700  17.628  0.00  0.00    +0.000 C 
BRANCH  26  27
ATOM     27  N   UNL     1       3.839   3.764  18.361  0.00  0.00    +0.000 NA
ATOM     28  H   UNL     1       3.592   3.793  19.348  0.00  0.00    +0.000 HD
BRANCH  27  33
ATOM     29  C   UNL     1       6.738   7.369  17.287  0.00  0.00    +0.000 C 
ATOM     30  C   UNL     1       7.426   6.023  17.532  0.00  0.00    +0.000 C 
ATOM     31  C   UNL     1       7.205   5.529  18.964  0.00  0.00    +0.000 C 
ATOM     32  C   UNL     1       5.764   5.097  19.224  0.00  0.00    +0.000 C 
ATOM     33  C   UNL     1       5.276   4.043  18.215  0.00  0.00    +0.000 C 
ATOM     34  C   UNL     1       5.524   4.502  16.766  0.00  0.00    +0.000 C 
ATOM     35  C   UNL     1       6.968   4.953  16.534  0.00  0.00    +0.000 C 
ENDBRANCH  27  33
ENDBRANCH  26  27
ENDBRANCH   1  26
TORSDOF 5
ENDMDL
MODEL 7
REMARK VINA RESULT:      -9.4      1.698      3.245
REMARK  Name = 
REMARK  6 active torsions:
REMARK  status: ('A' for Active; 'I' for Inactive)
REMARK    1  A    between atoms: C_1  and  C_2
REMARK    2  A    between atoms: C_5  and  N_6
REMARK    3  A    between atoms: N_6  and  C_7
REMARK    4  A    between atoms: C_7  and  C_8
REMARK    5  A    between atoms: C_16  and  C_17
REMARK    6  A    between atoms: C_22  and  O_23
REMARK                            x       y       z     vdW  Elec       q    Type
REMARK                         _______ _______ _______ _____ _____    ______ ____
ROOT
ATOM      1  C   UNL     1       2.656   5.973  19.371  0.00  0.00    +0.000 A 
ATOM      2  C   UNL     1       2.758   6.484  18.050  0.00  0.00    +0.000 A 
ATOM      3  C   UNL     1       2.337   7.778  17.724  0.00  0.00    +0.000 A 
ATOM      4  C   UNL     1       1.806   8.535  18.739  0.00  0.00    +0.000 A 
ATOM      5  C   UNL     1       1.681   8.048  20.067  0.00  0.00    +0.000 A 
ATOM      6  C   UNL     1       2.110   6.771  20.390  0.00  0.00    +0.000 A 
ATOM      7  C   UNL     1       1.052   9.066  21.034  0.00  0.00    +0.000 C 
ATOM      8  C   UNL     1       0.875  10.173  20.054  0.00  0.00    +0.000 A 
ATOM      9  C   UNL     1       0.381  11.489  19.972  0.00  0.00    +0.000 A 
ATOM     10  N   UNL     1       0.485  11.940  18.699  0.00  0.00    +0.000 NA
ATOM     11  N   UNL     1       1.058  10.920  18.005  0.00  0.00    +0.000 N 
ATOM     12  C   UNL     1       1.292   9.858  18.792  0.00  0.00    +0.000 A 
ATOM     13  H   UNL     1       1.237  11.045  17.016  0.00  0.00    +0.000 HD
ENDROOT
BRANCH   9  14
ATOM     14  C   UNL     1      -0.193  12.297  21.045  0.00  0.00    +0.000 A 
ATOM     15  C   UNL     1       0.406  13.500  21.432  0.00  0.00    +0.000 A 
ATOM     16  C   UNL     1      -0.172  14.294  22.427  0.00  0.00    +0.000 A 
ATOM     17  C   UNL     1      -1.360  13.900  23.061  0.00  0.00    +0.000 A 
ATOM     18  C   UNL     1      -1.963  14.687  24.056  0.00  0.00    +0.000 A 
ATOM     19  C   UNL     1      -3.141  14.261  24.665  0.00  0.00    +0.000 A 
ATOM     20  C   UNL     1      -3.736  13.060  24.308  0.00  0.00    +0.000 A 
ATOM     21  C   UNL     1      -3.150  12.268  23.323  0.00  0.00    +0.000 A 
ATOM     22  C   UNL     1      -1.965  12.677  22.690  0.00  0.00    +0.000 A 
ATOM     23  C   UNL     1      -1.370  11.891  21.691  0.00  0.00    +0.000 A 
BRANCH  19  24
ATOM     24  O   UNL     1      -3.751  15.006  25.631  0.00  0.00    +0.000 OA
ATOM     25  H   UNL     1      -4.712  14.884  25.556  0.00  0.00    +0.000 HD
ENDBRANCH  19  24
ENDBRANCH   9  14
BRANCH   1  26
ATOM     26  C   UNL     1       3.167   4.581  19.682  0.00  0.00    +0.000 C 
BRANCH  26  27
ATOM     27  N   UNL     1       3.792   3.958  18.516  0.00  0.00    +0.000 NA
ATOM     28  H   UNL     1       3.559   2.967  18.505  0.00  0.00    +0.000 HD
BRANCH  27  33
ATOM     29  C   UNL     1       7.072   7.202  17.392  0.00  0.00    +0.000 C 
ATOM     30  C   UNL     1       7.619   5.840  17.830  0.00  0.00    +0.000 C 
ATOM     31  C   UNL     1       7.229   5.513  19.274  0.00  0.00    +0.000 C 
ATOM     32  C   UNL     1       5.739   5.222  19.432  0.00  0.00    +0.000 C 
ATOM     33  C   UNL     1       5.255   4.110  18.485  0.00  0.00    +0.000 C 
ATOM     34  C   UNL     1       5.670   4.398  17.030  0.00  0.00    +0.000 C 
ATOM     35  C   UNL     1       7.161   4.712  16.898  0.00  0.00    +0.000 C 
ENDBRANCH  27  33
ENDBRANCH  26  27
ENDBRANCH   1  26
TORSDOF 5
ENDMDL
MODEL 8
REMARK VINA RESULT:      -9.4      1.819      3.396
REMARK  Name = 
REMARK  6 active torsions:
REMARK  status: ('A' for Active; 'I' for Inactive)
REMARK    1  A    between atoms: C_1  and  C_2
REMARK    2  A    between atoms: C_5  and  N_6
REMARK    3  A    between atoms: N_6  and  C_7
REMARK    4  A    between atoms: C_7  and  C_8
REMARK    5  A    between atoms: C_16  and  C_17
REMARK    6  A    between atoms: C_22  and  O_23
REMARK                            x       y       z     vdW  Elec       q    Type
REMARK                         _______ _______ _______ _____ _____    ______ ____
ROOT
ATOM      1  C   UNL     1       2.719   6.731  19.391  0.00  0.00    +0.000 A 
ATOM      2  C   UNL     1       2.918   7.397  18.154  0.00  0.00    +0.000 A 
ATOM      3  C   UNL     1       2.280   8.606  17.856  0.00  0.00    +0.000 A 
ATOM      4  C   UNL     1       1.440   9.121  18.812  0.00  0.00    +0.000 A 
ATOM      5  C   UNL     1       1.213   8.473  20.055  0.00  0.00    +0.000 A 
ATOM      6  C   UNL     1       1.855   7.281  20.352  0.00  0.00    +0.000 A 
ATOM      7  C   UNL     1       0.229   9.226  20.966  0.00  0.00    +0.000 C 
ATOM      8  C   UNL     1      -0.027  10.377  20.057  0.00  0.00    +0.000 A 
ATOM      9  C   UNL     1      -0.778  11.566  19.987  0.00  0.00    +0.000 A 
ATOM     10  N   UNL     1      -0.572  12.168  18.792  0.00  0.00    +0.000 NA
ATOM     11  N   UNL     1       0.314  11.372  18.138  0.00  0.00    +0.000 N 
ATOM     12  C   UNL     1       0.646  10.297  18.871  0.00  0.00    +0.000 A 
ATOM     13  H   UNL     1       0.618  11.640  17.209  0.00  0.00    +0.000 HD
ENDROOT
BRANCH   9  14
ATOM     14  C   UNL     1      -1.680  12.115  20.997  0.00  0.00    +0.000 A 
ATOM     15  C   UNL     1      -1.331  12.098  22.350  0.00  0.00    +0.000 A 
ATOM     16  C   UNL     1      -2.177  12.666  23.308  0.00  0.00    +0.000 A 
ATOM     17  C   UNL     1      -3.392  13.259  22.934  0.00  0.00    +0.000 A 
ATOM     18  C   UNL     1      -4.251  13.843  23.878  0.00  0.00    +0.000 A 
ATOM     19  C   UNL     1      -5.452  14.419  23.470  0.00  0.00    +0.000 A 
ATOM     20  C   UNL     1      -5.823  14.424  22.133  0.00  0.00    +0.000 A 
ATOM     21  C   UNL     1      -4.981  13.847  21.184  0.00  0.00    +0.000 A 
ATOM     22  C   UNL     1      -3.763  13.264  21.569  0.00  0.00    +0.000 A 
ATOM     23  C   UNL     1      -2.904  12.688  20.622  0.00  0.00    +0.000 A 
BRANCH  19  24
ATOM     24  O   UNL     1      -6.304  14.998  24.363  0.00  0.00    +0.000 OA
ATOM     25  H   UNL     1      -6.877  14.308  24.737  0.00  0.00    +0.000 HD
ENDBRANCH  19  24
ENDBRANCH   9  14
BRANCH   1  26
ATOM     26  C   UNL     1       3.466   5.445  19.684  0.00  0.00    +0.000 C 
BRANCH  26  27
ATOM     27  N   UNL     1       3.746   4.689  18.464  0.00  0.00    +0.000 NA
ATOM     28  H   UNL     1       3.422   3.732  18.585  0.00  0.00    +0.000 HD
BRANCH  27  33
ATOM     29  C   UNL     1       7.268   7.722  17.491  0.00  0.00    +0.000 C 
ATOM     30  C   UNL     1       7.626   6.238  17.368  0.00  0.00    +0.000 C 
ATOM     31  C   UNL     1       7.497   5.513  18.710  0.00  0.00    +0.000 C 
ATOM     32  C   UNL     1       6.046   5.360  19.161  0.00  0.00    +0.000 C 
ATOM     33  C   UNL     1       5.170   4.674  18.097  0.00  0.00    +0.000 C 
ATOM     34  C   UNL     1       5.315   5.363  16.728  0.00  0.00    +0.000 C 
ATOM     35  C   UNL     1       6.777   5.529  16.307  0.00  0.00    +0.000 C 
ENDBRANCH  27  33
ENDBRANCH  26  27
ENDBRANCH   1  26
TORSDOF 5
ENDMDL
MODEL 9
REMARK VINA RESULT:      -9.2      3.608     10.094
REMARK  Name = 
REMARK  6 active torsions:
REMARK  status: ('A' for Active; 'I' for Inactive)
REMARK    1  A    between atoms: C_1  and  C_2
REMARK    2  A    between atoms: C_5  and  N_6
REMARK    3  A    between atoms: N_6  and  C_7
REMARK    4  A    between atoms: C_7  and  C_8
REMARK    5  A    between atoms: C_16  and  C_17
REMARK    6  A    between atoms: C_22  and  O_23
REMARK                            x       y       z     vdW  Elec       q    Type
REMARK                         _______ _______ _______ _____ _____    ______ ____
ROOT
ATOM      1  C   UNL     1      -1.350  12.387  22.237  0.00  0.00    +0.000 A 
ATOM      2  C   UNL     1      -0.966  13.133  21.092  0.00  0.00    +0.000 A 
ATOM      3  C   UNL     1      -0.209  12.566  20.061  0.00  0.00    +0.000 A 
ATOM      4  C   UNL     1       0.160  11.252  20.207  0.00  0.00    +0.000 A 
ATOM      5  C   UNL     1      -0.200  10.482  21.346  0.00  0.00    +0.000 A 
ATOM      6  C   UNL     1      -0.960  11.043  22.359  0.00  0.00    +0.000 A 
ATOM      7  C   UNL     1       0.329   9.038  21.299  0.00  0.00    +0.000 C 
ATOM      8  C   UNL     1       1.002   9.127  19.974  0.00  0.00    +0.000 A 
ATOM      9  C   UNL     1       1.763   8.346  19.083  0.00  0.00    +0.000 A 
ATOM     10  N   UNL     1       2.119   9.091  18.009  0.00  0.00    +0.000 NA
ATOM     11  N   UNL     1       1.566  10.314  18.224  0.00  0.00    +0.000 N 
ATOM     12  C   UNL     1       0.903  10.358  19.391  0.00  0.00    +0.000 A 
ATOM     13  H   UNL     1       1.704  11.040  17.531  0.00  0.00    +0.000 HD
ENDROOT
BRANCH   9  14
ATOM     14  C   UNL     1       2.166   6.950  19.237  0.00  0.00    +0.000 A 
ATOM     15  C   UNL     1       1.943   6.271  20.438  0.00  0.00    +0.000 A 
ATOM     16  C   UNL     1       2.288   4.922  20.566  0.00  0.00    +0.000 A 
ATOM     17  C   UNL     1       2.869   4.224  19.496  0.00  0.00    +0.000 A 
ATOM     18  C   UNL     1       3.215   2.867  19.600  0.00  0.00    +0.000 A 
ATOM     19  C   UNL     1       3.794   2.208  18.518  0.00  0.00    +0.000 A 
ATOM     20  C   UNL     1       4.043   2.874  17.327  0.00  0.00    +0.000 A 
ATOM     21  C   UNL     1       3.706   4.220  17.209  0.00  0.00    +0.000 A 
ATOM     22  C   UNL     1       3.117   4.906  18.283  0.00  0.00    +0.000 A 
ATOM     23  C   UNL     1       2.766   6.261  18.173  0.00  0.00    +0.000 A 
BRANCH  19  24
ATOM     24  O   UNL     1       4.136   0.889  18.588  0.00  0.00    +0.000 OA
ATOM     25  H   UNL     1       4.327   0.667  19.514  0.00  0.00    +0.000 HD
ENDBRANCH  19  24
ENDBRANCH   9  14
BRANCH   1  26
ATOM     26  C   UNL     1      -2.206  13.033  23.306  0.00  0.00    +0.000 C 
BRANCH  26  27
ATOM     27  N   UNL     1      -3.408  12.248  23.588  0.00  0.00    +0.000 NA
ATOM     28  H   UNL     1      -3.431  11.442  22.967  0.00  0.00    +0.000 HD
BRANCH  27  33
ATOM     29  C   UNL     1      -7.911  11.593  22.230  0.00  0.00    +0.000 C 
ATOM     30  C   UNL     1      -7.540  13.031  22.604  0.00  0.00    +0.000 C 
ATOM     31  C   UNL     1      -7.119  13.142  24.072  0.00  0.00    +0.000 C 
ATOM     32  C   UNL     1      -5.772  12.480  24.352  0.00  0.00    +0.000 C 
ATOM     33  C   UNL     1      -4.656  13.011  23.435  0.00  0.00    +0.000 C 
ATOM     34  C   UNL     1      -5.072  12.946  21.954  0.00  0.00    +0.000 C 
ATOM     35  C   UNL     1      -6.435  13.593  21.701  0.00  0.00    +0.000 C 
ENDBRANCH  27  33
ENDBRANCH  26  27
ENDBRANCH   1  26
TORSDOF 5
ENDMDL
