MODEL 1
REMARK VINA RESULT:      -6.7      0.000      0.000
REMARK  Name = 
REMARK  7 active torsions:
REMARK  status: ('A' for Active; 'I' for Inactive)
REMARK    1  A    between atoms: C_1  and  N_2
REMARK    2  A    between atoms: N_2  and  C_3
REMARK    3  A    between atoms: N_2  and  C_4
REMARK    4  A    between atoms: N_2  and  C_5
REMARK    5  A    between atoms: C_5  and  C_6
REMARK    6  A    between atoms: C_6  and  C_7
REMARK    7  A    between atoms: C_8  and  C_9
REMARK                            x       y       z     vdW  Elec       q    Type
REMARK                         _______ _______ _______ _____ _____    ______ ____
ROOT
ATOM      1  C   UNL     1       9.298  10.464  18.805  0.00  0.00    +0.000 A 
ATOM      2  C   UNL     1       9.385  10.649  20.183  0.00  0.00    +0.000 A 
ATOM      3  C   UNL     1      10.033  11.782  20.690  0.00  0.00    +0.000 A 
ATOM      4  C   UNL     1      10.577  12.746  19.852  0.00  0.00    +0.000 A 
ATOM      5  N   UNL     1      11.139  13.844  20.382  0.00  0.00    +0.000 NA
ATOM      6  C   UNL     1      11.617  14.784  19.537  0.00  0.00    +0.000 A 
ATOM      7  C   UNL     1      11.579  14.674  18.160  0.00  0.00    +0.000 A 
ATOM      8  C   UNL     1      11.021  13.526  17.613  0.00  0.00    +0.000 A 
ATOM      9  C   UNL     1      10.494  12.542  18.458  0.00  0.00    +0.000 A 
ATOM     10  C   UNL     1       9.871  11.394  17.943  0.00  0.00    +0.000 A 
ENDROOT
BRANCH   1  12
ATOM     11  C   UNL     1       8.016   8.397  17.811  0.00  0.00    +0.000 C 
ATOM     12  C   UNL     1       8.590   9.347  18.269  0.00  0.00    +0.000 C 
BRANCH  11  13
ATOM     13  C   UNL     1       7.289   7.262  17.230  0.00  0.00    +0.000 C 
BRANCH  13  14
ATOM     14  C   UNL     1       6.965   6.201  18.291  0.00  0.00    +0.000 C 
BRANCH  14  16
ATOM     15  C   UNL     1       4.588   6.283  17.531  0.00  0.00    +0.000 C 
ATOM     16  N   UNL     1       5.718   5.342  17.960  0.00  0.00    +0.000 N 
ATOM     17  C   UNL     1       5.244   4.562  19.182  0.00  0.00    +0.000 C 
ATOM     18  C   UNL     1       5.997   4.381  16.810  0.00  0.00    +0.000 C 
ENDBRANCH  14  16
ENDBRANCH  13  14
ENDBRANCH  11  13
ENDBRANCH   1  12
TORSDOF 4
ENDMDL
MODEL 2
REMARK VINA RESULT:      -6.5      0.748      1.326
REMARK  Name = 
REMARK  7 active torsions:
REMARK  status: ('A' for Active; 'I' for Inactive)
REMARK    1  A    between atoms: C_1  and  N_2
REMARK    2  A    between atoms: N_2  and  C_3
REMARK    3  A    between atoms: N_2  and  C_4
REMARK    4  A    between atoms: N_2  and  C_5
REMARK    5  A    between atoms: C_5  and  C_6
REMARK    6  A    between atoms: C_6  and  C_7
REMARK    7  A    between atoms: C_8  and  C_9
REMARK                            x       y       z     vdW  Elec       q    Type
REMARK                         _______ _______ _______ _____ _____    ______ ____
ROOT
ATOM      1  C   UNL     1       9.332  10.381  18.835  0.00  0.00    +0.000 A 
ATOM      2  C   UNL     1       9.357  10.832  20.153  0.00  0.00    +0.000 A 
ATOM      3  C   UNL     1       9.908  12.086  20.445  0.00  0.00    +0.000 A 
ATOM      4  C   UNL     1      10.413  12.909  19.449  0.00  0.00    +0.000 A 
ATOM      5  N   UNL     1      10.879  14.127  19.769  0.00  0.00    +0.000 NA
ATOM      6  C   UNL     1      11.319  14.922  18.768  0.00  0.00    +0.000 A 
ATOM      7  C   UNL     1      11.338  14.549  17.437  0.00  0.00    +0.000 A 
ATOM      8  C   UNL     1      10.879  13.279  17.111  0.00  0.00    +0.000 A 
ATOM      9  C   UNL     1      10.393  12.438  18.118  0.00  0.00    +0.000 A 
ATOM     10  C   UNL     1       9.868  11.169  17.822  0.00  0.00    +0.000 A 
ENDROOT
BRANCH   1  12
ATOM     11  C   UNL     1       8.208   8.089  18.210  0.00  0.00    +0.000 C 
ATOM     12  C   UNL     1       8.721   9.133  18.510  0.00  0.00    +0.000 C 
BRANCH  11  13
ATOM     13  C   UNL     1       7.552   6.820  17.876  0.00  0.00    +0.000 C 
BRANCH  13  14
ATOM     14  C   UNL     1       6.176   7.052  17.235  0.00  0.00    +0.000 C 
BRANCH  14  16
ATOM     15  C   UNL     1       5.857   4.764  18.183  0.00  0.00    +0.000 C 
ATOM     16  N   UNL     1       5.276   5.790  17.206  0.00  0.00    +0.000 N 
ATOM     17  C   UNL     1       5.253   5.160  15.817  0.00  0.00    +0.000 C 
ATOM     18  C   UNL     1       3.854   6.114  17.650  0.00  0.00    +0.000 C 
ENDBRANCH  14  16
ENDBRANCH  13  14
ENDBRANCH  11  13
ENDBRANCH   1  12
TORSDOF 4
ENDMDL
MODEL 3
REMARK VINA RESULT:      -6.5      1.688      8.876
REMARK  Name = 
REMARK  7 active torsions:
REMARK  status: ('A' for Active; 'I' for Inactive)
REMARK    1  A    between atoms: C_1  and  N_2
REMARK    2  A    between atoms: N_2  and  C_3
REMARK    3  A    between atoms: N_2  and  C_4
REMARK    4  A    between atoms: N_2  and  C_5
REMARK    5  A    between atoms: C_5  and  C_6
REMARK    6  A    between atoms: C_6  and  C_7
REMARK    7  A    between atoms: C_8  and  C_9
REMARK                            x       y       z     vdW  Elec       q    Type
REMARK                         _______ _______ _______ _____ _____    ______ ____
ROOT
ATOM      1  C   UNL     1       6.654   6.744  17.547  0.00  0.00    +0.000 A 
ATOM      2  C   UNL     1       7.187   5.600  16.956  0.00  0.00    +0.000 A 
ATOM      3  C   UNL     1       6.368   4.483  16.748  0.00  0.00    +0.000 A 
ATOM      4  C   UNL     1       5.025   4.490  17.096  0.00  0.00    +0.000 A 
ATOM      5  N   UNL     1       4.265   3.416  16.825  0.00  0.00    +0.000 NA
ATOM      6  C   UNL     1       2.951   3.474  17.135  0.00  0.00    +0.000 A 
ATOM      7  C   UNL     1       2.345   4.565  17.731  0.00  0.00    +0.000 A 
ATOM      8  C   UNL     1       3.138   5.665  18.034  0.00  0.00    +0.000 A 
ATOM      9  C   UNL     1       4.498   5.649  17.705  0.00  0.00    +0.000 A 
ATOM     10  C   UNL     1       5.320   6.763  17.943  0.00  0.00    +0.000 A 
ENDROOT
BRANCH   1  12
ATOM     11  C   UNL     1       8.109   8.911  17.848  0.00  0.00    +0.000 C 
ATOM     12  C   UNL     1       7.456   7.913  17.713  0.00  0.00    +0.000 C 
BRANCH  11  13
ATOM     13  C   UNL     1       8.938  10.114  17.986  0.00  0.00    +0.000 C 
BRANCH  13  14
ATOM     14  C   UNL     1       9.384  10.324  19.440  0.00  0.00    +0.000 C 
BRANCH  14  16
ATOM     15  C   UNL     1       9.678  12.089  21.183  0.00  0.00    +0.000 C 
ATOM     16  N   UNL     1       9.968  11.732  19.721  0.00  0.00    +0.000 N 
ATOM     17  C   UNL     1       9.312  12.789  18.839  0.00  0.00    +0.000 C 
ATOM     18  C   UNL     1      11.479  11.755  19.519  0.00  0.00    +0.000 C 
ENDBRANCH  14  16
ENDBRANCH  13  14
ENDBRANCH  11  13
ENDBRANCH   1  12
TORSDOF 4
ENDMDL
MODEL 4
REMARK VINA RESULT:      -6.5      1.210      1.904
REMARK  Name = 
REMARK  7 active torsions:
REMARK  status: ('A' for Active; 'I' for Inactive)
REMARK    1  A    between atoms: C_1  and  N_2
REMARK    2  A    between atoms: N_2  and  C_3
REMARK    3  A    between atoms: N_2  and  C_4
REMARK    4  A    between atoms: N_2  and  C_5
REMARK    5  A    between atoms: C_5  and  C_6
REMARK    6  A    between atoms: C_6  and  C_7
REMARK    7  A    between atoms: C_8  and  C_9
REMARK                            x       y       z     vdW  Elec       q    Type
REMARK                         _______ _______ _______ _____ _____    ______ ____
ROOT
ATOM      1  C   UNL     1       8.768  10.337  18.175  0.00  0.00    +0.000 A 
ATOM      2  C   UNL     1       8.124  11.458  17.654  0.00  0.00    +0.000 A 
ATOM      3  C   UNL     1       8.692  12.726  17.829  0.00  0.00    +0.000 A 
ATOM      4  C   UNL     1       9.899  12.898  18.492  0.00  0.00    +0.000 A 
ATOM      5  N   UNL     1      10.434  14.126  18.586  0.00  0.00    +0.000 NA
ATOM      6  C   UNL     1      11.634  14.252  19.196  0.00  0.00    +0.000 A 
ATOM      7  C   UNL     1      12.333  13.195  19.747  0.00  0.00    +0.000 A 
ATOM      8  C   UNL     1      11.767  11.929  19.672  0.00  0.00    +0.000 A 
ATOM      9  C   UNL     1      10.537  11.758  19.026  0.00  0.00    +0.000 A 
ATOM     10  C   UNL     1       9.959  10.486  18.879  0.00  0.00    +0.000 A 
ENDROOT
BRANCH   1  12
ATOM     11  C   UNL     1       7.765   7.942  17.774  0.00  0.00    +0.000 C 
ATOM     12  C   UNL     1       8.236   9.031  17.956  0.00  0.00    +0.000 C 
BRANCH  11  13
ATOM     13  C   UNL     1       7.217   6.594  17.581  0.00  0.00    +0.000 C 
BRANCH  13  14
ATOM     14  C   UNL     1       5.771   6.645  17.068  0.00  0.00    +0.000 C 
BRANCH  14  16
ATOM     15  C   UNL     1       4.558   4.464  16.959  0.00  0.00    +0.000 C 
ATOM     16  N   UNL     1       4.802   5.703  17.828  0.00  0.00    +0.000 N 
ATOM     17  C   UNL     1       3.457   6.378  18.075  0.00  0.00    +0.000 C 
ATOM     18  C   UNL     1       5.401   5.243  19.152  0.00  0.00    +0.000 C 
ENDBRANCH  14  16
ENDBRANCH  13  14
ENDBRANCH  11  13
ENDBRANCH   1  12
TORSDOF 4
ENDMDL
MODEL 5
REMARK VINA RESULT:      -6.5      1.208      1.991
REMARK  Name = 
REMARK  7 active torsions:
REMARK  status: ('A' for Active; 'I' for Inactive)
REMARK    1  A    between atoms: C_1  and  N_2
REMARK    2  A    between atoms: N_2  and  C_3
REMARK    3  A    between atoms: N_2  and  C_4
REMARK    4  A    between atoms: N_2  and  C_5
REMARK    5  A    between atoms: C_5  and  C_6
REMARK    6  A    between atoms: C_6  and  C_7
REMARK    7  A    between atoms: C_8  and  C_9
REMARK                            x       y       z     vdW  Elec       q    Type
REMARK                         _______ _______ _______ _____ _____    ______ ____
ROOT
ATOM      1  C   UNL     1       8.738  10.283  18.114  0.00  0.00    +0.000 A 
ATOM      2  C   UNL     1       8.139  11.366  17.473  0.00  0.00    +0.000 A 
ATOM      3  C   UNL     1       8.705  12.641  17.593  0.00  0.00    +0.000 A 
ATOM      4  C   UNL     1       9.869  12.856  18.317  0.00  0.00    +0.000 A 
ATOM      5  N   UNL     1      10.408  14.085  18.356  0.00  0.00    +0.000 NA
ATOM      6  C   UNL     1      11.567  14.250  19.032  0.00  0.00    +0.000 A 
ATOM      7  C   UNL     1      12.221  13.233  19.702  0.00  0.00    +0.000 A 
ATOM      8  C   UNL     1      11.649  11.967  19.682  0.00  0.00    +0.000 A 
ATOM      9  C   UNL     1      10.462  11.754  18.972  0.00  0.00    +0.000 A 
ATOM     10  C   UNL     1       9.883  10.478  18.880  0.00  0.00    +0.000 A 
ENDROOT
BRANCH   1  12
ATOM     11  C   UNL     1       7.788   7.853  17.809  0.00  0.00    +0.000 C 
ATOM     12  C   UNL     1       8.210   8.967  17.955  0.00  0.00    +0.000 C 
BRANCH  11  13
ATOM     13  C   UNL     1       7.233   6.507  17.618  0.00  0.00    +0.000 C 
BRANCH  13  14
ATOM     14  C   UNL     1       5.760   6.563  17.189  0.00  0.00    +0.000 C 
BRANCH  14  16
ATOM     15  C   UNL     1       5.538   5.117  19.213  0.00  0.00    +0.000 C 
ATOM     16  N   UNL     1       4.859   5.521  17.900  0.00  0.00    +0.000 N 
ATOM     17  C   UNL     1       4.688   4.267  17.050  0.00  0.00    +0.000 C 
ATOM     18  C   UNL     1       3.492   6.109  18.235  0.00  0.00    +0.000 C 
ENDBRANCH  14  16
ENDBRANCH  13  14
ENDBRANCH  11  13
ENDBRANCH   1  12
TORSDOF 4
ENDMDL
MODEL 6
REMARK VINA RESULT:      -6.5      0.801      1.333
REMARK  Name = 
REMARK  7 active torsions:
REMARK  status: ('A' for Active; 'I' for Inactive)
REMARK    1  A    between atoms: C_1  and  N_2
REMARK    2  A    between atoms: N_2  and  C_3
REMARK    3  A    between atoms: N_2  and  C_4
REMARK    4  A    between atoms: N_2  and  C_5
REMARK    5  A    between atoms: C_5  and  C_6
REMARK    6  A    between atoms: C_6  and  C_7
REMARK    7  A    between atoms: C_8  and  C_9
REMARK                            x       y       z     vdW  Elec       q    Type
REMARK                         _______ _______ _______ _____ _____    ______ ____
ROOT
ATOM      1  C   UNL     1       9.641  11.059  18.734  0.00  0.00    +0.000 A 
ATOM      2  C   UNL     1       9.839  11.219  20.104  0.00  0.00    +0.000 A 
ATOM      3  C   UNL     1      10.540  12.335  20.576  0.00  0.00    +0.000 A 
ATOM      4  C   UNL     1      11.027  13.308  19.715  0.00  0.00    +0.000 A 
ATOM      5  N   UNL     1      11.643  14.390  20.217  0.00  0.00    +0.000 NA
ATOM      6  C   UNL     1      12.063  15.340  19.353  0.00  0.00    +0.000 A 
ATOM      7  C   UNL     1      11.915  15.256  17.981  0.00  0.00    +0.000 A 
ATOM      8  C   UNL     1      11.301  14.124  17.461  0.00  0.00    +0.000 A 
ATOM      9  C   UNL     1      10.831  13.131  18.328  0.00  0.00    +0.000 A 
ATOM     10  C   UNL     1      10.155  11.999  17.845  0.00  0.00    +0.000 A 
ENDROOT
BRANCH   1  12
ATOM     11  C   UNL     1       8.215   9.048  17.826  0.00  0.00    +0.000 C 
ATOM     12  C   UNL     1       8.879   9.960  18.237  0.00  0.00    +0.000 C 
BRANCH  11  13
ATOM     13  C   UNL     1       7.431   7.905  17.344  0.00  0.00    +0.000 C 
BRANCH  13  14
ATOM     14  C   UNL     1       7.551   6.703  18.291  0.00  0.00    +0.000 C 
BRANCH  14  16
ATOM     15  C   UNL     1       7.331   4.429  17.282  0.00  0.00    +0.000 C 
ATOM     16  N   UNL     1       6.558   5.554  17.977  0.00  0.00    +0.000 N 
ATOM     17  C   UNL     1       5.454   6.020  17.035  0.00  0.00    +0.000 C 
ATOM     18  C   UNL     1       5.945   4.989  19.254  0.00  0.00    +0.000 C 
ENDBRANCH  14  16
ENDBRANCH  13  14
ENDBRANCH  11  13
ENDBRANCH   1  12
TORSDOF 4
ENDMDL
MODEL 7
REMARK VINA RESULT:      -6.4      1.413      8.426
REMARK  Name = 
REMARK  7 active torsions:
REMARK  status: ('A' for Active; 'I' for Inactive)
REMARK    1  A    between atoms: C_1  and  N_2
REMARK    2  A    between atoms: N_2  and  C_3
REMARK    3  A    between atoms: N_2  and  C_4
REMARK    4  A    between atoms: N_2  and  C_5
REMARK    5  A    between atoms: C_5  and  C_6
REMARK    6  A    between atoms: C_6  and  C_7
REMARK    7  A    between atoms: C_8  and  C_9
REMARK                            x       y       z     vdW  Elec       q    Type
REMARK                         _______ _______ _______ _____ _____    ______ ____
ROOT
ATOM      1  C   UNL     1       7.858   7.684  18.140  0.00  0.00    +0.000 A 
ATOM      2  C   UNL     1       8.181   6.550  18.882  0.00  0.00    +0.000 A 
ATOM      3  C   UNL     1       7.601   5.318  18.551  0.00  0.00    +0.000 A 
ATOM      4  C   UNL     1       6.725   5.189  17.482  0.00  0.00    +0.000 A 
ATOM      5  N   UNL     1       6.239   3.978  17.167  0.00  0.00    +0.000 NA
ATOM      6  C   UNL     1       5.426   3.880  16.092  0.00  0.00    +0.000 A 
ATOM      7  C   UNL     1       5.049   4.956  15.309  0.00  0.00    +0.000 A 
ATOM      8  C   UNL     1       5.532   6.212  15.652  0.00  0.00    +0.000 A 
ATOM      9  C   UNL     1       6.396   6.347  16.745  0.00  0.00    +0.000 A 
ATOM     10  C   UNL     1       6.951   7.591  17.089  0.00  0.00    +0.000 A 
ENDROOT
BRANCH   1  12
ATOM     11  C   UNL     1       9.030   9.979  18.650  0.00  0.00    +0.000 C 
ATOM     12  C   UNL     1       8.483   8.935  18.424  0.00  0.00    +0.000 C 
BRANCH  11  13
ATOM     13  C   UNL     1       9.685  11.254  18.969  0.00  0.00    +0.000 C 
BRANCH  13  14
ATOM     14  C   UNL     1       9.936  12.087  17.703  0.00  0.00    +0.000 C 
BRANCH  14  16
ATOM     15  C   UNL     1      11.380  13.348  19.304  0.00  0.00    +0.000 C 
ATOM     16  N   UNL     1      10.625  13.449  17.974  0.00  0.00    +0.000 N 
ATOM     17  C   UNL     1       9.600  14.571  18.098  0.00  0.00    +0.000 C 
ATOM     18  C   UNL     1      11.633  13.787  16.881  0.00  0.00    +0.000 C 
ENDBRANCH  14  16
ENDBRANCH  13  14
ENDBRANCH  11  13
ENDBRANCH   1  12
TORSDOF 4
ENDMDL
MODEL 8
REMARK VINA RESULT:      -6.4      1.780      8.950
REMARK  Name = 
REMARK  7 active torsions:
REMARK  status: ('A' for Active; 'I' for Inactive)
REMARK    1  A    between atoms: C_1  and  N_2
REMARK    2  A    between atoms: N_2  and  C_3
REMARK    3  A    between atoms: N_2  and  C_4
REMARK    4  A    between atoms: N_2  and  C_5
REMARK    5  A    between atoms: C_5  and  C_6
REMARK    6  A    between atoms: C_6  and  C_7
REMARK    7  A    between atoms: C_8  and  C_9
REMARK                            x       y       z     vdW  Elec       q    Type
REMARK                         _______ _______ _______ _____ _____    ______ ____
ROOT
ATOM      1  C   UNL     1       6.585   6.675  17.445  0.00  0.00    +0.000 A 
ATOM      2  C   UNL     1       6.047   6.383  16.194  0.00  0.00    +0.000 A 
ATOM      3  C   UNL     1       5.205   5.274  16.045  0.00  0.00    +0.000 A 
ATOM      4  C   UNL     1       4.869   4.464  17.120  0.00  0.00    +0.000 A 
ATOM      5  N   UNL     1       4.012   3.446  16.941  0.00  0.00    +0.000 NA
ATOM      6  C   UNL     1       3.670   2.707  18.019  0.00  0.00    +0.000 A 
ATOM      7  C   UNL     1       4.165   2.923  19.292  0.00  0.00    +0.000 A 
ATOM      8  C   UNL     1       5.071   3.960  19.471  0.00  0.00    +0.000 A 
ATOM      9  C   UNL     1       5.429   4.762  18.381  0.00  0.00    +0.000 A 
ATOM     10  C   UNL     1       6.298   5.856  18.533  0.00  0.00    +0.000 A 
ENDROOT
BRANCH   1  12
ATOM     11  C   UNL     1       8.076   8.807  17.813  0.00  0.00    +0.000 C 
ATOM     12  C   UNL     1       7.397   7.834  17.631  0.00  0.00    +0.000 C 
BRANCH  11  13
ATOM     13  C   UNL     1       8.885  10.017  18.004  0.00  0.00    +0.000 C 
BRANCH  13  14
ATOM     14  C   UNL     1       9.226  10.236  19.485  0.00  0.00    +0.000 C 
BRANCH  14  16
ATOM     15  C   UNL     1       9.171  12.676  18.958  0.00  0.00    +0.000 C 
ATOM     16  N   UNL     1       9.892  11.604  19.781  0.00  0.00    +0.000 N 
ATOM     17  C   UNL     1      11.361  11.603  19.372  0.00  0.00    +0.000 C 
ATOM     18  C   UNL     1       9.766  11.974  21.255  0.00  0.00    +0.000 C 
ENDBRANCH  14  16
ENDBRANCH  13  14
ENDBRANCH  11  13
ENDBRANCH   1  12
TORSDOF 4
ENDMDL
MODEL 9
REMARK VINA RESULT:      -6.3      1.726      8.224
REMARK  Name = 
REMARK  7 active torsions:
REMARK  status: ('A' for Active; 'I' for Inactive)
REMARK    1  A    between atoms: C_1  and  N_2
REMARK    2  A    between atoms: N_2  and  C_3
REMARK    3  A    between atoms: N_2  and  C_4
REMARK    4  A    between atoms: N_2  and  C_5
REMARK    5  A    between atoms: C_5  and  C_6
REMARK    6  A    between atoms: C_6  and  C_7
REMARK    7  A    between atoms: C_8  and  C_9
REMARK                            x       y       z     vdW  Elec       q    Type
REMARK                         _______ _______ _______ _____ _____    ______ ____
ROOT
ATOM      1  C   UNL     1       7.848   7.854  18.079  0.00  0.00    +0.000 A 
ATOM      2  C   UNL     1       8.228   6.775  18.874  0.00  0.00    +0.000 A 
ATOM      3  C   UNL     1       7.654   5.517  18.654  0.00  0.00    +0.000 A 
ATOM      4  C   UNL     1       6.725   5.306  17.645  0.00  0.00    +0.000 A 
ATOM      5  N   UNL     1       6.243   4.071  17.435  0.00  0.00    +0.000 NA
ATOM      6  C   UNL     1       5.376   3.892  16.413  0.00  0.00    +0.000 A 
ATOM      7  C   UNL     1       4.940   4.909  15.584  0.00  0.00    +0.000 A 
ATOM      8  C   UNL     1       5.420   6.191  15.819  0.00  0.00    +0.000 A 
ATOM      9  C   UNL     1       6.338   6.409  16.853  0.00  0.00    +0.000 A 
ATOM     10  C   UNL     1       6.888   7.680  17.086  0.00  0.00    +0.000 A 
ENDROOT
BRANCH   1  12
ATOM     11  C   UNL     1       8.994  10.195  18.412  0.00  0.00    +0.000 C 
ATOM     12  C   UNL     1       8.465   9.129  18.247  0.00  0.00    +0.000 C 
BRANCH  11  13
ATOM     13  C   UNL     1       9.603  11.517  18.601  0.00  0.00    +0.000 C 
BRANCH  13  14
ATOM     14  C   UNL     1       9.001  12.554  17.641  0.00  0.00    +0.000 C 
BRANCH  14  16
ATOM     15  C   UNL     1       9.617  14.955  17.941  0.00  0.00    +0.000 C 
ATOM     16  N   UNL     1       8.594  13.883  18.328  0.00  0.00    +0.000 N 
ATOM     17  C   UNL     1       8.604  13.746  19.846  0.00  0.00    +0.000 C 
ATOM     18  C   UNL     1       7.220  14.349  17.860  0.00  0.00    +0.000 C 
ENDBRANCH  14  16
ENDBRANCH  13  14
ENDBRANCH  11  13
ENDBRANCH   1  12
TORSDOF 4
ENDMDL
