MODEL 1
REMARK VINA RESULT:      -7.6      0.000      0.000
REMARK  Name = 
REMARK  5 active torsions:
REMARK  status: ('A' for Active; 'I' for Inactive)
REMARK    1  A    between atoms: C_1  and  C_2
REMARK    2  A    between atoms: C_5  and  N_6
REMARK    3  A    between atoms: C_7  and  P_8
REMARK    4  A    between atoms: P_8  and  C_9
REMARK    5  A    between atoms: P_8  and  O_11
REMARK                            x       y       z     vdW  Elec       q    Type
REMARK                         _______ _______ _______ _____ _____    ______ ____
ROOT
ATOM      1  N   UNL     1       5.549   4.273  16.210  0.00  0.00    +0.000 N 
ATOM      2  C   UNL     1       6.649   4.947  16.752  0.00  0.00    +0.000 A 
ATOM      3  N   UNL     1       7.590   5.086  15.820  0.00  0.00    +0.000 NA
ATOM      4  C   UNL     1       7.059   4.631  14.650  0.00  0.00    +0.000 A 
ATOM      5  C   UNL     1       7.611   4.667  13.360  0.00  0.00    +0.000 A 
ATOM      6  C   UNL     1       6.839   4.228  12.279  0.00  0.00    +0.000 A 
ATOM      7  C   UNL     1       5.548   3.748  12.481  0.00  0.00    +0.000 A 
ATOM      8  C   UNL     1       4.995   3.685  13.765  0.00  0.00    +0.000 A 
ATOM      9  C   UNL     1       5.783   4.124  14.846  0.00  0.00    +0.000 A 
ENDROOT
BRANCH   1  14
ATOM     10  C   UNL     1       0.798   2.597  18.952  0.00  0.00    +0.000 C 
ATOM     11  C   UNL     1       2.049   3.031  18.251  0.00  0.00    +0.000 A 
ATOM     12  C   UNL     1       3.077   2.123  17.987  0.00  0.00    +0.000 A 
ATOM     13  C   UNL     1       4.238   2.530  17.327  0.00  0.00    +0.000 A 
ATOM     14  C   UNL     1       4.382   3.853  16.907  0.00  0.00    +0.000 A 
ATOM     15  C   UNL     1       3.356   4.772  17.178  0.00  0.00    +0.000 A 
ATOM     16  C   UNL     1       2.204   4.364  17.855  0.00  0.00    +0.000 A 
ENDBRANCH   1  14
BRANCH   2  17
ATOM     17  P   UNL     1       7.019   5.622  18.347  0.00  0.00    +0.000 P 
ATOM     18  C   UNL     1       7.753   7.234  18.125  0.00  0.00    +0.000 C 
ATOM     19  O   UNL     1       5.850   5.629  19.290  0.00  0.00    +0.000 OA
BRANCH  17  20
ATOM     20  O   UNL     1       8.238   4.804  19.027  0.00  0.00    +0.000 OA
ATOM     21  H   UNL     1       7.921   4.136  19.662  0.00  0.00    +0.000 HD
ENDBRANCH  17  20
ENDBRANCH   2  17
TORSDOF 3
ENDMDL
MODEL 2
REMARK VINA RESULT:      -7.6      0.048      1.079
REMARK  Name = 
REMARK  5 active torsions:
REMARK  status: ('A' for Active; 'I' for Inactive)
REMARK    1  A    between atoms: C_1  and  C_2
REMARK    2  A    between atoms: C_5  and  N_6
REMARK    3  A    between atoms: C_7  and  P_8
REMARK    4  A    between atoms: P_8  and  C_9
REMARK    5  A    between atoms: P_8  and  O_11
REMARK                            x       y       z     vdW  Elec       q    Type
REMARK                         _______ _______ _______ _____ _____    ______ ____
ROOT
ATOM      1  N   UNL     1       5.530   4.281  16.207  0.00  0.00    +0.000 N 
ATOM      2  C   UNL     1       6.642   4.936  16.750  0.00  0.00    +0.000 A 
ATOM      3  N   UNL     1       7.587   5.057  15.820  0.00  0.00    +0.000 NA
ATOM      4  C   UNL     1       7.050   4.612  14.649  0.00  0.00    +0.000 A 
ATOM      5  C   UNL     1       7.603   4.638  13.360  0.00  0.00    +0.000 A 
ATOM      6  C   UNL     1       6.825   4.212  12.278  0.00  0.00    +0.000 A 
ATOM      7  C   UNL     1       5.526   3.755  12.478  0.00  0.00    +0.000 A 
ATOM      8  C   UNL     1       4.970   3.703  13.762  0.00  0.00    +0.000 A 
ATOM      9  C   UNL     1       5.764   4.128  14.843  0.00  0.00    +0.000 A 
ENDROOT
BRANCH   1  14
ATOM     10  C   UNL     1       0.839   2.654  19.078  0.00  0.00    +0.000 C 
ATOM     11  C   UNL     1       2.054   3.083  18.314  0.00  0.00    +0.000 A 
ATOM     12  C   UNL     1       2.214   4.409  17.903  0.00  0.00    +0.000 A 
ATOM     13  C   UNL     1       3.351   4.805  17.196  0.00  0.00    +0.000 A 
ATOM     14  C   UNL     1       4.355   3.882  16.902  0.00  0.00    +0.000 A 
ATOM     15  C   UNL     1       4.195   2.547  17.305  0.00  0.00    +0.000 A 
ATOM     16  C   UNL     1       3.047   2.151  17.995  0.00  0.00    +0.000 A 
ENDBRANCH   1  14
BRANCH   2  17
ATOM     17  P   UNL     1       7.021   5.604  18.346  0.00  0.00    +0.000 P 
ATOM     18  C   UNL     1       7.747   7.219  18.126  0.00  0.00    +0.000 C 
ATOM     19  O   UNL     1       5.860   5.602  19.298  0.00  0.00    +0.000 OA
BRANCH  17  20
ATOM     20  O   UNL     1       8.249   4.787  19.012  0.00  0.00    +0.000 OA
ATOM     21  H   UNL     1       8.182   3.829  18.848  0.00  0.00    +0.000 HD
ENDBRANCH  17  20
ENDBRANCH   2  17
TORSDOF 3
ENDMDL
MODEL 3
REMARK VINA RESULT:      -7.4      3.376      6.419
REMARK  Name = 
REMARK  5 active torsions:
REMARK  status: ('A' for Active; 'I' for Inactive)
REMARK    1  A    between atoms: C_1  and  C_2
REMARK    2  A    between atoms: C_5  and  N_6
REMARK    3  A    between atoms: C_7  and  P_8
REMARK    4  A    between atoms: P_8  and  C_9
REMARK    5  A    between atoms: P_8  and  O_11
REMARK                            x       y       z     vdW  Elec       q    Type
REMARK                         _______ _______ _______ _____ _____    ______ ____
ROOT
ATOM      1  N   UNL     1       3.344   5.593  18.989  0.00  0.00    +0.000 N 
ATOM      2  C   UNL     1       2.957   4.702  19.997  0.00  0.00    +0.000 A 
ATOM      3  N   UNL     1       2.196   5.337  20.886  0.00  0.00    +0.000 NA
ATOM      4  C   UNL     1       1.975   6.588  20.395  0.00  0.00    +0.000 A 
ATOM      5  C   UNL     1       1.145   7.600  20.904  0.00  0.00    +0.000 A 
ATOM      6  C   UNL     1       0.992   8.783  20.174  0.00  0.00    +0.000 A 
ATOM      7  C   UNL     1       1.665   8.963  18.969  0.00  0.00    +0.000 A 
ATOM      8  C   UNL     1       2.513   7.972  18.463  0.00  0.00    +0.000 A 
ATOM      9  C   UNL     1       2.664   6.788  19.208  0.00  0.00    +0.000 A 
ENDROOT
BRANCH   1  14
ATOM     10  C   UNL     1       6.861   4.529  14.584  0.00  0.00    +0.000 C 
ATOM     11  C   UNL     1       5.955   4.801  15.746  0.00  0.00    +0.000 A 
ATOM     12  C   UNL     1       6.258   5.800  16.675  0.00  0.00    +0.000 A 
ATOM     13  C   UNL     1       5.408   6.055  17.753  0.00  0.00    +0.000 A 
ATOM     14  C   UNL     1       4.231   5.323  17.909  0.00  0.00    +0.000 A 
ATOM     15  C   UNL     1       3.926   4.311  16.985  0.00  0.00    +0.000 A 
ATOM     16  C   UNL     1       4.789   4.047  15.919  0.00  0.00    +0.000 A 
ENDBRANCH   1  14
BRANCH   2  17
ATOM     17  P   UNL     1       3.261   2.984  20.307  0.00  0.00    +0.000 P 
ATOM     18  C   UNL     1       2.085   2.022  19.371  0.00  0.00    +0.000 C 
ATOM     19  O   UNL     1       4.685   2.567  20.076  0.00  0.00    +0.000 OA
BRANCH  17  20
ATOM     20  O   UNL     1       2.845   2.613  21.826  0.00  0.00    +0.000 OA
ATOM     21  H   UNL     1       2.400   3.355  22.275  0.00  0.00    +0.000 HD
ENDBRANCH  17  20
ENDBRANCH   2  17
TORSDOF 3
ENDMDL
MODEL 4
REMARK VINA RESULT:      -7.4      3.391      6.395
REMARK  Name = 
REMARK  5 active torsions:
REMARK  status: ('A' for Active; 'I' for Inactive)
REMARK    1  A    between atoms: C_1  and  C_2
REMARK    2  A    between atoms: C_5  and  N_6
REMARK    3  A    between atoms: C_7  and  P_8
REMARK    4  A    between atoms: P_8  and  C_9
REMARK    5  A    between atoms: P_8  and  O_11
REMARK                            x       y       z     vdW  Elec       q    Type
REMARK                         _______ _______ _______ _____ _____    ______ ____
ROOT
ATOM      1  N   UNL     1       3.298   5.606  18.987  0.00  0.00    +0.000 N 
ATOM      2  C   UNL     1       2.933   4.712  20.000  0.00  0.00    +0.000 A 
ATOM      3  N   UNL     1       2.188   5.345  20.905  0.00  0.00    +0.000 NA
ATOM      4  C   UNL     1       1.956   6.597  20.421  0.00  0.00    +0.000 A 
ATOM      5  C   UNL     1       1.135   7.607  20.948  0.00  0.00    +0.000 A 
ATOM      6  C   UNL     1       0.967   8.792  20.224  0.00  0.00    +0.000 A 
ATOM      7  C   UNL     1       1.616   8.975  19.007  0.00  0.00    +0.000 A 
ATOM      8  C   UNL     1       2.455   7.986  18.482  0.00  0.00    +0.000 A 
ATOM      9  C   UNL     1       2.622   6.800  19.221  0.00  0.00    +0.000 A 
ENDROOT
BRANCH   1  14
ATOM     10  C   UNL     1       6.854   4.512  14.621  0.00  0.00    +0.000 C 
ATOM     11  C   UNL     1       5.912   4.802  15.750  0.00  0.00    +0.000 A 
ATOM     12  C   UNL     1       4.764   4.030  15.944  0.00  0.00    +0.000 A 
ATOM     13  C   UNL     1       3.892   4.300  17.001  0.00  0.00    +0.000 A 
ATOM     14  C   UNL     1       4.165   5.339  17.890  0.00  0.00    +0.000 A 
ATOM     15  C   UNL     1       5.312   6.125  17.694  0.00  0.00    +0.000 A 
ATOM     16  C   UNL     1       6.171   5.863  16.624  0.00  0.00    +0.000 A 
ENDBRANCH   1  14
BRANCH   2  17
ATOM     17  P   UNL     1       3.244   2.994  20.301  0.00  0.00    +0.000 P 
ATOM     18  C   UNL     1       2.057   2.033  19.378  0.00  0.00    +0.000 C 
ATOM     19  O   UNL     1       4.665   2.581  20.048  0.00  0.00    +0.000 OA
BRANCH  17  20
ATOM     20  O   UNL     1       2.849   2.618  21.824  0.00  0.00    +0.000 OA
ATOM     21  H   UNL     1       1.917   2.345  21.904  0.00  0.00    +0.000 HD
ENDBRANCH  17  20
ENDBRANCH   2  17
TORSDOF 3
ENDMDL
MODEL 5
REMARK VINA RESULT:      -7.4      1.673      5.058
REMARK  Name = 
REMARK  5 active torsions:
REMARK  status: ('A' for Active; 'I' for Inactive)
REMARK    1  A    between atoms: C_1  and  C_2
REMARK    2  A    between atoms: C_5  and  N_6
REMARK    3  A    between atoms: C_7  and  P_8
REMARK    4  A    between atoms: P_8  and  C_9
REMARK    5  A    between atoms: P_8  and  O_11
REMARK                            x       y       z     vdW  Elec       q    Type
REMARK                         _______ _______ _______ _____ _____    ______ ____
ROOT
ATOM      1  N   UNL     1       4.804   4.759  17.698  0.00  0.00    +0.000 N 
ATOM      2  C   UNL     1       5.588   5.160  18.786  0.00  0.00    +0.000 A 
ATOM      3  N   UNL     1       4.816   5.311  19.860  0.00  0.00    +0.000 NA
ATOM      4  C   UNL     1       3.568   4.885  19.515  0.00  0.00    +0.000 A 
ATOM      5  C   UNL     1       2.431   4.740  20.325  0.00  0.00    +0.000 A 
ATOM      6  C   UNL     1       1.272   4.185  19.774  0.00  0.00    +0.000 A 
ATOM      7  C   UNL     1       1.239   3.796  18.438  0.00  0.00    +0.000 A 
ATOM      8  C   UNL     1       2.359   3.957  17.614  0.00  0.00    +0.000 A 
ATOM      9  C   UNL     1       3.518   4.522  18.177  0.00  0.00    +0.000 A 
ENDROOT
BRANCH   1  14
ATOM     10  C   UNL     1       6.632   4.090  12.302  0.00  0.00    +0.000 C 
ATOM     11  C   UNL     1       6.139   4.255  13.708  0.00  0.00    +0.000 A 
ATOM     12  C   UNL     1       6.016   3.155  14.560  0.00  0.00    +0.000 A 
ATOM     13  C   UNL     1       5.563   3.314  15.872  0.00  0.00    +0.000 A 
ATOM     14  C   UNL     1       5.240   4.582  16.355  0.00  0.00    +0.000 A 
ATOM     15  C   UNL     1       5.352   5.690  15.500  0.00  0.00    +0.000 A 
ATOM     16  C   UNL     1       5.788   5.523  14.183  0.00  0.00    +0.000 A 
ENDBRANCH   1  14
BRANCH   2  17
ATOM     17  P   UNL     1       7.315   5.484  19.008  0.00  0.00    +0.000 P 
ATOM     18  C   UNL     1       7.721   6.999  18.157  0.00  0.00    +0.000 C 
ATOM     19  O   UNL     1       7.756   5.475  20.444  0.00  0.00    +0.000 OA
BRANCH  17  20
ATOM     20  O   UNL     1       8.192   4.405  18.182  0.00  0.00    +0.000 OA
ATOM     21  H   UNL     1       7.639   3.702  17.796  0.00  0.00    +0.000 HD
ENDBRANCH  17  20
ENDBRANCH   2  17
TORSDOF 3
ENDMDL
MODEL 6
REMARK VINA RESULT:      -7.4      1.673      5.155
REMARK  Name = 
REMARK  5 active torsions:
REMARK  status: ('A' for Active; 'I' for Inactive)
REMARK    1  A    between atoms: C_1  and  C_2
REMARK    2  A    between atoms: C_5  and  N_6
REMARK    3  A    between atoms: C_7  and  P_8
REMARK    4  A    between atoms: P_8  and  C_9
REMARK    5  A    between atoms: P_8  and  O_11
REMARK                            x       y       z     vdW  Elec       q    Type
REMARK                         _______ _______ _______ _____ _____    ______ ____
ROOT
ATOM      1  N   UNL     1       4.825   4.775  17.692  0.00  0.00    +0.000 N 
ATOM      2  C   UNL     1       5.603   5.169  18.787  0.00  0.00    +0.000 A 
ATOM      3  N   UNL     1       4.824   5.317  19.857  0.00  0.00    +0.000 NA
ATOM      4  C   UNL     1       3.579   4.894  19.502  0.00  0.00    +0.000 A 
ATOM      5  C   UNL     1       2.436   4.747  20.304  0.00  0.00    +0.000 A 
ATOM      6  C   UNL     1       1.279   4.197  19.743  0.00  0.00    +0.000 A 
ATOM      7  C   UNL     1       1.255   3.815  18.405  0.00  0.00    +0.000 A 
ATOM      8  C   UNL     1       2.380   3.978  17.588  0.00  0.00    +0.000 A 
ATOM      9  C   UNL     1       3.537   4.538  18.162  0.00  0.00    +0.000 A 
ENDROOT
BRANCH   1  14
ATOM     10  C   UNL     1       6.550   4.033  12.272  0.00  0.00    +0.000 C 
ATOM     11  C   UNL     1       6.114   4.237  13.691  0.00  0.00    +0.000 A 
ATOM     12  C   UNL     1       5.775   5.508  14.164  0.00  0.00    +0.000 A 
ATOM     13  C   UNL     1       5.364   5.692  15.485  0.00  0.00    +0.000 A 
ATOM     14  C   UNL     1       5.270   4.603  16.351  0.00  0.00    +0.000 A 
ATOM     15  C   UNL     1       5.618   3.325  15.885  0.00  0.00    +0.000 A 
ATOM     16  C   UNL     1       6.047   3.148  14.567  0.00  0.00    +0.000 A 
ENDBRANCH   1  14
BRANCH   2  17
ATOM     17  P   UNL     1       7.330   5.489  19.022  0.00  0.00    +0.000 P 
ATOM     18  C   UNL     1       7.746   7.003  18.173  0.00  0.00    +0.000 C 
ATOM     19  O   UNL     1       7.760   5.480  20.461  0.00  0.00    +0.000 OA
BRANCH  17  20
ATOM     20  O   UNL     1       8.210   4.408  18.203  0.00  0.00    +0.000 OA
ATOM     21  H   UNL     1       7.765   3.542  18.143  0.00  0.00    +0.000 HD
ENDBRANCH  17  20
ENDBRANCH   2  17
TORSDOF 3
ENDMDL
MODEL 7
REMARK VINA RESULT:      -7.3      3.114      6.101
REMARK  Name = 
REMARK  5 active torsions:
REMARK  status: ('A' for Active; 'I' for Inactive)
REMARK    1  A    between atoms: C_1  and  C_2
REMARK    2  A    between atoms: C_5  and  N_6
REMARK    3  A    between atoms: C_7  and  P_8
REMARK    4  A    between atoms: P_8  and  C_9
REMARK    5  A    between atoms: P_8  and  O_11
REMARK                            x       y       z     vdW  Elec       q    Type
REMARK                         _______ _______ _______ _____ _____    ______ ____
ROOT
ATOM      1  N   UNL     1       3.747   5.614  18.377  0.00  0.00    +0.000 N 
ATOM      2  C   UNL     1       3.347   4.694  19.353  0.00  0.00    +0.000 A 
ATOM      3  N   UNL     1       2.565   5.301  20.244  0.00  0.00    +0.000 NA
ATOM      4  C   UNL     1       2.346   6.564  19.783  0.00  0.00    +0.000 A 
ATOM      5  C   UNL     1       1.500   7.557  20.303  0.00  0.00    +0.000 A 
ATOM      6  C   UNL     1       1.354   8.759  19.603  0.00  0.00    +0.000 A 
ATOM      7  C   UNL     1       2.049   8.975  18.416  0.00  0.00    +0.000 A 
ATOM      8  C   UNL     1       2.912   8.002  17.899  0.00  0.00    +0.000 A 
ATOM      9  C   UNL     1       3.056   6.799  18.615  0.00  0.00    +0.000 A 
ENDROOT
BRANCH   1  14
ATOM     10  C   UNL     1       7.356   4.698  14.014  0.00  0.00    +0.000 C 
ATOM     11  C   UNL     1       6.425   4.929  15.165  0.00  0.00    +0.000 A 
ATOM     12  C   UNL     1       6.771   5.794  16.207  0.00  0.00    +0.000 A 
ATOM     13  C   UNL     1       5.898   6.012  17.274  0.00  0.00    +0.000 A 
ATOM     14  C   UNL     1       4.656   5.378  17.308  0.00  0.00    +0.000 A 
ATOM     15  C   UNL     1       4.307   4.501  16.269  0.00  0.00    +0.000 A 
ATOM     16  C   UNL     1       5.192   4.271  15.213  0.00  0.00    +0.000 A 
ENDBRANCH   1  14
BRANCH   2  17
ATOM     17  P   UNL     1       3.655   2.970  19.624  0.00  0.00    +0.000 P 
ATOM     18  C   UNL     1       3.059   2.536  21.248  0.00  0.00    +0.000 C 
ATOM     19  O   UNL     1       3.120   2.080  18.539  0.00  0.00    +0.000 OA
BRANCH  17  20
ATOM     20  O   UNL     1       5.243   2.709  19.783  0.00  0.00    +0.000 OA
ATOM     21  H   UNL     1       5.673   2.530  18.926  0.00  0.00    +0.000 HD
ENDBRANCH  17  20
ENDBRANCH   2  17
TORSDOF 3
ENDMDL
MODEL 8
REMARK VINA RESULT:      -7.2      3.509      5.070
REMARK  Name = 
REMARK  5 active torsions:
REMARK  status: ('A' for Active; 'I' for Inactive)
REMARK    1  A    between atoms: C_1  and  C_2
REMARK    2  A    between atoms: C_5  and  N_6
REMARK    3  A    between atoms: C_7  and  P_8
REMARK    4  A    between atoms: P_8  and  C_9
REMARK    5  A    between atoms: P_8  and  O_11
REMARK                            x       y       z     vdW  Elec       q    Type
REMARK                         _______ _______ _______ _____ _____    ______ ____
ROOT
ATOM      1  N   UNL     1       3.695   5.683  17.810  0.00  0.00    +0.000 N 
ATOM      2  C   UNL     1       3.303   4.354  17.608  0.00  0.00    +0.000 A 
ATOM      3  N   UNL     1       4.263   3.702  16.954  0.00  0.00    +0.000 NA
ATOM      4  C   UNL     1       5.321   4.553  16.851  0.00  0.00    +0.000 A 
ATOM      5  C   UNL     1       6.608   4.302  16.348  0.00  0.00    +0.000 A 
ATOM      6  C   UNL     1       7.577   5.307  16.432  0.00  0.00    +0.000 A 
ATOM      7  C   UNL     1       7.268   6.543  16.992  0.00  0.00    +0.000 A 
ATOM      8  C   UNL     1       5.983   6.814  17.476  0.00  0.00    +0.000 A 
ATOM      9  C   UNL     1       5.014   5.798  17.382  0.00  0.00    +0.000 A 
ENDROOT
BRANCH   1  14
ATOM     10  C   UNL     1       0.603   9.888  20.189  0.00  0.00    +0.000 C 
ATOM     11  C   UNL     1       1.397   8.785  19.557  0.00  0.00    +0.000 A 
ATOM     12  C   UNL     1       1.738   8.831  18.203  0.00  0.00    +0.000 A 
ATOM     13  C   UNL     1       2.483   7.804  17.620  0.00  0.00    +0.000 A 
ATOM     14  C   UNL     1       2.912   6.722  18.388  0.00  0.00    +0.000 A 
ATOM     15  C   UNL     1       2.563   6.666  19.747  0.00  0.00    +0.000 A 
ATOM     16  C   UNL     1       1.802   7.687  20.322  0.00  0.00    +0.000 A 
ENDBRANCH   1  14
BRANCH   2  17
ATOM     17  P   UNL     1       1.862   3.416  18.030  0.00  0.00    +0.000 P 
ATOM     18  C   UNL     1       1.800   3.239  19.805  0.00  0.00    +0.000 C 
ATOM     19  O   UNL     1       0.590   3.958  17.445  0.00  0.00    +0.000 OA
BRANCH  17  20
ATOM     20  O   UNL     1       2.044   1.879  17.559  0.00  0.00    +0.000 OA
ATOM     21  H   UNL     1       2.852   1.476  17.927  0.00  0.00    +0.000 HD
ENDBRANCH  17  20
ENDBRANCH   2  17
TORSDOF 3
ENDMDL
MODEL 9
REMARK VINA RESULT:      -7.2      3.129      6.088
REMARK  Name = 
REMARK  5 active torsions:
REMARK  status: ('A' for Active; 'I' for Inactive)
REMARK    1  A    between atoms: C_1  and  C_2
REMARK    2  A    between atoms: C_5  and  N_6
REMARK    3  A    between atoms: C_7  and  P_8
REMARK    4  A    between atoms: P_8  and  C_9
REMARK    5  A    between atoms: P_8  and  O_11
REMARK                            x       y       z     vdW  Elec       q    Type
REMARK                         _______ _______ _______ _____ _____    ______ ____
ROOT
ATOM      1  N   UNL     1       3.711   5.624  18.391  0.00  0.00    +0.000 N 
ATOM      2  C   UNL     1       3.333   4.695  19.368  0.00  0.00    +0.000 A 
ATOM      3  N   UNL     1       2.562   5.292  20.276  0.00  0.00    +0.000 NA
ATOM      4  C   UNL     1       2.328   6.557  19.826  0.00  0.00    +0.000 A 
ATOM      5  C   UNL     1       1.486   7.541  20.366  0.00  0.00    +0.000 A 
ATOM      6  C   UNL     1       1.322   8.747  19.676  0.00  0.00    +0.000 A 
ATOM      7  C   UNL     1       1.995   8.974  18.479  0.00  0.00    +0.000 A 
ATOM      8  C   UNL     1       2.855   8.010  17.942  0.00  0.00    +0.000 A 
ATOM      9  C   UNL     1       3.018   6.803  18.648  0.00  0.00    +0.000 A 
ENDROOT
BRANCH   1  14
ATOM     10  C   UNL     1       7.367   4.689  14.071  0.00  0.00    +0.000 C 
ATOM     11  C   UNL     1       6.400   4.940  15.188  0.00  0.00    +0.000 A 
ATOM     12  C   UNL     1       5.175   4.270  15.242  0.00  0.00    +0.000 A 
ATOM     13  C   UNL     1       4.280   4.502  16.288  0.00  0.00    +0.000 A 
ATOM     14  C   UNL     1       4.604   5.400  17.306  0.00  0.00    +0.000 A 
ATOM     15  C   UNL     1       5.829   6.083  17.251  0.00  0.00    +0.000 A 
ATOM     16  C   UNL     1       6.714   5.861  16.193  0.00  0.00    +0.000 A 
ENDBRANCH   1  14
BRANCH   2  17
ATOM     17  P   UNL     1       3.655   2.972  19.622  0.00  0.00    +0.000 P 
ATOM     18  C   UNL     1       3.065   2.518  21.244  0.00  0.00    +0.000 C 
ATOM     19  O   UNL     1       3.125   2.087  18.531  0.00  0.00    +0.000 OA
BRANCH  17  20
ATOM     20  O   UNL     1       5.245   2.722  19.776  0.00  0.00    +0.000 OA
ATOM     21  H   UNL     1       5.769   3.447  19.389  0.00  0.00    +0.000 HD
ENDBRANCH  17  20
ENDBRANCH   2  17
TORSDOF 3
ENDMDL
