MODEL 1
REMARK VINA RESULT:      -7.8      0.000      0.000
REMARK  Name = 
REMARK  7 active torsions:
REMARK  status: ('A' for Active; 'I' for Inactive)
REMARK    1  A    between atoms: C_1  and  O_2
REMARK    2  A    between atoms: O_2  and  C_3
REMARK    3  A    between atoms: C_6  and  N_7
REMARK    4  A    between atoms: C_8  and  C_10
REMARK    5  A    between atoms: C_19  and  C_20
REMARK    6  A    between atoms: C_22  and  O_23
REMARK    7  A    between atoms: O_23  and  C_24
REMARK                            x       y       z     vdW  Elec       q    Type
REMARK                         _______ _______ _______ _____ _____    ______ ____
ROOT
ATOM      1  N   UNL     1       2.151   7.523  18.816  0.00  0.00    +0.000 N 
ATOM      2  C   UNL     1       1.754   8.797  18.426  0.00  0.00    +0.000 C 
ATOM      3  O   UNL     1       2.066   9.309  17.354  0.00  0.00    +0.000 OA
ATOM      4  H   UNL     1       1.865   7.240  19.746  0.00  0.00    +0.000 HD
ENDROOT
BRANCH   2   5
ATOM      5  C   UNL     1       0.914   9.512  19.395  0.00  0.00    +0.000 A 
ATOM      6  S   UNL     1      -0.111  10.792  18.894  0.00  0.00    +0.000 S 
ATOM      7  C   UNL     1      -0.650  11.087  20.474  0.00  0.00    +0.000 A 
ATOM      8  N   UNL     1      -1.532  12.089  20.732  0.00  0.00    +0.000 NA
ATOM      9  C   UNL     1      -1.840  12.215  21.982  0.00  0.00    +0.000 A 
ATOM     10  N   UNL     1      -1.359  11.423  22.991  0.00  0.00    +0.000 N 
ATOM     11  C   UNL     1      -0.472  10.388  22.781  0.00  0.00    +0.000 A 
ATOM     12  O   UNL     1      -0.067   9.702  23.713  0.00  0.00    +0.000 OA
ATOM     13  C   UNL     1      -0.086  10.219  21.387  0.00  0.00    +0.000 A 
ATOM     14  C   UNL     1       0.819   9.282  20.769  0.00  0.00    +0.000 A 
ATOM     15  C   UNL     1       1.584   8.211  21.492  0.00  0.00    +0.000 C 
ATOM     16  H   UNL     1      -1.637  11.573  23.947  0.00  0.00    +0.000 HD
ENDBRANCH   2   5
BRANCH   1  20
ATOM     17  C   UNL     1       4.539   4.642  16.852  0.00  0.00    +0.000 A 
ATOM     18  C   UNL     1       4.949   5.979  16.895  0.00  0.00    +0.000 A 
ATOM     19  C   UNL     1       4.175   6.950  17.530  0.00  0.00    +0.000 A 
ATOM     20  C   UNL     1       2.951   6.615  18.096  0.00  0.00    +0.000 A 
ATOM     21  C   UNL     1       2.487   5.302  17.952  0.00  0.00    +0.000 A 
ATOM     22  C   UNL     1       3.264   4.307  17.330  0.00  0.00    +0.000 A 
BRANCH  17  24
ATOM     23  C   UNL     1       6.129   4.072  15.205  0.00  0.00    +0.000 C 
ATOM     24  O   UNL     1       5.368   3.674  16.349  0.00  0.00    +0.000 OA
ENDBRANCH  17  24
BRANCH  22  25
ATOM     25  O   UNL     1       2.630   3.092  17.314  0.00  0.00    +0.000 OA
ATOM     26  C   UNL     1       2.909   2.153  18.340  0.00  0.00    +0.000 C 
ENDBRANCH  22  25
ENDBRANCH   1  20
TORSDOF 4
ENDMDL
MODEL 2
REMARK VINA RESULT:      -7.7      1.865      2.620
REMARK  Name = 
REMARK  7 active torsions:
REMARK  status: ('A' for Active; 'I' for Inactive)
REMARK    1  A    between atoms: C_1  and  O_2
REMARK    2  A    between atoms: O_2  and  C_3
REMARK    3  A    between atoms: C_6  and  N_7
REMARK    4  A    between atoms: C_8  and  C_10
REMARK    5  A    between atoms: C_19  and  C_20
REMARK    6  A    between atoms: C_22  and  O_23
REMARK    7  A    between atoms: O_23  and  C_24
REMARK                            x       y       z     vdW  Elec       q    Type
REMARK                         _______ _______ _______ _____ _____    ______ ____
ROOT
ATOM      1  N   UNL     1       2.069   6.966  19.601  0.00  0.00    +0.000 N 
ATOM      2  C   UNL     1       1.871   8.263  19.146  0.00  0.00    +0.000 C 
ATOM      3  O   UNL     1       2.329   8.693  18.090  0.00  0.00    +0.000 OA
ATOM      4  H   UNL     1       1.676   6.755  20.511  0.00  0.00    +0.000 HD
ENDROOT
BRANCH   2   5
ATOM      5  C   UNL     1       1.055   9.114  20.021  0.00  0.00    +0.000 A 
ATOM      6  S   UNL     1       1.177   8.992  21.728  0.00  0.00    +0.000 S 
ATOM      7  C   UNL     1      -0.016  10.171  21.979  0.00  0.00    +0.000 A 
ATOM      8  N   UNL     1      -0.403  10.512  23.236  0.00  0.00    +0.000 NA
ATOM      9  C   UNL     1      -1.335  11.407  23.279  0.00  0.00    +0.000 A 
ATOM     10  N   UNL     1      -1.903  12.001  22.182  0.00  0.00    +0.000 N 
ATOM     11  C   UNL     1      -1.539  11.697  20.888  0.00  0.00    +0.000 A 
ATOM     12  O   UNL     1      -2.073  12.253  19.933  0.00  0.00    +0.000 OA
ATOM     13  C   UNL     1      -0.501  10.681  20.791  0.00  0.00    +0.000 A 
ATOM     14  C   UNL     1       0.127  10.084  19.638  0.00  0.00    +0.000 A 
ATOM     15  C   UNL     1      -0.179  10.430  18.209  0.00  0.00    +0.000 C 
ATOM     16  H   UNL     1      -2.628  12.692  22.283  0.00  0.00    +0.000 HD
ENDBRANCH   2   5
BRANCH   1  20
ATOM     17  C   UNL     1       4.446   4.050  17.675  0.00  0.00    +0.000 A 
ATOM     18  C   UNL     1       3.095   4.187  17.337  0.00  0.00    +0.000 A 
ATOM     19  C   UNL     1       2.288   5.136  17.963  0.00  0.00    +0.000 A 
ATOM     20  C   UNL     1       2.801   5.938  18.975  0.00  0.00    +0.000 A 
ATOM     21  C   UNL     1       4.119   5.722  19.393  0.00  0.00    +0.000 A 
ATOM     22  C   UNL     1       4.952   4.781  18.759  0.00  0.00    +0.000 A 
BRANCH  17  24
ATOM     23  C   UNL     1       5.880   3.809  15.817  0.00  0.00    +0.000 C 
ATOM     24  O   UNL     1       5.263   3.213  16.960  0.00  0.00    +0.000 OA
ENDBRANCH  17  24
BRANCH  22  25
ATOM     25  O   UNL     1       6.205   4.746  19.312  0.00  0.00    +0.000 OA
ATOM     26  C   UNL     1       7.168   5.704  18.905  0.00  0.00    +0.000 C 
ENDBRANCH  22  25
ENDBRANCH   1  20
TORSDOF 4
ENDMDL
MODEL 3
REMARK VINA RESULT:      -7.7      1.826      2.874
REMARK  Name = 
REMARK  7 active torsions:
REMARK  status: ('A' for Active; 'I' for Inactive)
REMARK    1  A    between atoms: C_1  and  O_2
REMARK    2  A    between atoms: O_2  and  C_3
REMARK    3  A    between atoms: C_6  and  N_7
REMARK    4  A    between atoms: C_8  and  C_10
REMARK    5  A    between atoms: C_19  and  C_20
REMARK    6  A    between atoms: C_22  and  O_23
REMARK    7  A    between atoms: O_23  and  C_24
REMARK                            x       y       z     vdW  Elec       q    Type
REMARK                         _______ _______ _______ _____ _____    ______ ____
ROOT
ATOM      1  N   UNL     1       2.972   6.877  18.872  0.00  0.00    +0.000 N 
ATOM      2  C   UNL     1       2.323   8.040  18.473  0.00  0.00    +0.000 C 
ATOM      3  O   UNL     1       2.355   8.480  17.327  0.00  0.00    +0.000 OA
ATOM      4  H   UNL     1       2.905   6.653  19.857  0.00  0.00    +0.000 HD
ENDROOT
BRANCH   2   5
ATOM      5  C   UNL     1       1.572   8.728  19.530  0.00  0.00    +0.000 A 
ATOM      6  S   UNL     1       1.165   7.922  20.988  0.00  0.00    +0.000 S 
ATOM      7  C   UNL     1       0.340   9.271  21.599  0.00  0.00    +0.000 A 
ATOM      8  N   UNL     1      -0.272   9.221  22.812  0.00  0.00    +0.000 NA
ATOM      9  C   UNL     1      -0.881  10.313  23.143  0.00  0.00    +0.000 A 
ATOM     10  N   UNL     1      -0.921  11.451  22.381  0.00  0.00    +0.000 N 
ATOM     11  C   UNL     1      -0.308  11.556  21.151  0.00  0.00    +0.000 A 
ATOM     12  O   UNL     1      -0.366  12.595  20.500  0.00  0.00    +0.000 OA
ATOM     13  C   UNL     1       0.379  10.343  20.730  0.00  0.00    +0.000 A 
ATOM     14  C   UNL     1       1.110  10.046  19.522  0.00  0.00    +0.000 A 
ATOM     15  C   UNL     1       1.334  11.004  18.388  0.00  0.00    +0.000 C 
ATOM     16  H   UNL     1      -1.414  12.270  22.695  0.00  0.00    +0.000 HD
ENDBRANCH   2   5
BRANCH   1  20
ATOM     17  C   UNL     1       5.357   4.488  16.329  0.00  0.00    +0.000 A 
ATOM     18  C   UNL     1       4.146   3.991  16.824  0.00  0.00    +0.000 A 
ATOM     19  C   UNL     1       3.345   4.756  17.670  0.00  0.00    +0.000 A 
ATOM     20  C   UNL     1       3.759   6.018  18.079  0.00  0.00    +0.000 A 
ATOM     21  C   UNL     1       5.022   6.468  17.679  0.00  0.00    +0.000 A 
ATOM     22  C   UNL     1       5.835   5.715  16.810  0.00  0.00    +0.000 A 
BRANCH  17  24
ATOM     23  C   UNL     1       5.801   4.152  14.037  0.00  0.00    +0.000 C 
ATOM     24  O   UNL     1       6.068   3.785  15.392  0.00  0.00    +0.000 OA
ENDBRANCH  17  24
BRANCH  22  25
ATOM     25  O   UNL     1       7.017   6.348  16.532  0.00  0.00    +0.000 OA
ATOM     26  C   UNL     1       7.526   7.298  17.454  0.00  0.00    +0.000 C 
ENDBRANCH  22  25
ENDBRANCH   1  20
TORSDOF 4
ENDMDL
MODEL 4
REMARK VINA RESULT:      -7.6      1.492      1.949
REMARK  Name = 
REMARK  7 active torsions:
REMARK  status: ('A' for Active; 'I' for Inactive)
REMARK    1  A    between atoms: C_1  and  O_2
REMARK    2  A    between atoms: O_2  and  C_3
REMARK    3  A    between atoms: C_6  and  N_7
REMARK    4  A    between atoms: C_8  and  C_10
REMARK    5  A    between atoms: C_19  and  C_20
REMARK    6  A    between atoms: C_22  and  O_23
REMARK    7  A    between atoms: O_23  and  C_24
REMARK                            x       y       z     vdW  Elec       q    Type
REMARK                         _______ _______ _______ _____ _____    ______ ____
ROOT
ATOM      1  N   UNL     1       2.066   7.586  19.015  0.00  0.00    +0.000 N 
ATOM      2  C   UNL     1       1.627   8.834  18.591  0.00  0.00    +0.000 C 
ATOM      3  O   UNL     1       1.857   9.295  17.476  0.00  0.00    +0.000 OA
ATOM      4  H   UNL     1       1.849   7.346  19.975  0.00  0.00    +0.000 HD
ENDROOT
BRANCH   2   5
ATOM      5  C   UNL     1       0.846   9.589  19.579  0.00  0.00    +0.000 A 
ATOM      6  S   UNL     1       1.179   9.449  21.256  0.00  0.00    +0.000 S 
ATOM      7  C   UNL     1      -0.079  10.506  21.676  0.00  0.00    +0.000 A 
ATOM      8  N   UNL     1      -0.344  10.788  22.979  0.00  0.00    +0.000 NA
ATOM      9  C   UNL     1      -1.342  11.591  23.155  0.00  0.00    +0.000 A 
ATOM     10  N   UNL     1      -2.088  12.147  22.148  0.00  0.00    +0.000 N 
ATOM     11  C   UNL     1      -1.853  11.902  20.813  0.00  0.00    +0.000 A 
ATOM     12  O   UNL     1      -2.544  12.422  19.942  0.00  0.00    +0.000 OA
ATOM     13  C   UNL     1      -0.744  10.990  20.568  0.00  0.00    +0.000 A 
ATOM     14  C   UNL     1      -0.205  10.475  19.333  0.00  0.00    +0.000 A 
ATOM     15  C   UNL     1      -0.707  10.815  17.960  0.00  0.00    +0.000 C 
ATOM     16  H   UNL     1      -2.855  12.766  22.352  0.00  0.00    +0.000 HD
ENDBRANCH   2   5
BRANCH   1  20
ATOM     17  C   UNL     1       4.306   4.612  17.014  0.00  0.00    +0.000 A 
ATOM     18  C   UNL     1       4.839   5.895  17.183  0.00  0.00    +0.000 A 
ATOM     19  C   UNL     1       4.117   6.896  17.833  0.00  0.00    +0.000 A 
ATOM     20  C   UNL     1       2.827   6.650  18.287  0.00  0.00    +0.000 A 
ATOM     21  C   UNL     1       2.251   5.404  18.015  0.00  0.00    +0.000 A 
ATOM     22  C   UNL     1       2.973   4.378  17.377  0.00  0.00    +0.000 A 
BRANCH  17  24
ATOM     23  C   UNL     1       5.947   3.992  15.436  0.00  0.00    +0.000 C 
ATOM     24  O   UNL     1       5.074   3.601  16.499  0.00  0.00    +0.000 OA
ENDBRANCH  17  24
BRANCH  22  25
ATOM     25  O   UNL     1       2.227   3.238  17.228  0.00  0.00    +0.000 OA
ATOM     26  C   UNL     1       2.276   2.244  18.238  0.00  0.00    +0.000 C 
ENDBRANCH  22  25
ENDBRANCH   1  20
TORSDOF 4
ENDMDL
MODEL 5
REMARK VINA RESULT:      -7.6      0.947      2.020
REMARK  Name = 
REMARK  7 active torsions:
REMARK  status: ('A' for Active; 'I' for Inactive)
REMARK    1  A    between atoms: C_1  and  O_2
REMARK    2  A    between atoms: O_2  and  C_3
REMARK    3  A    between atoms: C_6  and  N_7
REMARK    4  A    between atoms: C_8  and  C_10
REMARK    5  A    between atoms: C_19  and  C_20
REMARK    6  A    between atoms: C_22  and  O_23
REMARK    7  A    between atoms: O_23  and  C_24
REMARK                            x       y       z     vdW  Elec       q    Type
REMARK                         _______ _______ _______ _____ _____    ______ ____
ROOT
ATOM      1  N   UNL     1       2.195   7.582  18.898  0.00  0.00    +0.000 N 
ATOM      2  C   UNL     1       1.742   8.804  18.416  0.00  0.00    +0.000 C 
ATOM      3  O   UNL     1       2.030   9.248  17.308  0.00  0.00    +0.000 OA
ATOM      4  H   UNL     1       1.923   7.356  19.847  0.00  0.00    +0.000 HD
ENDROOT
BRANCH   2   5
ATOM      5  C   UNL     1       0.874   9.553  19.332  0.00  0.00    +0.000 A 
ATOM      6  S   UNL     1      -0.199  10.754  18.743  0.00  0.00    +0.000 S 
ATOM      7  C   UNL     1      -0.753  11.139  20.299  0.00  0.00    +0.000 A 
ATOM      8  N   UNL     1      -1.673  12.121  20.487  0.00  0.00    +0.000 NA
ATOM      9  C   UNL     1      -1.988  12.322  21.725  0.00  0.00    +0.000 A 
ATOM     10  N   UNL     1      -1.479  11.622  22.787  0.00  0.00    +0.000 N 
ATOM     11  C   UNL     1      -0.553  10.611  22.649  0.00  0.00    +0.000 A 
ATOM     12  O   UNL     1      -0.124  10.008  23.627  0.00  0.00    +0.000 OA
ATOM     13  C   UNL     1      -0.158  10.359  21.271  0.00  0.00    +0.000 A 
ATOM     14  C   UNL     1       0.785   9.416  20.719  0.00  0.00    +0.000 A 
ATOM     15  C   UNL     1       1.588   8.429  21.516  0.00  0.00    +0.000 C 
ATOM     16  H   UNL     1      -1.765  11.829  23.730  0.00  0.00    +0.000 HD
ENDBRANCH   2   5
BRANCH   1  20
ATOM     17  C   UNL     1       4.721   4.968  16.741  0.00  0.00    +0.000 A 
ATOM     18  C   UNL     1       3.550   4.481  17.332  0.00  0.00    +0.000 A 
ATOM     19  C   UNL     1       2.703   5.321  18.055  0.00  0.00    +0.000 A 
ATOM     20  C   UNL     1       3.033   6.657  18.244  0.00  0.00    +0.000 A 
ATOM     21  C   UNL     1       4.260   7.117  17.753  0.00  0.00    +0.000 A 
ATOM     22  C   UNL     1       5.117   6.287  17.006  0.00  0.00    +0.000 A 
BRANCH  17  24
ATOM     23  C   UNL     1       5.410   4.508  14.533  0.00  0.00    +0.000 C 
ATOM     24  O   UNL     1       5.472   4.169  15.920  0.00  0.00    +0.000 OA
ENDBRANCH  17  24
BRANCH  22  25
ATOM     25  O   UNL     1       6.252   6.942  16.608  0.00  0.00    +0.000 OA
ATOM     26  C   UNL     1       7.395   6.918  17.448  0.00  0.00    +0.000 C 
ENDBRANCH  22  25
ENDBRANCH   1  20
TORSDOF 4
ENDMDL
MODEL 6
REMARK VINA RESULT:      -7.5      1.492      1.932
REMARK  Name = 
REMARK  7 active torsions:
REMARK  status: ('A' for Active; 'I' for Inactive)
REMARK    1  A    between atoms: C_1  and  O_2
REMARK    2  A    between atoms: O_2  and  C_3
REMARK    3  A    between atoms: C_6  and  N_7
REMARK    4  A    between atoms: C_8  and  C_10
REMARK    5  A    between atoms: C_19  and  C_20
REMARK    6  A    between atoms: C_22  and  O_23
REMARK    7  A    between atoms: O_23  and  C_24
REMARK                            x       y       z     vdW  Elec       q    Type
REMARK                         _______ _______ _______ _____ _____    ______ ____
ROOT
ATOM      1  N   UNL     1       2.803   7.147  18.750  0.00  0.00    +0.000 N 
ATOM      2  C   UNL     1       2.157   8.334  18.425  0.00  0.00    +0.000 C 
ATOM      3  O   UNL     1       2.168   8.830  17.302  0.00  0.00    +0.000 OA
ATOM      4  H   UNL     1       2.755   6.873  19.724  0.00  0.00    +0.000 HD
ENDROOT
BRANCH   2   5
ATOM      5  C   UNL     1       1.438   8.976  19.532  0.00  0.00    +0.000 A 
ATOM      6  S   UNL     1       1.023   8.091  20.942  0.00  0.00    +0.000 S 
ATOM      7  C   UNL     1       0.243   9.423  21.646  0.00  0.00    +0.000 A 
ATOM      8  N   UNL     1      -0.357   9.314  22.861  0.00  0.00    +0.000 NA
ATOM      9  C   UNL     1      -0.930  10.399  23.267  0.00  0.00    +0.000 A 
ATOM     10  N   UNL     1      -0.945  11.584  22.578  0.00  0.00    +0.000 N 
ATOM     11  C   UNL     1      -0.342  11.748  21.349  0.00  0.00    +0.000 A 
ATOM     12  O   UNL     1      -0.377  12.827  20.766  0.00  0.00    +0.000 OA
ATOM     13  C   UNL     1       0.305  10.545  20.846  0.00  0.00    +0.000 A 
ATOM     14  C   UNL     1       1.014  10.304  19.613  0.00  0.00    +0.000 A 
ATOM     15  C   UNL     1       1.254  11.324  18.538  0.00  0.00    +0.000 C 
ATOM     16  H   UNL     1      -1.411  12.395  22.949  0.00  0.00    +0.000 HD
ENDBRANCH   2   5
BRANCH   1  20
ATOM     17  C   UNL     1       5.137   4.527  16.394  0.00  0.00    +0.000 A 
ATOM     18  C   UNL     1       5.322   5.911  16.295  0.00  0.00    +0.000 A 
ATOM     19  C   UNL     1       4.560   6.796  17.056  0.00  0.00    +0.000 A 
ATOM     20  C   UNL     1       3.562   6.321  17.898  0.00  0.00    +0.000 A 
ATOM     21  C   UNL     1       3.298   4.946  17.910  0.00  0.00    +0.000 A 
ATOM     22  C   UNL     1       4.071   4.038  17.162  0.00  0.00    +0.000 A 
BRANCH  17  24
ATOM     23  C   UNL     1       6.201   3.958  14.366  0.00  0.00    +0.000 C 
ATOM     24  O   UNL     1       5.981   3.663  15.748  0.00  0.00    +0.000 OA
ENDBRANCH  17  24
BRANCH  22  25
ATOM     25  O   UNL     1       3.655   2.744  17.334  0.00  0.00    +0.000 OA
ATOM     26  C   UNL     1       3.289   2.302  18.631  0.00  0.00    +0.000 C 
ENDBRANCH  22  25
ENDBRANCH   1  20
TORSDOF 4
ENDMDL
MODEL 7
REMARK VINA RESULT:      -7.5      2.173      3.178
REMARK  Name = 
REMARK  7 active torsions:
REMARK  status: ('A' for Active; 'I' for Inactive)
REMARK    1  A    between atoms: C_1  and  O_2
REMARK    2  A    between atoms: O_2  and  C_3
REMARK    3  A    between atoms: C_6  and  N_7
REMARK    4  A    between atoms: C_8  and  C_10
REMARK    5  A    between atoms: C_19  and  C_20
REMARK    6  A    between atoms: C_22  and  O_23
REMARK    7  A    between atoms: O_23  and  C_24
REMARK                            x       y       z     vdW  Elec       q    Type
REMARK                         _______ _______ _______ _____ _____    ______ ____
ROOT
ATOM      1  N   UNL     1       1.711   6.674  20.813  0.00  0.00    +0.000 N 
ATOM      2  C   UNL     1       1.749   7.824  20.036  0.00  0.00    +0.000 C 
ATOM      3  O   UNL     1       2.371   7.914  18.980  0.00  0.00    +0.000 OA
ATOM      4  H   UNL     1       1.201   6.749  21.685  0.00  0.00    +0.000 HD
ENDROOT
BRANCH   2   5
ATOM      5  C   UNL     1       0.977   8.957  20.561  0.00  0.00    +0.000 A 
ATOM      6  S   UNL     1       0.891   9.256  22.248  0.00  0.00    +0.000 S 
ATOM      7  C   UNL     1      -0.135  10.591  22.041  0.00  0.00    +0.000 A 
ATOM      8  N   UNL     1      -0.602  11.281  23.115  0.00  0.00    +0.000 NA
ATOM      9  C   UNL     1      -1.390  12.261  22.813  0.00  0.00    +0.000 A 
ATOM     10  N   UNL     1      -1.741  12.620  21.537  0.00  0.00    +0.000 N 
ATOM     11  C   UNL     1      -1.286  11.960  20.416  0.00  0.00    +0.000 A 
ATOM     12  O   UNL     1      -1.624  12.315  19.292  0.00  0.00    +0.000 OA
ATOM     13  C   UNL     1      -0.405  10.838  20.711  0.00  0.00    +0.000 A 
ATOM     14  C   UNL     1       0.251   9.901  19.832  0.00  0.00    +0.000 A 
ATOM     15  C   UNL     1       0.158   9.909  18.333  0.00  0.00    +0.000 C 
ATOM     16  H   UNL     1      -2.362  13.394  21.368  0.00  0.00    +0.000 HD
ENDBRANCH   2   5
BRANCH   1  20
ATOM     17  C   UNL     1       3.627   3.043  19.805  0.00  0.00    +0.000 A 
ATOM     18  C   UNL     1       2.510   3.035  20.648  0.00  0.00    +0.000 A 
ATOM     19  C   UNL     1       1.865   4.220  21.002  0.00  0.00    +0.000 A 
ATOM     20  C   UNL     1       2.350   5.444  20.559  0.00  0.00    +0.000 A 
ATOM     21  C   UNL     1       3.533   5.461  19.811  0.00  0.00    +0.000 A 
ATOM     22  C   UNL     1       4.186   4.273  19.431  0.00  0.00    +0.000 A 
BRANCH  17  24
ATOM     23  C   UNL     1       3.572   1.352  18.161  0.00  0.00    +0.000 C 
ATOM     24  O   UNL     1       4.168   1.868  19.354  0.00  0.00    +0.000 OA
ENDBRANCH  17  24
BRANCH  22  25
ATOM     25  O   UNL     1       5.311   4.518  18.689  0.00  0.00    +0.000 OA
ATOM     26  C   UNL     1       5.202   4.611  17.278  0.00  0.00    +0.000 C 
ENDBRANCH  22  25
ENDBRANCH   1  20
TORSDOF 4
ENDMDL
MODEL 8
REMARK VINA RESULT:      -7.5      2.100      3.144
REMARK  Name = 
REMARK  7 active torsions:
REMARK  status: ('A' for Active; 'I' for Inactive)
REMARK    1  A    between atoms: C_1  and  O_2
REMARK    2  A    between atoms: O_2  and  C_3
REMARK    3  A    between atoms: C_6  and  N_7
REMARK    4  A    between atoms: C_8  and  C_10
REMARK    5  A    between atoms: C_19  and  C_20
REMARK    6  A    between atoms: C_22  and  O_23
REMARK    7  A    between atoms: O_23  and  C_24
REMARK                            x       y       z     vdW  Elec       q    Type
REMARK                         _______ _______ _______ _____ _____    ______ ____
ROOT
ATOM      1  N   UNL     1       3.106   7.306  18.552  0.00  0.00    +0.000 N 
ATOM      2  C   UNL     1       2.287   7.123  19.660  0.00  0.00    +0.000 C 
ATOM      3  O   UNL     1       2.152   6.048  20.237  0.00  0.00    +0.000 OA
ATOM      4  H   UNL     1       3.089   8.232  18.141  0.00  0.00    +0.000 HD
ENDROOT
BRANCH   2   5
ATOM      5  C   UNL     1       1.576   8.324  20.114  0.00  0.00    +0.000 A 
ATOM      6  S   UNL     1       1.284   8.596  21.782  0.00  0.00    +0.000 S 
ATOM      7  C   UNL     1       0.448  10.041  21.485  0.00  0.00    +0.000 A 
ATOM      8  N   UNL     1      -0.089  10.757  22.508  0.00  0.00    +0.000 NA
ATOM      9  C   UNL     1      -0.716  11.824  22.135  0.00  0.00    +0.000 A 
ATOM     10  N   UNL     1      -0.841  12.248  20.837  0.00  0.00    +0.000 N 
ATOM     11  C   UNL     1      -0.306  11.564  19.767  0.00  0.00    +0.000 A 
ATOM     12  O   UNL     1      -0.441  11.978  18.620  0.00  0.00    +0.000 OA
ATOM     13  C   UNL     1       0.398  10.345  20.139  0.00  0.00    +0.000 A 
ATOM     14  C   UNL     1       1.066   9.359  19.326  0.00  0.00    +0.000 A 
ATOM     15  C   UNL     1       1.188   9.408  17.830  0.00  0.00    +0.000 C 
ATOM     16  H   UNL     1      -1.345  13.090  20.612  0.00  0.00    +0.000 HD
ENDBRANCH   2   5
BRANCH   1  20
ATOM     17  C   UNL     1       5.548   4.585  16.433  0.00  0.00    +0.000 A 
ATOM     18  C   UNL     1       4.261   4.207  16.831  0.00  0.00    +0.000 A 
ATOM     19  C   UNL     1       3.439   5.083  17.538  0.00  0.00    +0.000 A 
ATOM     20  C   UNL     1       3.902   6.341  17.904  0.00  0.00    +0.000 A 
ATOM     21  C   UNL     1       5.228   6.676  17.606  0.00  0.00    +0.000 A 
ATOM     22  C   UNL     1       6.064   5.810  16.878  0.00  0.00    +0.000 A 
BRANCH  17  24
ATOM     23  C   UNL     1       6.111   3.987  14.221  0.00  0.00    +0.000 C 
ATOM     24  O   UNL     1       6.294   3.770  15.622  0.00  0.00    +0.000 OA
ENDBRANCH  17  24
BRANCH  22  25
ATOM     25  O   UNL     1       7.312   6.341  16.682  0.00  0.00    +0.000 OA
ATOM     26  C   UNL     1       7.708   7.472  17.441  0.00  0.00    +0.000 C 
ENDBRANCH  22  25
ENDBRANCH   1  20
TORSDOF 4
ENDMDL
MODEL 9
REMARK VINA RESULT:      -7.5      1.733      2.671
REMARK  Name = 
REMARK  7 active torsions:
REMARK  status: ('A' for Active; 'I' for Inactive)
REMARK    1  A    between atoms: C_1  and  O_2
REMARK    2  A    between atoms: O_2  and  C_3
REMARK    3  A    between atoms: C_6  and  N_7
REMARK    4  A    between atoms: C_8  and  C_10
REMARK    5  A    between atoms: C_19  and  C_20
REMARK    6  A    between atoms: C_22  and  O_23
REMARK    7  A    between atoms: O_23  and  C_24
REMARK                            x       y       z     vdW  Elec       q    Type
REMARK                         _______ _______ _______ _____ _____    ______ ____
ROOT
ATOM      1  N   UNL     1       2.986   7.663  18.154  0.00  0.00    +0.000 N 
ATOM      2  C   UNL     1       2.195   7.642  19.296  0.00  0.00    +0.000 C 
ATOM      3  O   UNL     1       2.154   6.697  20.080  0.00  0.00    +0.000 OA
ATOM      4  H   UNL     1       2.889   8.484  17.568  0.00  0.00    +0.000 HD
ENDROOT
BRANCH   2   5
ATOM      5  C   UNL     1       1.391   8.850  19.521  0.00  0.00    +0.000 A 
ATOM      6  S   UNL     1       0.808   9.776  18.201  0.00  0.00    +0.000 S 
ATOM      7  C   UNL     1       0.081  10.921  19.220  0.00  0.00    +0.000 A 
ATOM      8  N   UNL     1      -0.567  11.998  18.704  0.00  0.00    +0.000 NA
ATOM      9  C   UNL     1      -1.054  12.799  19.595  0.00  0.00    +0.000 A 
ATOM     10  N   UNL     1      -0.964  12.614  20.950  0.00  0.00    +0.000 N 
ATOM     11  C   UNL     1      -0.327  11.533  21.522  0.00  0.00    +0.000 A 
ATOM     12  O   UNL     1      -0.270  11.404  22.741  0.00  0.00    +0.000 OA
ATOM     13  C   UNL     1       0.250  10.610  20.554  0.00  0.00    +0.000 A 
ATOM     14  C   UNL     1       1.001   9.394  20.746  0.00  0.00    +0.000 A 
ATOM     15  C   UNL     1       1.345   8.790  22.077  0.00  0.00    +0.000 C 
ATOM     16  H   UNL     1      -1.364  13.277  21.593  0.00  0.00    +0.000 HD
ENDBRANCH   2   5
BRANCH   1  20
ATOM     17  C   UNL     1       5.646   4.786  16.571  0.00  0.00    +0.000 A 
ATOM     18  C   UNL     1       4.349   4.412  16.939  0.00  0.00    +0.000 A 
ATOM     19  C   UNL     1       3.454   5.341  17.471  0.00  0.00    +0.000 A 
ATOM     20  C   UNL     1       3.852   6.654  17.690  0.00  0.00    +0.000 A 
ATOM     21  C   UNL     1       5.184   6.999  17.431  0.00  0.00    +0.000 A 
ATOM     22  C   UNL     1       6.093   6.079  16.877  0.00  0.00    +0.000 A 
BRANCH  17  24
ATOM     23  C   UNL     1       6.375   3.929  14.498  0.00  0.00    +0.000 C 
ATOM     24  O   UNL     1       6.469   3.901  15.924  0.00  0.00    +0.000 OA
ENDBRANCH  17  24
BRANCH  22  25
ATOM     25  O   UNL     1       7.333   6.629  16.687  0.00  0.00    +0.000 OA
ATOM     26  C   UNL     1       7.704   7.772  17.440  0.00  0.00    +0.000 C 
ENDBRANCH  22  25
ENDBRANCH   1  20
TORSDOF 4
ENDMDL
