MODEL 1
REMARK VINA RESULT:      -8.4      0.000      0.000
REMARK  Name = 
REMARK  11 active torsions:
REMARK  status: ('A' for Active; 'I' for Inactive)
REMARK    1  A    between atoms: C_1  and  C_2
REMARK    2  A    between atoms: C_5  and  N_6
REMARK    3  A    between atoms: N_6  and  C_7
REMARK    4  A    between atoms: C_7  and  S_8
REMARK    5  A    between atoms: S_8  and  C_11
REMARK    6  A    between atoms: C_17  and  O_18
REMARK    7  A    between atoms: C_19  and  C_20
REMARK    8  A    between atoms: C_20  and  C_21
REMARK    9  A    between atoms: N_23  and  C_24
REMARK   10  A    between atoms: C_24  and  C_25
REMARK   11  A    between atoms: C_31  and  C_32
REMARK                            x       y       z     vdW  Elec       q    Type
REMARK                         _______ _______ _______ _____ _____    ______ ____
ROOT
ATOM      1  C   UNL     1       0.179  10.131  21.950  0.00  0.00    +0.000 C 
ATOM      2  C   UNL     1       0.860   9.346  20.862  0.00  0.00    +0.000 A 
ATOM      3  C   UNL     1       1.290   8.043  21.162  0.00  0.00    +0.000 A 
ATOM      4  C   UNL     1       1.938   7.251  20.210  0.00  0.00    +0.000 A 
ATOM      5  C   UNL     1       2.231   7.749  18.941  0.00  0.00    +0.000 A 
ATOM      6  C   UNL     1       1.758   9.044  18.639  0.00  0.00    +0.000 A 
ATOM      7  C   UNL     1       1.086   9.860  19.569  0.00  0.00    +0.000 A 
ENDROOT
BRANCH   5   8
ATOM      8  N   UNL     1       2.830   6.980  17.922  0.00  0.00    +0.000 N 
ATOM      9  H   UNL     1       2.767   7.458  17.021  0.00  0.00    +0.000 HD
BRANCH   8  10
ATOM     10  C   UNL     1       4.223   6.512  18.135  0.00  0.00    +0.000 C 
BRANCH  10  11
ATOM     11  S   UNL     1       4.517   4.718  17.983  0.00  0.00    +0.000 S 
ATOM     12  O   UNL     1       4.449   4.334  16.585  0.00  0.00    +0.000 OA
ATOM     13  O   UNL     1       5.677   4.373  18.785  0.00  0.00    +0.000 OA
BRANCH  11  14
ATOM     14  C   UNL     1       3.084   4.031  18.789  0.00  0.00    +0.000 A 
ATOM     15  C   UNL     1       3.029   4.004  20.187  0.00  0.00    +0.000 A 
ATOM     16  C   UNL     1       1.908   3.460  20.816  0.00  0.00    +0.000 A 
ATOM     17  C   UNL     1       0.854   2.958  20.050  0.00  0.00    +0.000 A 
ATOM     18  C   UNL     1       0.909   3.005  18.655  0.00  0.00    +0.000 A 
ATOM     19  C   UNL     1       2.024   3.546  18.020  0.00  0.00    +0.000 A 
ENDBRANCH  11  14
ENDBRANCH  10  11
ENDBRANCH   8  10
ENDBRANCH   5   8
BRANCH   6  20
ATOM     20  O   UNL     1       1.921   9.514  17.353  0.00  0.00    +0.000 OA
ATOM     21  H   UNL     1       2.115  10.464  17.472  0.00  0.00    +0.000 HD
ENDBRANCH   6  20
BRANCH   7  22
ATOM     22  C   UNL     1       0.591  11.224  19.144  0.00  0.00    +0.000 C 
BRANCH  22  23
ATOM     23  C   UNL     1      -0.917  11.359  19.125  0.00  0.00    +0.000 C 
ATOM     24  O   UNL     1      -1.632  10.616  18.456  0.00  0.00    +0.000 OA
ATOM     25  N   UNL     1      -1.404  12.417  19.865  0.00  0.00    +0.000 N 
ATOM     26  H   UNL     1      -0.772  12.862  20.524  0.00  0.00    +0.000 HD
BRANCH  25  27
ATOM     27  C   UNL     1      -2.808  12.751  19.896  0.00  0.00    +0.000 C 
BRANCH  27  28
ATOM     28  C   UNL     1      -3.404  12.652  21.271  0.00  0.00    +0.000 A 
ATOM     29  C   UNL     1      -2.556  12.509  22.376  0.00  0.00    +0.000 A 
ATOM     30  C   UNL     1      -3.086  12.375  23.653  0.00  0.00    +0.000 A 
ATOM     31  C   UNL     1      -4.460  12.398  23.804  0.00  0.00    +0.000 A 
ATOM     32  N   UNL     1      -5.033  12.195  25.057  0.00  0.00    +0.000 N 
ATOM     33  N   UNL     1      -5.303  12.555  22.772  0.00  0.00    +0.000 NA
ATOM     34  C   UNL     1      -4.779  12.693  21.524  0.00  0.00    +0.000 A 
ATOM     35  C   UNL     1      -5.782  12.864  20.419  0.00  0.00    +0.000 C 
ATOM     36  H   UNL     1      -4.651  12.826  25.750  0.00  0.00    +0.000 HD
ATOM     37  H   UNL     1      -6.038  12.305  24.943  0.00  0.00    +0.000 HD
ENDBRANCH  27  28
ENDBRANCH  25  27
ENDBRANCH  22  23
ENDBRANCH   7  22
TORSDOF 9
ENDMDL
MODEL 2
REMARK VINA RESULT:      -8.1      3.551      6.388
REMARK  Name = 
REMARK  11 active torsions:
REMARK  status: ('A' for Active; 'I' for Inactive)
REMARK    1  A    between atoms: C_1  and  C_2
REMARK    2  A    between atoms: C_5  and  N_6
REMARK    3  A    between atoms: N_6  and  C_7
REMARK    4  A    between atoms: C_7  and  S_8
REMARK    5  A    between atoms: S_8  and  C_11
REMARK    6  A    between atoms: C_17  and  O_18
REMARK    7  A    between atoms: C_19  and  C_20
REMARK    8  A    between atoms: C_20  and  C_21
REMARK    9  A    between atoms: N_23  and  C_24
REMARK   10  A    between atoms: C_24  and  C_25
REMARK   11  A    between atoms: C_31  and  C_32
REMARK                            x       y       z     vdW  Elec       q    Type
REMARK                         _______ _______ _______ _____ _____    ______ ____
ROOT
ATOM      1  C   UNL     1       2.019   2.085  21.044  0.00  0.00    +0.000 C 
ATOM      2  C   UNL     1       2.582   2.634  19.761  0.00  0.00    +0.000 A 
ATOM      3  C   UNL     1       2.642   1.778  18.649  0.00  0.00    +0.000 A 
ATOM      4  C   UNL     1       3.159   2.207  17.423  0.00  0.00    +0.000 A 
ATOM      5  C   UNL     1       3.687   3.489  17.276  0.00  0.00    +0.000 A 
ATOM      6  C   UNL     1       3.583   4.353  18.388  0.00  0.00    +0.000 A 
ATOM      7  C   UNL     1       3.052   3.957  19.631  0.00  0.00    +0.000 A 
ENDROOT
BRANCH   5   8
ATOM      8  N   UNL     1       4.168   3.996  16.053  0.00  0.00    +0.000 N 
ATOM      9  H   UNL     1       3.880   4.969  15.923  0.00  0.00    +0.000 HD
BRANCH   8  10
ATOM     10  C   UNL     1       5.622   3.874  15.774  0.00  0.00    +0.000 C 
BRANCH  10  11
ATOM     11  S   UNL     1       6.505   5.409  15.341  0.00  0.00    +0.000 S 
ATOM     12  O   UNL     1       7.620   5.095  14.466  0.00  0.00    +0.000 OA
ATOM     13  O   UNL     1       5.525   6.410  14.954  0.00  0.00    +0.000 OA
BRANCH  11  14
ATOM     14  C   UNL     1       7.189   5.908  16.908  0.00  0.00    +0.000 A 
ATOM     15  C   UNL     1       7.370   4.952  17.915  0.00  0.00    +0.000 A 
ATOM     16  C   UNL     1       7.901   5.347  19.143  0.00  0.00    +0.000 A 
ATOM     17  C   UNL     1       8.253   6.682  19.354  0.00  0.00    +0.000 A 
ATOM     18  C   UNL     1       8.086   7.626  18.339  0.00  0.00    +0.000 A 
ATOM     19  C   UNL     1       7.556   7.240  17.110  0.00  0.00    +0.000 A 
ENDBRANCH  11  14
ENDBRANCH  10  11
ENDBRANCH   8  10
ENDBRANCH   5   8
BRANCH   6  20
ATOM     20  O   UNL     1       3.981   5.663  18.233  0.00  0.00    +0.000 OA
ATOM     21  H   UNL     1       3.374   6.015  17.553  0.00  0.00    +0.000 HD
ENDBRANCH   6  20
BRANCH   7  22
ATOM     22  C   UNL     1       2.957   4.962  20.755  0.00  0.00    +0.000 C 
BRANCH  22  23
ATOM     23  C   UNL     1       1.686   5.785  20.747  0.00  0.00    +0.000 C 
ATOM     24  O   UNL     1       0.585   5.288  20.517  0.00  0.00    +0.000 OA
ATOM     25  N   UNL     1       1.880   7.135  20.955  0.00  0.00    +0.000 N 
ATOM     26  H   UNL     1       2.782   7.432  21.315  0.00  0.00    +0.000 HD
BRANCH  25  27
ATOM     27  C   UNL     1       0.795   8.085  20.898  0.00  0.00    +0.000 C 
BRANCH  27  28
ATOM     28  C   UNL     1       1.087   9.257  20.004  0.00  0.00    +0.000 A 
ATOM     29  C   UNL     1       1.669   9.033  18.751  0.00  0.00    +0.000 A 
ATOM     30  C   UNL     1       1.986  10.103  17.924  0.00  0.00    +0.000 A 
ATOM     31  C   UNL     1       1.704  11.383  18.363  0.00  0.00    +0.000 A 
ATOM     32  N   UNL     1       2.069  12.487  17.596  0.00  0.00    +0.000 N 
ATOM     33  N   UNL     1       1.126  11.636  19.548  0.00  0.00    +0.000 NA
ATOM     34  C   UNL     1       0.812  10.584  20.351  0.00  0.00    +0.000 A 
ATOM     35  C   UNL     1       0.171  10.942  21.661  0.00  0.00    +0.000 C 
ATOM     36  H   UNL     1       1.720  12.417  16.649  0.00  0.00    +0.000 HD
ATOM     37  H   UNL     1       1.722  13.310  18.080  0.00  0.00    +0.000 HD
ENDBRANCH  27  28
ENDBRANCH  25  27
ENDBRANCH  22  23
ENDBRANCH   7  22
TORSDOF 9
ENDMDL
MODEL 3
REMARK VINA RESULT:      -8.0      3.415      4.639
REMARK  Name = 
REMARK  11 active torsions:
REMARK  status: ('A' for Active; 'I' for Inactive)
REMARK    1  A    between atoms: C_1  and  C_2
REMARK    2  A    between atoms: C_5  and  N_6
REMARK    3  A    between atoms: N_6  and  C_7
REMARK    4  A    between atoms: C_7  and  S_8
REMARK    5  A    between atoms: S_8  and  C_11
REMARK    6  A    between atoms: C_17  and  O_18
REMARK    7  A    between atoms: C_19  and  C_20
REMARK    8  A    between atoms: C_20  and  C_21
REMARK    9  A    between atoms: N_23  and  C_24
REMARK   10  A    between atoms: C_24  and  C_25
REMARK   11  A    between atoms: C_31  and  C_32
REMARK                            x       y       z     vdW  Elec       q    Type
REMARK                         _______ _______ _______ _____ _____    ______ ____
ROOT
ATOM      1  C   UNL     1      -0.029   9.328  21.910  0.00  0.00    +0.000 C 
ATOM      2  C   UNL     1       0.800   8.763  20.788  0.00  0.00    +0.000 A 
ATOM      3  C   UNL     1       1.338   7.477  20.950  0.00  0.00    +0.000 A 
ATOM      4  C   UNL     1       2.126   6.884  19.960  0.00  0.00    +0.000 A 
ATOM      5  C   UNL     1       2.453   7.575  18.793  0.00  0.00    +0.000 A 
ATOM      6  C   UNL     1       1.873   8.851  18.624  0.00  0.00    +0.000 A 
ATOM      7  C   UNL     1       1.061   9.468  19.595  0.00  0.00    +0.000 A 
ENDROOT
BRANCH   5   8
ATOM      8  N   UNL     1       3.195   7.010  17.736  0.00  0.00    +0.000 N 
ATOM      9  H   UNL     1       3.275   7.667  16.956  0.00  0.00    +0.000 HD
BRANCH   8  10
ATOM     10  C   UNL     1       4.535   6.452  18.049  0.00  0.00    +0.000 C 
BRANCH  10  11
ATOM     11  S   UNL     1       4.788   4.682  17.691  0.00  0.00    +0.000 S 
ATOM     12  O   UNL     1       4.630   4.449  16.267  0.00  0.00    +0.000 OA
ATOM     13  O   UNL     1       5.988   4.240  18.380  0.00  0.00    +0.000 OA
BRANCH  11  14
ATOM     14  C   UNL     1       3.395   3.928  18.506  0.00  0.00    +0.000 A 
ATOM     15  C   UNL     1       3.508   3.543  19.847  0.00  0.00    +0.000 A 
ATOM     16  C   UNL     1       2.417   2.948  20.481  0.00  0.00    +0.000 A 
ATOM     17  C   UNL     1       1.226   2.749  19.779  0.00  0.00    +0.000 A 
ATOM     18  C   UNL     1       1.115   3.152  18.447  0.00  0.00    +0.000 A 
ATOM     19  C   UNL     1       2.200   3.746  17.806  0.00  0.00    +0.000 A 
ENDBRANCH  11  14
ENDBRANCH  10  11
ENDBRANCH   8  10
ENDBRANCH   5   8
BRANCH   6  20
ATOM     20  O   UNL     1       2.076   9.504  17.427  0.00  0.00    +0.000 OA
ATOM     21  H   UNL     1       1.919   8.816  16.753  0.00  0.00    +0.000 HD
ENDBRANCH   6  20
BRANCH   7  22
ATOM     22  C   UNL     1       0.461  10.826  19.311  0.00  0.00    +0.000 C 
BRANCH  22  23
ATOM     23  C   UNL     1       1.283  11.989  19.825  0.00  0.00    +0.000 C 
ATOM     24  O   UNL     1       1.411  12.220  21.026  0.00  0.00    +0.000 OA
ATOM     25  N   UNL     1       1.816  12.791  18.838  0.00  0.00    +0.000 N 
ATOM     26  H   UNL     1       1.817  12.432  17.888  0.00  0.00    +0.000 HD
BRANCH  25  27
ATOM     27  C   UNL     1       2.557  13.992  19.140  0.00  0.00    +0.000 C 
BRANCH  27  28
ATOM     28  C   UNL     1       1.831  15.246  18.740  0.00  0.00    +0.000 A 
ATOM     29  C   UNL     1       0.436  15.291  18.843  0.00  0.00    +0.000 A 
ATOM     30  C   UNL     1      -0.260  16.424  18.442  0.00  0.00    +0.000 A 
ATOM     31  C   UNL     1       0.456  17.501  17.953  0.00  0.00    +0.000 A 
ATOM     32  N   UNL     1      -0.207  18.628  17.474  0.00  0.00    +0.000 N 
ATOM     33  N   UNL     1       1.795  17.503  17.860  0.00  0.00    +0.000 NA
ATOM     34  C   UNL     1       2.473  16.393  18.261  0.00  0.00    +0.000 A 
ATOM     35  C   UNL     1       3.966  16.467  18.127  0.00  0.00    +0.000 C 
ATOM     36  H   UNL     1      -0.861  18.995  18.154  0.00  0.00    +0.000 HD
ATOM     37  H   UNL     1       0.508  19.304  17.218  0.00  0.00    +0.000 HD
ENDBRANCH  27  28
ENDBRANCH  25  27
ENDBRANCH  22  23
ENDBRANCH   7  22
TORSDOF 9
ENDMDL
MODEL 4
REMARK VINA RESULT:      -8.0      1.442      1.766
REMARK  Name = 
REMARK  11 active torsions:
REMARK  status: ('A' for Active; 'I' for Inactive)
REMARK    1  A    between atoms: C_1  and  C_2
REMARK    2  A    between atoms: C_5  and  N_6
REMARK    3  A    between atoms: N_6  and  C_7
REMARK    4  A    between atoms: C_7  and  S_8
REMARK    5  A    between atoms: S_8  and  C_11
REMARK    6  A    between atoms: C_17  and  O_18
REMARK    7  A    between atoms: C_19  and  C_20
REMARK    8  A    between atoms: C_20  and  C_21
REMARK    9  A    between atoms: N_23  and  C_24
REMARK   10  A    between atoms: C_24  and  C_25
REMARK   11  A    between atoms: C_31  and  C_32
REMARK                            x       y       z     vdW  Elec       q    Type
REMARK                         _______ _______ _______ _____ _____    ______ ____
ROOT
ATOM      1  C   UNL     1      -0.206   9.752  21.799  0.00  0.00    +0.000 C 
ATOM      2  C   UNL     1       0.662   9.140  20.733  0.00  0.00    +0.000 A 
ATOM      3  C   UNL     1       1.298   7.921  21.022  0.00  0.00    +0.000 A 
ATOM      4  C   UNL     1       2.128   7.292  20.090  0.00  0.00    +0.000 A 
ATOM      5  C   UNL     1       2.399   7.882  18.855  0.00  0.00    +0.000 A 
ATOM      6  C   UNL     1       1.722   9.085  18.562  0.00  0.00    +0.000 A 
ATOM      7  C   UNL     1       0.866   9.736  19.472  0.00  0.00    +0.000 A 
ENDROOT
BRANCH   5   8
ATOM      8  N   UNL     1       3.180   7.269  17.855  0.00  0.00    +0.000 N 
ATOM      9  H   UNL     1       4.176   7.399  18.040  0.00  0.00    +0.000 HD
BRANCH   8  10
ATOM     10  C   UNL     1       2.919   5.839  17.550  0.00  0.00    +0.000 C 
BRANCH  10  11
ATOM     11  S   UNL     1       4.023   4.620  18.336  0.00  0.00    +0.000 S 
ATOM     12  O   UNL     1       4.396   3.608  17.364  0.00  0.00    +0.000 OA
ATOM     13  O   UNL     1       5.045   5.336  19.079  0.00  0.00    +0.000 OA
BRANCH  11  14
ATOM     14  C   UNL     1       2.945   3.841  19.521  0.00  0.00    +0.000 A 
ATOM     15  C   UNL     1       3.498   3.196  20.633  0.00  0.00    +0.000 A 
ATOM     16  C   UNL     1       2.651   2.582  21.557  0.00  0.00    +0.000 A 
ATOM     17  C   UNL     1       1.268   2.623  21.369  0.00  0.00    +0.000 A 
ATOM     18  C   UNL     1       0.723   3.284  20.267  0.00  0.00    +0.000 A 
ATOM     19  C   UNL     1       1.561   3.899  19.340  0.00  0.00    +0.000 A 
ENDBRANCH  11  14
ENDBRANCH  10  11
ENDBRANCH   8  10
ENDBRANCH   5   8
BRANCH   6  20
ATOM     20  O   UNL     1       1.872   9.625  17.302  0.00  0.00    +0.000 OA
ATOM     21  H   UNL     1       2.829   9.811  17.237  0.00  0.00    +0.000 HD
ENDBRANCH   6  20
BRANCH   7  22
ATOM     22  C   UNL     1       0.163  11.007  19.056  0.00  0.00    +0.000 C 
BRANCH  22  23
ATOM     23  C   UNL     1      -1.197  10.788  18.427  0.00  0.00    +0.000 C 
ATOM     24  O   UNL     1      -1.364  10.025  17.478  0.00  0.00    +0.000 OA
ATOM     25  N   UNL     1      -2.205  11.560  18.966  0.00  0.00    +0.000 N 
ATOM     26  H   UNL     1      -2.024  12.020  19.853  0.00  0.00    +0.000 HD
BRANCH  25  27
ATOM     27  C   UNL     1      -3.549  11.547  18.439  0.00  0.00    +0.000 C 
BRANCH  27  28
ATOM     28  C   UNL     1      -4.551  12.169  19.371  0.00  0.00    +0.000 A 
ATOM     29  C   UNL     1      -4.104  12.777  20.550  0.00  0.00    +0.000 A 
ATOM     30  C   UNL     1      -5.014  13.322  21.446  0.00  0.00    +0.000 A 
ATOM     31  C   UNL     1      -6.361  13.259  21.140  0.00  0.00    +0.000 A 
ATOM     32  N   UNL     1      -7.311  13.729  22.044  0.00  0.00    +0.000 N 
ATOM     33  N   UNL     1      -6.826  12.704  20.010  0.00  0.00    +0.000 NA
ATOM     34  C   UNL     1      -5.929  12.177  19.132  0.00  0.00    +0.000 A 
ATOM     35  C   UNL     1      -6.521  11.573  17.891  0.00  0.00    +0.000 C 
ATOM     36  H   UNL     1      -7.118  14.681  22.328  0.00  0.00    +0.000 HD
ATOM     37  H   UNL     1      -8.218  13.632  21.595  0.00  0.00    +0.000 HD
ENDBRANCH  27  28
ENDBRANCH  25  27
ENDBRANCH  22  23
ENDBRANCH   7  22
TORSDOF 9
ENDMDL
MODEL 5
REMARK VINA RESULT:      -7.9      4.224      7.478
REMARK  Name = 
REMARK  11 active torsions:
REMARK  status: ('A' for Active; 'I' for Inactive)
REMARK    1  A    between atoms: C_1  and  C_2
REMARK    2  A    between atoms: C_5  and  N_6
REMARK    3  A    between atoms: N_6  and  C_7
REMARK    4  A    between atoms: C_7  and  S_8
REMARK    5  A    between atoms: S_8  and  C_11
REMARK    6  A    between atoms: C_17  and  O_18
REMARK    7  A    between atoms: C_19  and  C_20
REMARK    8  A    between atoms: C_20  and  C_21
REMARK    9  A    between atoms: N_23  and  C_24
REMARK   10  A    between atoms: C_24  and  C_25
REMARK   11  A    between atoms: C_31  and  C_32
REMARK                            x       y       z     vdW  Elec       q    Type
REMARK                         _______ _______ _______ _____ _____    ______ ____
ROOT
ATOM      1  C   UNL     1       1.165   2.445  18.405  0.00  0.00    +0.000 C 
ATOM      2  C   UNL     1       2.550   2.964  18.122  0.00  0.00    +0.000 A 
ATOM      3  C   UNL     1       2.863   3.316  16.800  0.00  0.00    +0.000 A 
ATOM      4  C   UNL     1       4.128   3.797  16.452  0.00  0.00    +0.000 A 
ATOM      5  C   UNL     1       5.146   3.892  17.401  0.00  0.00    +0.000 A 
ATOM      6  C   UNL     1       4.807   3.574  18.734  0.00  0.00    +0.000 A 
ATOM      7  C   UNL     1       3.537   3.103  19.119  0.00  0.00    +0.000 A 
ENDROOT
BRANCH   5   8
ATOM      8  N   UNL     1       6.422   4.423  17.123  0.00  0.00    +0.000 N 
ATOM      9  H   UNL     1       7.065   4.251  17.899  0.00  0.00    +0.000 HD
BRANCH   8  10
ATOM     10  C   UNL     1       7.074   4.030  15.848  0.00  0.00    +0.000 C 
BRANCH  10  11
ATOM     11  S   UNL     1       6.840   5.152  14.429  0.00  0.00    +0.000 S 
ATOM     12  O   UNL     1       5.748   6.066  14.710  0.00  0.00    +0.000 OA
ATOM     13  O   UNL     1       8.140   5.661  14.026  0.00  0.00    +0.000 OA
BRANCH  11  14
ATOM     14  C   UNL     1       6.282   4.039  13.155  0.00  0.00    +0.000 A 
ATOM     15  C   UNL     1       7.221   3.287  12.440  0.00  0.00    +0.000 A 
ATOM     16  C   UNL     1       6.781   2.420  11.438  0.00  0.00    +0.000 A 
ATOM     17  C   UNL     1       5.417   2.306  11.165  0.00  0.00    +0.000 A 
ATOM     18  C   UNL     1       4.485   3.046  11.895  0.00  0.00    +0.000 A 
ATOM     19  C   UNL     1       4.915   3.914  12.896  0.00  0.00    +0.000 A 
ENDBRANCH  11  14
ENDBRANCH  10  11
ENDBRANCH   8  10
ENDBRANCH   5   8
BRANCH   6  20
ATOM     20  O   UNL     1       5.755   3.779  19.713  0.00  0.00    +0.000 OA
ATOM     21  H   UNL     1       6.416   4.357  19.285  0.00  0.00    +0.000 HD
ENDBRANCH   6  20
BRANCH   7  22
ATOM     22  C   UNL     1       3.259   2.816  20.577  0.00  0.00    +0.000 C 
BRANCH  22  23
ATOM     23  C   UNL     1       2.397   3.855  21.263  0.00  0.00    +0.000 C 
ATOM     24  O   UNL     1       1.598   3.560  22.149  0.00  0.00    +0.000 OA
ATOM     25  N   UNL     1       2.542   5.133  20.765  0.00  0.00    +0.000 N 
ATOM     26  H   UNL     1       3.342   5.320  20.169  0.00  0.00    +0.000 HD
BRANCH  25  27
ATOM     27  C   UNL     1       1.741   6.237  21.239  0.00  0.00    +0.000 C 
BRANCH  27  28
ATOM     28  C   UNL     1       1.703   7.389  20.276  0.00  0.00    +0.000 A 
ATOM     29  C   UNL     1       2.309   7.254  19.021  0.00  0.00    +0.000 A 
ATOM     30  C   UNL     1       2.322   8.319  18.130  0.00  0.00    +0.000 A 
ATOM     31  C   UNL     1       1.715   9.503  18.506  0.00  0.00    +0.000 A 
ATOM     32  N   UNL     1       1.767  10.616  17.672  0.00  0.00    +0.000 N 
ATOM     33  N   UNL     1       1.104   9.663  19.691  0.00  0.00    +0.000 NA
ATOM     34  C   UNL     1       1.089   8.614  20.558  0.00  0.00    +0.000 A 
ATOM     35  C   UNL     1       0.389   8.867  21.862  0.00  0.00    +0.000 C 
ATOM     36  H   UNL     1       1.438  10.401  16.739  0.00  0.00    +0.000 HD
ATOM     37  H   UNL     1       1.218  11.346  18.120  0.00  0.00    +0.000 HD
ENDBRANCH  27  28
ENDBRANCH  25  27
ENDBRANCH  22  23
ENDBRANCH   7  22
TORSDOF 9
ENDMDL
MODEL 6
REMARK VINA RESULT:      -7.9      3.807      6.181
REMARK  Name = 
REMARK  11 active torsions:
REMARK  status: ('A' for Active; 'I' for Inactive)
REMARK    1  A    between atoms: C_1  and  C_2
REMARK    2  A    between atoms: C_5  and  N_6
REMARK    3  A    between atoms: N_6  and  C_7
REMARK    4  A    between atoms: C_7  and  S_8
REMARK    5  A    between atoms: S_8  and  C_11
REMARK    6  A    between atoms: C_17  and  O_18
REMARK    7  A    between atoms: C_19  and  C_20
REMARK    8  A    between atoms: C_20  and  C_21
REMARK    9  A    between atoms: N_23  and  C_24
REMARK   10  A    between atoms: C_24  and  C_25
REMARK   11  A    between atoms: C_31  and  C_32
REMARK                            x       y       z     vdW  Elec       q    Type
REMARK                         _______ _______ _______ _____ _____    ______ ____
ROOT
ATOM      1  C   UNL     1       2.527   2.540  21.452  0.00  0.00    +0.000 C 
ATOM      2  C   UNL     1       2.959   2.919  20.061  0.00  0.00    +0.000 A 
ATOM      3  C   UNL     1       3.045   1.901  19.098  0.00  0.00    +0.000 A 
ATOM      4  C   UNL     1       3.448   2.168  17.786  0.00  0.00    +0.000 A 
ATOM      5  C   UNL     1       3.833   3.452  17.400  0.00  0.00    +0.000 A 
ATOM      6  C   UNL     1       3.703   4.473  18.366  0.00  0.00    +0.000 A 
ATOM      7  C   UNL     1       3.284   4.240  19.690  0.00  0.00    +0.000 A 
ENDROOT
BRANCH   5   8
ATOM      8  N   UNL     1       4.192   3.793  16.081  0.00  0.00    +0.000 N 
ATOM      9  H   UNL     1       3.775   4.686  15.810  0.00  0.00    +0.000 HD
BRANCH   8  10
ATOM     10  C   UNL     1       5.636   3.799  15.734  0.00  0.00    +0.000 C 
BRANCH  10  11
ATOM     11  S   UNL     1       6.381   5.420  15.357  0.00  0.00    +0.000 S 
ATOM     12  O   UNL     1       7.459   5.246  14.401  0.00  0.00    +0.000 OA
ATOM     13  O   UNL     1       5.312   6.368  15.096  0.00  0.00    +0.000 OA
BRANCH  11  14
ATOM     14  C   UNL     1       7.124   5.865  16.913  0.00  0.00    +0.000 A 
ATOM     15  C   UNL     1       7.356   4.873  17.874  0.00  0.00    +0.000 A 
ATOM     16  C   UNL     1       7.933   5.227  19.094  0.00  0.00    +0.000 A 
ATOM     17  C   UNL     1       8.280   6.556  19.343  0.00  0.00    +0.000 A 
ATOM     18  C   UNL     1       8.063   7.537  18.373  0.00  0.00    +0.000 A 
ATOM     19  C   UNL     1       7.487   7.193  17.152  0.00  0.00    +0.000 A 
ENDBRANCH  11  14
ENDBRANCH  10  11
ENDBRANCH   8  10
ENDBRANCH   5   8
BRANCH   6  20
ATOM     20  O   UNL     1       3.955   5.772  17.977  0.00  0.00    +0.000 OA
ATOM     21  H   UNL     1       3.432   5.879  17.160  0.00  0.00    +0.000 HD
ENDBRANCH   6  20
BRANCH   7  22
ATOM     22  C   UNL     1       3.148   5.404  20.645  0.00  0.00    +0.000 C 
BRANCH  22  23
ATOM     23  C   UNL     1       1.787   6.066  20.628  0.00  0.00    +0.000 C 
ATOM     24  O   UNL     1       0.758   5.441  20.380  0.00  0.00    +0.000 OA
ATOM     25  N   UNL     1       1.813   7.428  20.850  0.00  0.00    +0.000 N 
ATOM     26  H   UNL     1       2.668   7.828  21.222  0.00  0.00    +0.000 HD
BRANCH  25  27
ATOM     27  C   UNL     1       0.621   8.239  20.787  0.00  0.00    +0.000 C 
BRANCH  27  28
ATOM     28  C   UNL     1       0.883   9.628  20.277  0.00  0.00    +0.000 A 
ATOM     29  C   UNL     1       0.716  10.717  21.140  0.00  0.00    +0.000 A 
ATOM     30  C   UNL     1       0.913  12.013  20.680  0.00  0.00    +0.000 A 
ATOM     31  C   UNL     1       1.287  12.196  19.362  0.00  0.00    +0.000 A 
ATOM     32  N   UNL     1       1.426  13.481  18.842  0.00  0.00    +0.000 N 
ATOM     33  N   UNL     1       1.479  11.176  18.511  0.00  0.00    +0.000 NA
ATOM     34  C   UNL     1       1.290   9.908  18.968  0.00  0.00    +0.000 A 
ATOM     35  C   UNL     1       1.521   8.819  17.961  0.00  0.00    +0.000 C 
ATOM     36  H   UNL     1       2.047  14.047  19.405  0.00  0.00    +0.000 HD
ATOM     37  H   UNL     1       1.753  13.377  17.885  0.00  0.00    +0.000 HD
ENDBRANCH  27  28
ENDBRANCH  25  27
ENDBRANCH  22  23
ENDBRANCH   7  22
TORSDOF 9
ENDMDL
MODEL 7
REMARK VINA RESULT:      -7.7      2.782      4.293
REMARK  Name = 
REMARK  11 active torsions:
REMARK  status: ('A' for Active; 'I' for Inactive)
REMARK    1  A    between atoms: C_1  and  C_2
REMARK    2  A    between atoms: C_5  and  N_6
REMARK    3  A    between atoms: N_6  and  C_7
REMARK    4  A    between atoms: C_7  and  S_8
REMARK    5  A    between atoms: S_8  and  C_11
REMARK    6  A    between atoms: C_17  and  O_18
REMARK    7  A    between atoms: C_19  and  C_20
REMARK    8  A    between atoms: C_20  and  C_21
REMARK    9  A    between atoms: N_23  and  C_24
REMARK   10  A    between atoms: C_24  and  C_25
REMARK   11  A    between atoms: C_31  and  C_32
REMARK                            x       y       z     vdW  Elec       q    Type
REMARK                         _______ _______ _______ _____ _____    ______ ____
ROOT
ATOM      1  C   UNL     1       1.762  10.864  17.671  0.00  0.00    +0.000 C 
ATOM      2  C   UNL     1       1.943   9.559  18.398  0.00  0.00    +0.000 A 
ATOM      3  C   UNL     1       2.482   8.477  17.683  0.00  0.00    +0.000 A 
ATOM      4  C   UNL     1       2.674   7.229  18.283  0.00  0.00    +0.000 A 
ATOM      5  C   UNL     1       2.284   6.998  19.601  0.00  0.00    +0.000 A 
ATOM      6  C   UNL     1       1.781   8.104  20.321  0.00  0.00    +0.000 A 
ATOM      7  C   UNL     1       1.592   9.378  19.751  0.00  0.00    +0.000 A 
ENDROOT
BRANCH   5   8
ATOM      8  N   UNL     1       2.504   5.780  20.276  0.00  0.00    +0.000 N 
ATOM      9  H   UNL     1       2.611   5.935  21.281  0.00  0.00    +0.000 HD
BRANCH   8  10
ATOM     10  C   UNL     1       1.537   4.676  20.049  0.00  0.00    +0.000 C 
BRANCH  10  11
ATOM     11  S   UNL     1       1.898   3.544  18.666  0.00  0.00    +0.000 S 
ATOM     12  O   UNL     1       1.886   2.174  19.147  0.00  0.00    +0.000 OA
ATOM     13  O   UNL     1       1.080   3.931  17.529  0.00  0.00    +0.000 OA
BRANCH  11  14
ATOM     14  C   UNL     1       3.587   3.951  18.274  0.00  0.00    +0.000 A 
ATOM     15  C   UNL     1       4.538   4.001  19.300  0.00  0.00    +0.000 A 
ATOM     16  C   UNL     1       5.860   4.326  18.990  0.00  0.00    +0.000 A 
ATOM     17  C   UNL     1       6.222   4.588  17.668  0.00  0.00    +0.000 A 
ATOM     18  C   UNL     1       5.271   4.518  16.647  0.00  0.00    +0.000 A 
ATOM     19  C   UNL     1       3.950   4.195  16.947  0.00  0.00    +0.000 A 
ENDBRANCH  11  14
ENDBRANCH  10  11
ENDBRANCH   8  10
ENDBRANCH   5   8
BRANCH   6  20
ATOM     20  O   UNL     1       1.505   7.937  21.661  0.00  0.00    +0.000 OA
ATOM     21  H   UNL     1       2.351   7.627  22.039  0.00  0.00    +0.000 HD
ENDBRANCH   6  20
BRANCH   7  22
ATOM     22  C   UNL     1       1.074  10.509  20.610  0.00  0.00    +0.000 C 
BRANCH  22  23
ATOM     23  C   UNL     1      -0.434  10.648  20.612  0.00  0.00    +0.000 C 
ATOM     24  O   UNL     1      -1.162   9.868  21.223  0.00  0.00    +0.000 OA
ATOM     25  N   UNL     1      -0.913  11.675  19.825  0.00  0.00    +0.000 N 
ATOM     26  H   UNL     1      -0.248  12.374  19.507  0.00  0.00    +0.000 HD
BRANCH  25  27
ATOM     27  C   UNL     1      -2.325  11.905  19.639  0.00  0.00    +0.000 C 
BRANCH  27  28
ATOM     28  C   UNL     1      -2.832  11.404  18.316  0.00  0.00    +0.000 A 
ATOM     29  C   UNL     1      -1.954  10.733  17.456  0.00  0.00    +0.000 A 
ATOM     30  C   UNL     1      -2.389  10.296  16.212  0.00  0.00    +0.000 A 
ATOM     31  C   UNL     1      -3.703  10.529  15.852  0.00  0.00    +0.000 A 
ATOM     32  N   UNL     1      -4.161  10.171  14.586  0.00  0.00    +0.000 N 
ATOM     33  N   UNL     1      -4.580  11.148  16.658  0.00  0.00    +0.000 NA
ATOM     34  C   UNL     1      -4.151  11.569  17.879  0.00  0.00    +0.000 A 
ATOM     35  C   UNL     1      -5.185  12.254  18.725  0.00  0.00    +0.000 C 
ATOM     36  H   UNL     1      -3.967   9.200  14.379  0.00  0.00    +0.000 HD
ATOM     37  H   UNL     1      -5.154  10.384  14.561  0.00  0.00    +0.000 HD
ENDBRANCH  27  28
ENDBRANCH  25  27
ENDBRANCH  22  23
ENDBRANCH   7  22
TORSDOF 9
ENDMDL
MODEL 8
REMARK VINA RESULT:      -7.6      1.950      3.157
REMARK  Name = 
REMARK  11 active torsions:
REMARK  status: ('A' for Active; 'I' for Inactive)
REMARK    1  A    between atoms: C_1  and  C_2
REMARK    2  A    between atoms: C_5  and  N_6
REMARK    3  A    between atoms: N_6  and  C_7
REMARK    4  A    between atoms: C_7  and  S_8
REMARK    5  A    between atoms: S_8  and  C_11
REMARK    6  A    between atoms: C_17  and  O_18
REMARK    7  A    between atoms: C_19  and  C_20
REMARK    8  A    between atoms: C_20  and  C_21
REMARK    9  A    between atoms: N_23  and  C_24
REMARK   10  A    between atoms: C_24  and  C_25
REMARK   11  A    between atoms: C_31  and  C_32
REMARK                            x       y       z     vdW  Elec       q    Type
REMARK                         _______ _______ _______ _____ _____    ______ ____
ROOT
ATOM      1  C   UNL     1       1.868  10.819  17.758  0.00  0.00    +0.000 C 
ATOM      2  C   UNL     1       1.989   9.456  18.387  0.00  0.00    +0.000 A 
ATOM      3  C   UNL     1       2.566   8.429  17.623  0.00  0.00    +0.000 A 
ATOM      4  C   UNL     1       2.707   7.133  18.130  0.00  0.00    +0.000 A 
ATOM      5  C   UNL     1       2.226   6.801  19.396  0.00  0.00    +0.000 A 
ATOM      6  C   UNL     1       1.686   7.852  20.169  0.00  0.00    +0.000 A 
ATOM      7  C   UNL     1       1.547   9.171  19.695  0.00  0.00    +0.000 A 
ENDROOT
BRANCH   5   8
ATOM      8  N   UNL     1       2.391   5.530  19.982  0.00  0.00    +0.000 N 
ATOM      9  H   UNL     1       1.774   4.844  19.542  0.00  0.00    +0.000 HD
BRANCH   8  10
ATOM     10  C   UNL     1       3.766   4.976  20.063  0.00  0.00    +0.000 C 
BRANCH  10  11
ATOM     11  S   UNL     1       4.121   3.513  19.032  0.00  0.00    +0.000 S 
ATOM     12  O   UNL     1       4.898   2.558  19.800  0.00  0.00    +0.000 OA
ATOM     13  O   UNL     1       2.891   3.104  18.377  0.00  0.00    +0.000 OA
BRANCH  11  14
ATOM     14  C   UNL     1       5.197   4.184  17.781  0.00  0.00    +0.000 A 
ATOM     15  C   UNL     1       4.984   3.849  16.439  0.00  0.00    +0.000 A 
ATOM     16  C   UNL     1       5.832   4.372  15.462  0.00  0.00    +0.000 A 
ATOM     17  C   UNL     1       6.874   5.226  15.827  0.00  0.00    +0.000 A 
ATOM     18  C   UNL     1       7.069   5.570  17.166  0.00  0.00    +0.000 A 
ATOM     19  C   UNL     1       6.228   5.052  18.148  0.00  0.00    +0.000 A 
ENDBRANCH  11  14
ENDBRANCH  10  11
ENDBRANCH   8  10
ENDBRANCH   5   8
BRANCH   6  20
ATOM     20  O   UNL     1       1.320   7.582  21.470  0.00  0.00    +0.000 OA
ATOM     21  H   UNL     1       1.974   6.919  21.766  0.00  0.00    +0.000 HD
ENDBRANCH   6  20
BRANCH   7  22
ATOM     22  C   UNL     1       0.982  10.236  20.607  0.00  0.00    +0.000 C 
BRANCH  22  23
ATOM     23  C   UNL     1      -0.414  10.692  20.240  0.00  0.00    +0.000 C 
ATOM     24  O   UNL     1      -1.174   9.998  19.567  0.00  0.00    +0.000 OA
ATOM     25  N   UNL     1      -0.729  11.965  20.669  0.00  0.00    +0.000 N 
ATOM     26  H   UNL     1      -0.124  12.391  21.364  0.00  0.00    +0.000 HD
BRANCH  25  27
ATOM     27  C   UNL     1      -1.984  12.598  20.339  0.00  0.00    +0.000 C 
BRANCH  27  28
ATOM     28  C   UNL     1      -2.955  12.606  21.486  0.00  0.00    +0.000 A 
ATOM     29  C   UNL     1      -2.468  12.544  22.797  0.00  0.00    +0.000 A 
ATOM     30  C   UNL     1      -3.348  12.510  23.871  0.00  0.00    +0.000 A 
ATOM     31  C   UNL     1      -4.705  12.550  23.614  0.00  0.00    +0.000 A 
ATOM     32  N   UNL     1      -5.622  12.447  24.657  0.00  0.00    +0.000 N 
ATOM     33  N   UNL     1      -5.210  12.633  22.373  0.00  0.00    +0.000 NA
ATOM     34  C   UNL     1      -4.343  12.673  21.324  0.00  0.00    +0.000 A 
ATOM     35  C   UNL     1      -4.978  12.764  19.967  0.00  0.00    +0.000 C 
ATOM     36  H   UNL     1      -5.441  13.126  25.385  0.00  0.00    +0.000 HD
ATOM     37  H   UNL     1      -6.547  12.552  24.248  0.00  0.00    +0.000 HD
ENDBRANCH  27  28
ENDBRANCH  25  27
ENDBRANCH  22  23
ENDBRANCH   7  22
TORSDOF 9
ENDMDL
MODEL 9
REMARK VINA RESULT:      -7.6      2.708      4.606
REMARK  Name = 
REMARK  11 active torsions:
REMARK  status: ('A' for Active; 'I' for Inactive)
REMARK    1  A    between atoms: C_1  and  C_2
REMARK    2  A    between atoms: C_5  and  N_6
REMARK    3  A    between atoms: N_6  and  C_7
REMARK    4  A    between atoms: C_7  and  S_8
REMARK    5  A    between atoms: S_8  and  C_11
REMARK    6  A    between atoms: C_17  and  O_18
REMARK    7  A    between atoms: C_19  and  C_20
REMARK    8  A    between atoms: C_20  and  C_21
REMARK    9  A    between atoms: N_23  and  C_24
REMARK   10  A    between atoms: C_24  and  C_25
REMARK   11  A    between atoms: C_31  and  C_32
REMARK                            x       y       z     vdW  Elec       q    Type
REMARK                         _______ _______ _______ _____ _____    ______ ____
ROOT
ATOM      1  C   UNL     1       1.793  10.860  17.992  0.00  0.00    +0.000 C 
ATOM      2  C   UNL     1       1.925   9.462  18.535  0.00  0.00    +0.000 A 
ATOM      3  C   UNL     1       2.414   8.466  17.675  0.00  0.00    +0.000 A 
ATOM      4  C   UNL     1       2.558   7.141  18.099  0.00  0.00    +0.000 A 
ATOM      5  C   UNL     1       2.168   6.751  19.380  0.00  0.00    +0.000 A 
ATOM      6  C   UNL     1       1.717   7.769  20.247  0.00  0.00    +0.000 A 
ATOM      7  C   UNL     1       1.577   9.115  19.856  0.00  0.00    +0.000 A 
ENDROOT
BRANCH   5   8
ATOM      8  N   UNL     1       2.343   5.446  19.882  0.00  0.00    +0.000 N 
ATOM      9  H   UNL     1       1.731   5.280  20.685  0.00  0.00    +0.000 HD
BRANCH   8  10
ATOM     10  C   UNL     1       2.221   4.313  18.929  0.00  0.00    +0.000 C 
BRANCH  10  11
ATOM     11  S   UNL     1       3.685   3.243  18.738  0.00  0.00    +0.000 S 
ATOM     12  O   UNL     1       4.170   2.848  20.048  0.00  0.00    +0.000 OA
ATOM     13  O   UNL     1       3.394   2.241  17.728  0.00  0.00    +0.000 OA
BRANCH  11  14
ATOM     14  C   UNL     1       4.886   4.364  18.048  0.00  0.00    +0.000 A 
ATOM     15  C   UNL     1       4.860   4.640  16.676  0.00  0.00    +0.000 A 
ATOM     16  C   UNL     1       5.806   5.515  16.138  0.00  0.00    +0.000 A 
ATOM     17  C   UNL     1       6.757   6.110  16.968  0.00  0.00    +0.000 A 
ATOM     18  C   UNL     1       6.765   5.844  18.339  0.00  0.00    +0.000 A 
ATOM     19  C   UNL     1       5.826   4.972  18.884  0.00  0.00    +0.000 A 
ENDBRANCH  11  14
ENDBRANCH  10  11
ENDBRANCH   8  10
ENDBRANCH   5   8
BRANCH   6  20
ATOM     20  O   UNL     1       1.445   7.435  21.556  0.00  0.00    +0.000 OA
ATOM     21  H   UNL     1       1.624   6.476  21.598  0.00  0.00    +0.000 HD
ENDBRANCH   6  20
BRANCH   7  22
ATOM     22  C   UNL     1       1.113  10.140  20.865  0.00  0.00    +0.000 C 
BRANCH  22  23
ATOM     23  C   UNL     1       0.149  11.167  20.310  0.00  0.00    +0.000 C 
ATOM     24  O   UNL     1       0.432  12.362  20.244  0.00  0.00    +0.000 OA
ATOM     25  N   UNL     1      -1.081  10.658  19.949  0.00  0.00    +0.000 N 
ATOM     26  H   UNL     1      -1.167   9.650  19.863  0.00  0.00    +0.000 HD
BRANCH  25  27
ATOM     27  C   UNL     1      -2.154  11.501  19.478  0.00  0.00    +0.000 C 
BRANCH  27  28
ATOM     28  C   UNL     1      -2.694  11.073  18.143  0.00  0.00    +0.000 A 
ATOM     29  C   UNL     1      -1.877  10.334  17.279  0.00  0.00    +0.000 A 
ATOM     30  C   UNL     1      -2.340   9.962  16.024  0.00  0.00    +0.000 A 
ATOM     31  C   UNL     1      -3.622  10.328  15.657  0.00  0.00    +0.000 A 
ATOM     32  N   UNL     1      -4.100  10.036  14.382  0.00  0.00    +0.000 N 
ATOM     33  N   UNL     1      -4.442  11.017  16.466  0.00  0.00    +0.000 NA
ATOM     34  C   UNL     1      -3.986  11.373  17.698  0.00  0.00    +0.000 A 
ATOM     35  C   UNL     1      -4.956  12.143  18.547  0.00  0.00    +0.000 C 
ATOM     36  H   UNL     1      -4.000   9.055  14.160  0.00  0.00    +0.000 HD
ATOM     37  H   UNL     1      -5.068  10.346  14.352  0.00  0.00    +0.000 HD
ENDBRANCH  27  28
ENDBRANCH  25  27
ENDBRANCH  22  23
ENDBRANCH   7  22
TORSDOF 9
ENDMDL
