MODEL 1
REMARK VINA RESULT:      -8.8      0.000      0.000
REMARK  Name = 
REMARK  9 active torsions:
REMARK  status: ('A' for Active; 'I' for Inactive)
REMARK    1  A    between atoms: S_2  and  C_4
REMARK    2  A    between atoms: S_2  and  N_11
REMARK    3  A    between atoms: N_11  and  C_12
REMARK    4  A    between atoms: N_11  and  C_17
REMARK    5  A    between atoms: C_12  and  C_13
REMARK    6  A    between atoms: C_20  and  C_21
REMARK    7  A    between atoms: C_21  and  O_22
REMARK    8  A    between atoms: C_21  and  C_23
REMARK    9  A    between atoms: C_21  and  C_27
REMARK                            x       y       z     vdW  Elec       q    Type
REMARK                         _______ _______ _______ _____ _____    ______ ____
ROOT
ATOM      1  C   UNL     1       2.832   6.183  19.000  0.00  0.00    +0.000 A 
ATOM      2  C   UNL     1       3.004   7.000  17.888  0.00  0.00    +0.000 A 
ATOM      3  C   UNL     1       2.477   8.292  17.880  0.00  0.00    +0.000 A 
ATOM      4  C   UNL     1       1.742   8.792  18.975  0.00  0.00    +0.000 A 
ATOM      5  C   UNL     1       1.603   7.958  20.099  0.00  0.00    +0.000 A 
ATOM      6  C   UNL     1       2.154   6.671  20.113  0.00  0.00    +0.000 A 
ENDROOT
BRANCH   1   7
ATOM      7  N   UNL     1       3.362   4.860  18.948  0.00  0.00    +0.000 N 
BRANCH   7   9
ATOM      8  O   UNL     1       5.258   3.329  19.642  0.00  0.00    +0.000 OA
ATOM      9  S   UNL     1       5.031   4.656  19.113  0.00  0.00    +0.000 S 
ATOM     10  O   UNL     1       5.625   5.832  19.719  0.00  0.00    +0.000 OA
BRANCH   9  11
ATOM     11  C   UNL     1       5.567   4.642  17.405  0.00  0.00    +0.000 A 
ATOM     12  C   UNL     1       6.886   4.989  17.083  0.00  0.00    +0.000 A 
ATOM     13  C   UNL     1       7.305   4.935  15.752  0.00  0.00    +0.000 A 
ATOM     14  C   UNL     1       6.414   4.533  14.762  0.00  0.00    +0.000 A 
ATOM     15  F   UNL     1       6.820   4.485  13.485  0.00  0.00    +0.000 F 
ATOM     16  C   UNL     1       5.105   4.172  15.076  0.00  0.00    +0.000 A 
ATOM     17  C   UNL     1       4.678   4.214  16.404  0.00  0.00    +0.000 A 
ENDBRANCH   9  11
ENDBRANCH   7   9
BRANCH   7  18
ATOM     18  C   UNL     1       2.465   3.697  19.207  0.00  0.00    +0.000 C 
BRANCH  18  19
ATOM     19  C   UNL     1       1.546   3.244  18.066  0.00  0.00    +0.000 C 
ATOM     20  F   UNL     1       1.089   4.237  17.284  0.00  0.00    +0.000 F 
ATOM     21  F   UNL     1       2.212   2.376  17.260  0.00  0.00    +0.000 F 
ATOM     22  F   UNL     1       0.473   2.576  18.551  0.00  0.00    +0.000 F 
ENDBRANCH  18  19
ENDBRANCH   7  18
ENDBRANCH   1   7
BRANCH   4  23
ATOM     23  C   UNL     1       1.087  10.191  18.941  0.00  0.00    +0.000 C 
BRANCH  23  24
ATOM     24  C   UNL     1      -0.343  10.136  18.334  0.00  0.00    +0.000 C 
ATOM     25  F   UNL     1      -0.838  11.368  18.057  0.00  0.00    +0.000 F 
ATOM     26  F   UNL     1      -0.506   9.403  17.222  0.00  0.00    +0.000 F 
ATOM     27  F   UNL     1      -1.198   9.618  19.266  0.00  0.00    +0.000 F 
ENDBRANCH  23  24
BRANCH  23  28
ATOM     28  C   UNL     1       1.057  10.869  20.340  0.00  0.00    +0.000 C 
ATOM     29  F   UNL     1       1.833  11.982  20.391  0.00  0.00    +0.000 F 
ATOM     30  F   UNL     1      -0.197  11.283  20.662  0.00  0.00    +0.000 F 
ATOM     31  F   UNL     1       1.464  10.095  21.365  0.00  0.00    +0.000 F 
ENDBRANCH  23  28
BRANCH  23  32
ATOM     32  O   UNL     1       1.943  10.998  18.044  0.00  0.00    +0.000 OA
ATOM     33  H   UNL     1       2.559  10.384  17.599  0.00  0.00    +0.000 HD
ENDBRANCH  23  32
ENDBRANCH   4  23
TORSDOF 9
ENDMDL
MODEL 2
REMARK VINA RESULT:      -8.7      0.330      1.219
REMARK  Name = 
REMARK  9 active torsions:
REMARK  status: ('A' for Active; 'I' for Inactive)
REMARK    1  A    between atoms: S_2  and  C_4
REMARK    2  A    between atoms: S_2  and  N_11
REMARK    3  A    between atoms: N_11  and  C_12
REMARK    4  A    between atoms: N_11  and  C_17
REMARK    5  A    between atoms: C_12  and  C_13
REMARK    6  A    between atoms: C_20  and  C_21
REMARK    7  A    between atoms: C_21  and  O_22
REMARK    8  A    between atoms: C_21  and  C_23
REMARK    9  A    between atoms: C_21  and  C_27
REMARK                            x       y       z     vdW  Elec       q    Type
REMARK                         _______ _______ _______ _____ _____    ______ ____
ROOT
ATOM      1  C   UNL     1       2.790   6.168  19.043  0.00  0.00    +0.000 A 
ATOM      2  C   UNL     1       2.956   7.005  17.946  0.00  0.00    +0.000 A 
ATOM      3  C   UNL     1       2.411   8.290  17.956  0.00  0.00    +0.000 A 
ATOM      4  C   UNL     1       1.664   8.761  19.056  0.00  0.00    +0.000 A 
ATOM      5  C   UNL     1       1.531   7.908  20.165  0.00  0.00    +0.000 A 
ATOM      6  C   UNL     1       2.099   6.628  20.161  0.00  0.00    +0.000 A 
ENDROOT
BRANCH   1   7
ATOM      7  N   UNL     1       3.338   4.853  18.973  0.00  0.00    +0.000 N 
BRANCH   7   9
ATOM      8  O   UNL     1       5.261   3.335  19.619  0.00  0.00    +0.000 OA
ATOM      9  S   UNL     1       5.010   4.670  19.123  0.00  0.00    +0.000 S 
ATOM     10  O   UNL     1       5.590   5.840  19.753  0.00  0.00    +0.000 OA
BRANCH   9  11
ATOM     11  C   UNL     1       5.536   4.705  17.412  0.00  0.00    +0.000 A 
ATOM     12  C   UNL     1       6.794   5.223  17.076  0.00  0.00    +0.000 A 
ATOM     13  C   UNL     1       7.210   5.207  15.744  0.00  0.00    +0.000 A 
ATOM     14  C   UNL     1       6.378   4.673  14.766  0.00  0.00    +0.000 A 
ATOM     15  F   UNL     1       6.780   4.662  13.487  0.00  0.00    +0.000 F 
ATOM     16  C   UNL     1       5.132   4.141  15.092  0.00  0.00    +0.000 A 
ATOM     17  C   UNL     1       4.709   4.144  16.422  0.00  0.00    +0.000 A 
ENDBRANCH   9  11
ENDBRANCH   7   9
BRANCH   7  18
ATOM     18  C   UNL     1       2.459   3.674  19.225  0.00  0.00    +0.000 C 
BRANCH  18  19
ATOM     19  C   UNL     1       1.615   3.155  18.054  0.00  0.00    +0.000 C 
ATOM     20  F   UNL     1       2.237   2.259  17.268  0.00  0.00    +0.000 F 
ATOM     21  F   UNL     1       0.492   2.558  18.529  0.00  0.00    +0.000 F 
ATOM     22  F   UNL     1       1.207   4.178  17.267  0.00  0.00    +0.000 F 
ENDBRANCH  18  19
ENDBRANCH   7  18
ENDBRANCH   1   7
BRANCH   4  23
ATOM     23  C   UNL     1       0.991  10.152  19.041  0.00  0.00    +0.000 C 
BRANCH  23  24
ATOM     24  C   UNL     1      -0.400  10.104  18.347  0.00  0.00    +0.000 C 
ATOM     25  F   UNL     1      -0.376   9.412  17.182  0.00  0.00    +0.000 F 
ATOM     26  F   UNL     1      -1.421   9.609  19.062  0.00  0.00    +0.000 F 
ATOM     27  F   UNL     1      -0.758  11.374  17.991  0.00  0.00    +0.000 F 
ENDBRANCH  23  24
BRANCH  23  28
ATOM     28  C   UNL     1       0.867  10.769  20.462  0.00  0.00    +0.000 C 
ATOM     29  F   UNL     1      -0.194  10.274  21.150  0.00  0.00    +0.000 F 
ATOM     30  F   UNL     1       1.958  10.486  21.222  0.00  0.00    +0.000 F 
ATOM     31  F   UNL     1       0.730  12.109  20.499  0.00  0.00    +0.000 F 
ENDBRANCH  23  28
BRANCH  23  32
ATOM     32  O   UNL     1       1.886  11.008  18.231  0.00  0.00    +0.000 OA
ATOM     33  H   UNL     1       1.674  10.842  17.292  0.00  0.00    +0.000 HD
ENDBRANCH  23  32
ENDBRANCH   4  23
TORSDOF 9
ENDMDL
MODEL 3
REMARK VINA RESULT:      -8.6      0.512      1.401
REMARK  Name = 
REMARK  9 active torsions:
REMARK  status: ('A' for Active; 'I' for Inactive)
REMARK    1  A    between atoms: S_2  and  C_4
REMARK    2  A    between atoms: S_2  and  N_11
REMARK    3  A    between atoms: N_11  and  C_12
REMARK    4  A    between atoms: N_11  and  C_17
REMARK    5  A    between atoms: C_12  and  C_13
REMARK    6  A    between atoms: C_20  and  C_21
REMARK    7  A    between atoms: C_21  and  O_22
REMARK    8  A    between atoms: C_21  and  C_23
REMARK    9  A    between atoms: C_21  and  C_27
REMARK                            x       y       z     vdW  Elec       q    Type
REMARK                         _______ _______ _______ _____ _____    ______ ____
ROOT
ATOM      1  C   UNL     1       2.797   5.983  19.025  0.00  0.00    +0.000 A 
ATOM      2  C   UNL     1       2.081   6.295  20.175  0.00  0.00    +0.000 A 
ATOM      3  C   UNL     1       1.479   7.546  20.308  0.00  0.00    +0.000 A 
ATOM      4  C   UNL     1       1.597   8.528  19.302  0.00  0.00    +0.000 A 
ATOM      5  C   UNL     1       2.302   8.182  18.136  0.00  0.00    +0.000 A 
ATOM      6  C   UNL     1       2.886   6.917  17.996  0.00  0.00    +0.000 A 
ENDROOT
BRANCH   1   7
ATOM      7  N   UNL     1       3.421   4.703  18.950  0.00  0.00    +0.000 N 
BRANCH   7   9
ATOM      8  O   UNL     1       5.428   3.323  19.650  0.00  0.00    +0.000 OA
ATOM      9  S   UNL     1       5.102   4.619  19.098  0.00  0.00    +0.000 S 
ATOM     10  O   UNL     1       5.619   5.846  19.672  0.00  0.00    +0.000 OA
BRANCH   9  11
ATOM     11  C   UNL     1       5.618   4.607  17.383  0.00  0.00    +0.000 A 
ATOM     12  C   UNL     1       6.939   4.933  17.047  0.00  0.00    +0.000 A 
ATOM     13  C   UNL     1       7.342   4.880  15.712  0.00  0.00    +0.000 A 
ATOM     14  C   UNL     1       6.432   4.500  14.730  0.00  0.00    +0.000 A 
ATOM     15  F   UNL     1       6.822   4.453  13.448  0.00  0.00    +0.000 F 
ATOM     16  C   UNL     1       5.121   4.159  15.057  0.00  0.00    +0.000 A 
ATOM     17  C   UNL     1       4.710   4.201  16.390  0.00  0.00    +0.000 A 
ENDBRANCH   9  11
ENDBRANCH   7   9
BRANCH   7  18
ATOM     18  C   UNL     1       2.614   3.474  19.200  0.00  0.00    +0.000 C 
BRANCH  18  19
ATOM     19  C   UNL     1       1.653   3.020  18.095  0.00  0.00    +0.000 C 
ATOM     20  F   UNL     1       1.209   4.006  17.297  0.00  0.00    +0.000 F 
ATOM     21  F   UNL     1       2.270   2.109  17.299  0.00  0.00    +0.000 F 
ATOM     22  F   UNL     1       0.572   2.401  18.625  0.00  0.00    +0.000 F 
ENDBRANCH  18  19
ENDBRANCH   7  18
ENDBRANCH   1   7
BRANCH   4  23
ATOM     23  C   UNL     1       1.000   9.942  19.476  0.00  0.00    +0.000 C 
BRANCH  23  24
ATOM     24  C   UNL     1      -0.256  10.145  18.583  0.00  0.00    +0.000 C 
ATOM     25  F   UNL     1      -0.175   9.470  17.410  0.00  0.00    +0.000 F 
ATOM     26  F   UNL     1      -1.444   9.830  19.121  0.00  0.00    +0.000 F 
ATOM     27  F   UNL     1      -0.332  11.462  18.223  0.00  0.00    +0.000 F 
ENDBRANCH  23  24
BRANCH  23  28
ATOM     28  C   UNL     1       0.669  10.270  20.960  0.00  0.00    +0.000 C 
ATOM     29  F   UNL     1      -0.315   9.478  21.457  0.00  0.00    +0.000 F 
ATOM     30  F   UNL     1       1.745  10.063  21.764  0.00  0.00    +0.000 F 
ATOM     31  F   UNL     1       0.271  11.536  21.196  0.00  0.00    +0.000 F 
ENDBRANCH  23  28
BRANCH  23  32
ATOM     32  O   UNL     1       2.056  10.869  19.012  0.00  0.00    +0.000 OA
ATOM     33  H   UNL     1       2.480  11.247  19.807  0.00  0.00    +0.000 HD
ENDBRANCH  23  32
ENDBRANCH   4  23
TORSDOF 9
ENDMDL
MODEL 4
REMARK VINA RESULT:      -8.6      0.209      1.524
REMARK  Name = 
REMARK  9 active torsions:
REMARK  status: ('A' for Active; 'I' for Inactive)
REMARK    1  A    between atoms: S_2  and  C_4
REMARK    2  A    between atoms: S_2  and  N_11
REMARK    3  A    between atoms: N_11  and  C_12
REMARK    4  A    between atoms: N_11  and  C_17
REMARK    5  A    between atoms: C_12  and  C_13
REMARK    6  A    between atoms: C_20  and  C_21
REMARK    7  A    between atoms: C_21  and  O_22
REMARK    8  A    between atoms: C_21  and  C_23
REMARK    9  A    between atoms: C_21  and  C_27
REMARK                            x       y       z     vdW  Elec       q    Type
REMARK                         _______ _______ _______ _____ _____    ______ ____
ROOT
ATOM      1  C   UNL     1       2.797   6.075  18.934  0.00  0.00    +0.000 A 
ATOM      2  C   UNL     1       2.048   6.466  20.039  0.00  0.00    +0.000 A 
ATOM      3  C   UNL     1       1.470   7.736  20.080  0.00  0.00    +0.000 A 
ATOM      4  C   UNL     1       1.646   8.656  19.025  0.00  0.00    +0.000 A 
ATOM      5  C   UNL     1       2.385   8.230  17.907  0.00  0.00    +0.000 A 
ATOM      6  C   UNL     1       2.943   6.948  17.859  0.00  0.00    +0.000 A 
ENDROOT
BRANCH   1   7
ATOM      7  N   UNL     1       3.394   4.780  18.953  0.00  0.00    +0.000 N 
BRANCH   7   9
ATOM      8  O   UNL     1       5.367   3.385  19.715  0.00  0.00    +0.000 OA
ATOM      9  S   UNL     1       5.071   4.671  19.124  0.00  0.00    +0.000 S 
ATOM     10  O   UNL     1       5.603   5.904  19.670  0.00  0.00    +0.000 OA
BRANCH   9  11
ATOM     11  C   UNL     1       5.607   4.603  17.417  0.00  0.00    +0.000 A 
ATOM     12  C   UNL     1       4.720   4.170  16.422  0.00  0.00    +0.000 A 
ATOM     13  C   UNL     1       5.135   4.160  15.089  0.00  0.00    +0.000 A 
ATOM     14  C   UNL     1       6.419   4.583  14.761  0.00  0.00    +0.000 A 
ATOM     15  F   UNL     1       6.815   4.569  13.480  0.00  0.00    +0.000 F 
ATOM     16  C   UNL     1       7.302   5.029  15.742  0.00  0.00    +0.000 A 
ATOM     17  C   UNL     1       6.896   5.051  17.077  0.00  0.00    +0.000 A 
ENDBRANCH   9  11
ENDBRANCH   7   9
BRANCH   7  18
ATOM     18  C   UNL     1       2.557   3.588  19.278  0.00  0.00    +0.000 C 
BRANCH  18  19
ATOM     19  C   UNL     1       1.564   3.108  18.214  0.00  0.00    +0.000 C 
ATOM     20  F   UNL     1       1.056   4.082  17.439  0.00  0.00    +0.000 F 
ATOM     21  F   UNL     1       2.173   2.218  17.388  0.00  0.00    +0.000 F 
ATOM     22  F   UNL     1       0.525   2.456  18.787  0.00  0.00    +0.000 F 
ENDBRANCH  18  19
ENDBRANCH   7  18
ENDBRANCH   1   7
BRANCH   4  23
ATOM     23  C   UNL     1       1.077  10.090  19.100  0.00  0.00    +0.000 C 
BRANCH  23  24
ATOM     24  C   UNL     1      -0.346  10.171  18.478  0.00  0.00    +0.000 C 
ATOM     25  F   UNL     1      -0.429   9.534  17.284  0.00  0.00    +0.000 F 
ATOM     26  F   UNL     1      -1.364   9.716  19.223  0.00  0.00    +0.000 F 
ATOM     27  F   UNL     1      -0.630  11.479  18.196  0.00  0.00    +0.000 F 
ENDBRANCH  23  24
BRANCH  23  28
ATOM     28  C   UNL     1       1.069  10.654  20.549  0.00  0.00    +0.000 C 
ATOM     29  F   UNL     1       1.699   9.832  21.427  0.00  0.00    +0.000 F 
ATOM     30  F   UNL     1       1.728  11.840  20.622  0.00  0.00    +0.000 F 
ATOM     31  F   UNL     1      -0.152  10.878  21.073  0.00  0.00    +0.000 F 
ENDBRANCH  23  28
BRANCH  23  32
ATOM     32  O   UNL     1       1.991  10.915  18.278  0.00  0.00    +0.000 OA
ATOM     33  H   UNL     1       2.655  10.312  17.890  0.00  0.00    +0.000 HD
ENDBRANCH  23  32
ENDBRANCH   4  23
TORSDOF 9
ENDMDL
MODEL 5
REMARK VINA RESULT:      -8.5      0.456      1.644
REMARK  Name = 
REMARK  9 active torsions:
REMARK  status: ('A' for Active; 'I' for Inactive)
REMARK    1  A    between atoms: S_2  and  C_4
REMARK    2  A    between atoms: S_2  and  N_11
REMARK    3  A    between atoms: N_11  and  C_12
REMARK    4  A    between atoms: N_11  and  C_17
REMARK    5  A    between atoms: C_12  and  C_13
REMARK    6  A    between atoms: C_20  and  C_21
REMARK    7  A    between atoms: C_21  and  O_22
REMARK    8  A    between atoms: C_21  and  C_23
REMARK    9  A    between atoms: C_21  and  C_27
REMARK                            x       y       z     vdW  Elec       q    Type
REMARK                         _______ _______ _______ _____ _____    ______ ____
ROOT
ATOM      1  C   UNL     1       2.786   6.018  19.010  0.00  0.00    +0.000 A 
ATOM      2  C   UNL     1       2.052   6.355  20.141  0.00  0.00    +0.000 A 
ATOM      3  C   UNL     1       1.464   7.617  20.244  0.00  0.00    +0.000 A 
ATOM      4  C   UNL     1       1.616   8.583  19.227  0.00  0.00    +0.000 A 
ATOM      5  C   UNL     1       2.341   8.210  18.081  0.00  0.00    +0.000 A 
ATOM      6  C   UNL     1       2.909   6.935  17.971  0.00  0.00    +0.000 A 
ENDROOT
BRANCH   1   7
ATOM      7  N   UNL     1       3.394   4.728  18.966  0.00  0.00    +0.000 N 
BRANCH   7   9
ATOM      8  O   UNL     1       5.377   3.329  19.694  0.00  0.00    +0.000 OA
ATOM      9  S   UNL     1       5.072   4.625  19.129  0.00  0.00    +0.000 S 
ATOM     10  O   UNL     1       5.599   5.849  19.699  0.00  0.00    +0.000 OA
BRANCH   9  11
ATOM     11  C   UNL     1       5.603   4.594  17.419  0.00  0.00    +0.000 A 
ATOM     12  C   UNL     1       4.719   4.167  16.420  0.00  0.00    +0.000 A 
ATOM     13  C   UNL     1       5.129   4.186  15.086  0.00  0.00    +0.000 A 
ATOM     14  C   UNL     1       6.406   4.632  14.761  0.00  0.00    +0.000 A 
ATOM     15  F   UNL     1       6.798   4.647  13.479  0.00  0.00    +0.000 F 
ATOM     16  C   UNL     1       7.287   5.073  15.747  0.00  0.00    +0.000 A 
ATOM     17  C   UNL     1       6.884   5.066  17.084  0.00  0.00    +0.000 A 
ENDBRANCH   9  11
ENDBRANCH   7   9
BRANCH   7  18
ATOM     18  C   UNL     1       2.568   3.515  19.234  0.00  0.00    +0.000 C 
BRANCH  18  19
ATOM     19  C   UNL     1       1.671   3.004  18.100  0.00  0.00    +0.000 C 
ATOM     20  F   UNL     1       2.226   2.050  17.332  0.00  0.00    +0.000 F 
ATOM     21  F   UNL     1       0.529   2.484  18.620  0.00  0.00    +0.000 F 
ATOM     22  F   UNL     1       1.299   4.020  17.287  0.00  0.00    +0.000 F 
ENDBRANCH  18  19
ENDBRANCH   7  18
ENDBRANCH   1   7
BRANCH   4  23
ATOM     23  C   UNL     1       1.037  10.007  19.370  0.00  0.00    +0.000 C 
BRANCH  23  24
ATOM     24  C   UNL     1      -0.261  10.181  18.532  0.00  0.00    +0.000 C 
ATOM     25  F   UNL     1      -1.359   9.704  19.169  0.00  0.00    +0.000 F 
ATOM     26  F   UNL     1      -0.566  11.423  18.130  0.00  0.00    +0.000 F 
ATOM     27  F   UNL     1      -0.159   9.423  17.399  0.00  0.00    +0.000 F 
ENDBRANCH  23  24
BRANCH  23  28
ATOM     28  C   UNL     1       0.782  10.401  20.852  0.00  0.00    +0.000 C 
ATOM     29  F   UNL     1       1.862  10.169  21.642  0.00  0.00    +0.000 F 
ATOM     30  F   UNL     1       0.520  11.729  20.973  0.00  0.00    +0.000 F 
ATOM     31  F   UNL     1      -0.246   9.766  21.449  0.00  0.00    +0.000 F 
ENDBRANCH  23  28
BRANCH  23  32
ATOM     32  O   UNL     1       2.072  10.906  18.814  0.00  0.00    +0.000 OA
ATOM     33  H   UNL     1       2.669  11.150  19.548  0.00  0.00    +0.000 HD
ENDBRANCH  23  32
ENDBRANCH   4  23
TORSDOF 9
ENDMDL
MODEL 6
REMARK VINA RESULT:      -8.5      0.969      1.503
REMARK  Name = 
REMARK  9 active torsions:
REMARK  status: ('A' for Active; 'I' for Inactive)
REMARK    1  A    between atoms: S_2  and  C_4
REMARK    2  A    between atoms: S_2  and  N_11
REMARK    3  A    between atoms: N_11  and  C_12
REMARK    4  A    between atoms: N_11  and  C_17
REMARK    5  A    between atoms: C_12  and  C_13
REMARK    6  A    between atoms: C_20  and  C_21
REMARK    7  A    between atoms: C_21  and  O_22
REMARK    8  A    between atoms: C_21  and  C_23
REMARK    9  A    between atoms: C_21  and  C_27
REMARK                            x       y       z     vdW  Elec       q    Type
REMARK                         _______ _______ _______ _____ _____    ______ ____
ROOT
ATOM      1  C   UNL     1       2.712   6.118  18.929  0.00  0.00    +0.000 A 
ATOM      2  C   UNL     1       2.717   6.982  17.840  0.00  0.00    +0.000 A 
ATOM      3  C   UNL     1       2.177   8.263  17.959  0.00  0.00    +0.000 A 
ATOM      4  C   UNL     1       1.595   8.705  19.166  0.00  0.00    +0.000 A 
ATOM      5  C   UNL     1       1.625   7.824  20.262  0.00  0.00    +0.000 A 
ATOM      6  C   UNL     1       2.189   6.548  20.145  0.00  0.00    +0.000 A 
ENDROOT
BRANCH   1   7
ATOM      7  N   UNL     1       3.246   4.808  18.748  0.00  0.00    +0.000 N 
BRANCH   7   9
ATOM      8  O   UNL     1       5.041   3.221  19.574  0.00  0.00    +0.000 OA
ATOM      9  S   UNL     1       4.889   4.561  19.052  0.00  0.00    +0.000 S 
ATOM     10  O   UNL     1       5.455   5.712  19.728  0.00  0.00    +0.000 OA
BRANCH   9  11
ATOM     11  C   UNL     1       5.570   4.563  17.396  0.00  0.00    +0.000 A 
ATOM     12  C   UNL     1       4.730   4.357  16.294  0.00  0.00    +0.000 A 
ATOM     13  C   UNL     1       5.264   4.402  15.005  0.00  0.00    +0.000 A 
ATOM     14  C   UNL     1       6.620   4.655  14.827  0.00  0.00    +0.000 A 
ATOM     15  F   UNL     1       7.130   4.694  13.587  0.00  0.00    +0.000 F 
ATOM     16  C   UNL     1       7.460   4.876  15.916  0.00  0.00    +0.000 A 
ATOM     17  C   UNL     1       6.935   4.842  17.209  0.00  0.00    +0.000 A 
ENDBRANCH   9  11
ENDBRANCH   7   9
BRANCH   7  18
ATOM     18  C   UNL     1       2.328   3.632  18.751  0.00  0.00    +0.000 C 
BRANCH  18  19
ATOM     19  C   UNL     1       1.695   3.230  20.089  0.00  0.00    +0.000 C 
ATOM     20  F   UNL     1       2.408   3.575  21.174  0.00  0.00    +0.000 F 
ATOM     21  F   UNL     1       0.475   3.815  20.210  0.00  0.00    +0.000 F 
ATOM     22  F   UNL     1       1.489   1.893  20.139  0.00  0.00    +0.000 F 
ENDBRANCH  18  19
ENDBRANCH   7  18
ENDBRANCH   1   7
BRANCH   4  23
ATOM     23  C   UNL     1       0.925  10.091  19.282  0.00  0.00    +0.000 C 
BRANCH  23  24
ATOM     24  C   UNL     1      -0.356  10.180  18.406  0.00  0.00    +0.000 C 
ATOM     25  F   UNL     1      -0.648  11.452  18.038  0.00  0.00    +0.000 F 
ATOM     26  F   UNL     1      -0.380   9.445  17.284  0.00  0.00    +0.000 F 
ATOM     27  F   UNL     1      -1.429   9.779  19.153  0.00  0.00    +0.000 F 
ENDBRANCH  23  24
BRANCH  23  28
ATOM     28  C   UNL     1       0.603  10.477  20.754  0.00  0.00    +0.000 C 
ATOM     29  F   UNL     1       0.004  11.692  20.851  0.00  0.00    +0.000 F 
ATOM     30  F   UNL     1      -0.265   9.596  21.317  0.00  0.00    +0.000 F 
ATOM     31  F   UNL     1       1.665  10.528  21.582  0.00  0.00    +0.000 F 
ENDBRANCH  23  28
BRANCH  23  32
ATOM     32  O   UNL     1       1.919  11.050  18.750  0.00  0.00    +0.000 OA
ATOM     33  H   UNL     1       2.368  11.457  19.516  0.00  0.00    +0.000 HD
ENDBRANCH  23  32
ENDBRANCH   4  23
TORSDOF 9
ENDMDL
MODEL 7
REMARK VINA RESULT:      -8.5      0.402      1.326
REMARK  Name = 
REMARK  9 active torsions:
REMARK  status: ('A' for Active; 'I' for Inactive)
REMARK    1  A    between atoms: S_2  and  C_4
REMARK    2  A    between atoms: S_2  and  N_11
REMARK    3  A    between atoms: N_11  and  C_12
REMARK    4  A    between atoms: N_11  and  C_17
REMARK    5  A    between atoms: C_12  and  C_13
REMARK    6  A    between atoms: C_20  and  C_21
REMARK    7  A    between atoms: C_21  and  O_22
REMARK    8  A    between atoms: C_21  and  C_23
REMARK    9  A    between atoms: C_21  and  C_27
REMARK                            x       y       z     vdW  Elec       q    Type
REMARK                         _______ _______ _______ _____ _____    ______ ____
ROOT
ATOM      1  C   UNL     1       2.767   6.136  19.063  0.00  0.00    +0.000 A 
ATOM      2  C   UNL     1       2.940   6.954  17.953  0.00  0.00    +0.000 A 
ATOM      3  C   UNL     1       2.408   8.245  17.944  0.00  0.00    +0.000 A 
ATOM      4  C   UNL     1       1.668   8.741  19.038  0.00  0.00    +0.000 A 
ATOM      5  C   UNL     1       1.528   7.906  20.160  0.00  0.00    +0.000 A 
ATOM      6  C   UNL     1       2.083   6.621  20.175  0.00  0.00    +0.000 A 
ENDROOT
BRANCH   1   7
ATOM      7  N   UNL     1       3.301   4.815  19.012  0.00  0.00    +0.000 N 
BRANCH   7   9
ATOM      8  O   UNL     1       5.200   3.275  19.677  0.00  0.00    +0.000 OA
ATOM      9  S   UNL     1       4.970   4.615  19.186  0.00  0.00    +0.000 S 
ATOM     10  O   UNL     1       5.551   5.776  19.833  0.00  0.00    +0.000 OA
BRANCH   9  11
ATOM     11  C   UNL     1       5.521   4.656  17.483  0.00  0.00    +0.000 A 
ATOM     12  C   UNL     1       4.820   3.941  16.503  0.00  0.00    +0.000 A 
ATOM     13  C   UNL     1       5.234   4.014  15.172  0.00  0.00    +0.000 A 
ATOM     14  C   UNL     1       6.332   4.797  14.831  0.00  0.00    +0.000 A 
ATOM     15  F   UNL     1       6.728   4.861  13.552  0.00  0.00    +0.000 F 
ATOM     16  C   UNL     1       7.026   5.523  15.797  0.00  0.00    +0.000 A 
ATOM     17  C   UNL     1       6.616   5.465  17.130  0.00  0.00    +0.000 A 
ENDBRANCH   9  11
ENDBRANCH   7   9
BRANCH   7  18
ATOM     18  C   UNL     1       2.406   3.648  19.264  0.00  0.00    +0.000 C 
BRANCH  18  19
ATOM     19  C   UNL     1       1.525   3.168  18.104  0.00  0.00    +0.000 C 
ATOM     20  F   UNL     1       0.477   2.411  18.472  0.00  0.00    +0.000 F 
ATOM     21  F   UNL     1       1.027   4.240  17.434  0.00  0.00    +0.000 F 
ATOM     22  F   UNL     1       2.253   2.457  17.212  0.00  0.00    +0.000 F 
ENDBRANCH  18  19
ENDBRANCH   7  18
ENDBRANCH   1   7
BRANCH   4  23
ATOM     23  C   UNL     1       1.009  10.137  19.002  0.00  0.00    +0.000 C 
BRANCH  23  24
ATOM     24  C   UNL     1      -0.374  10.097  18.294  0.00  0.00    +0.000 C 
ATOM     25  F   UNL     1      -1.329   9.502  19.050  0.00  0.00    +0.000 F 
ATOM     26  F   UNL     1      -0.887  11.269  17.889  0.00  0.00    +0.000 F 
ATOM     27  F   UNL     1      -0.275   9.314  17.177  0.00  0.00    +0.000 F 
ENDBRANCH  23  24
BRANCH  23  28
ATOM     28  C   UNL     1       0.875  10.769  20.417  0.00  0.00    +0.000 C 
ATOM     29  F   UNL     1       0.572  12.092  20.365  0.00  0.00    +0.000 F 
ATOM     30  F   UNL     1      -0.132  10.191  21.124  0.00  0.00    +0.000 F 
ATOM     31  F   UNL     1       1.972  10.679  21.195  0.00  0.00    +0.000 F 
ENDBRANCH  23  28
BRANCH  23  32
ATOM     32  O   UNL     1       1.921  10.977  18.195  0.00  0.00    +0.000 OA
ATOM     33  H   UNL     1       2.365  10.389  17.553  0.00  0.00    +0.000 HD
ENDBRANCH  23  32
ENDBRANCH   4  23
TORSDOF 9
ENDMDL
MODEL 8
REMARK VINA RESULT:      -8.4      0.958      1.471
REMARK  Name = 
REMARK  9 active torsions:
REMARK  status: ('A' for Active; 'I' for Inactive)
REMARK    1  A    between atoms: S_2  and  C_4
REMARK    2  A    between atoms: S_2  and  N_11
REMARK    3  A    between atoms: N_11  and  C_12
REMARK    4  A    between atoms: N_11  and  C_17
REMARK    5  A    between atoms: C_12  and  C_13
REMARK    6  A    between atoms: C_20  and  C_21
REMARK    7  A    between atoms: C_21  and  O_22
REMARK    8  A    between atoms: C_21  and  C_23
REMARK    9  A    between atoms: C_21  and  C_27
REMARK                            x       y       z     vdW  Elec       q    Type
REMARK                         _______ _______ _______ _____ _____    ______ ____
ROOT
ATOM      1  C   UNL     1       2.711   6.143  18.942  0.00  0.00    +0.000 A 
ATOM      2  C   UNL     1       2.818   7.043  17.888  0.00  0.00    +0.000 A 
ATOM      3  C   UNL     1       2.297   8.331  18.011  0.00  0.00    +0.000 A 
ATOM      4  C   UNL     1       1.633   8.745  19.185  0.00  0.00    +0.000 A 
ATOM      5  C   UNL     1       1.559   7.827  20.248  0.00  0.00    +0.000 A 
ATOM      6  C   UNL     1       2.104   6.543  20.129  0.00  0.00    +0.000 A 
ENDROOT
BRANCH   1   7
ATOM      7  N   UNL     1       3.231   4.828  18.756  0.00  0.00    +0.000 N 
BRANCH   7   9
ATOM      8  O   UNL     1       5.019   3.201  19.516  0.00  0.00    +0.000 OA
ATOM      9  S   UNL     1       4.873   4.563  19.053  0.00  0.00    +0.000 S 
ATOM     10  O   UNL     1       5.439   5.682  19.781  0.00  0.00    +0.000 OA
BRANCH   9  11
ATOM     11  C   UNL     1       5.558   4.636  17.401  0.00  0.00    +0.000 A 
ATOM     12  C   UNL     1       6.909   4.961  17.217  0.00  0.00    +0.000 A 
ATOM     13  C   UNL     1       7.443   4.974  15.927  0.00  0.00    +0.000 A 
ATOM     14  C   UNL     1       6.633   4.659  14.840  0.00  0.00    +0.000 A 
ATOM     15  F   UNL     1       7.149   4.676  13.603  0.00  0.00    +0.000 F 
ATOM     16  C   UNL     1       5.293   4.320  15.015  0.00  0.00    +0.000 A 
ATOM     17  C   UNL     1       4.750   4.296  16.301  0.00  0.00    +0.000 A 
ENDBRANCH   9  11
ENDBRANCH   7   9
BRANCH   7  18
ATOM     18  C   UNL     1       2.301   3.661  18.760  0.00  0.00    +0.000 C 
BRANCH  18  19
ATOM     19  C   UNL     1       1.655   3.274  20.096  0.00  0.00    +0.000 C 
ATOM     20  F   UNL     1       0.451   3.829  20.319  0.00  0.00    +0.000 F 
ATOM     21  F   UNL     1       1.489   1.927  20.149  0.00  0.00    +0.000 F 
ATOM     22  F   UNL     1       2.460   3.607  21.132  0.00  0.00    +0.000 F 
ENDBRANCH  18  19
ENDBRANCH   7  18
ENDBRANCH   1   7
BRANCH   4  23
ATOM     23  C   UNL     1       0.984  10.142  19.298  0.00  0.00    +0.000 C 
BRANCH  23  24
ATOM     24  C   UNL     1      -0.376  10.201  18.548  0.00  0.00    +0.000 C 
ATOM     25  F   UNL     1      -0.321   9.621  17.323  0.00  0.00    +0.000 F 
ATOM     26  F   UNL     1      -1.440   9.672  19.170  0.00  0.00    +0.000 F 
ATOM     27  F   UNL     1      -0.686  11.510  18.300  0.00  0.00    +0.000 F 
ENDBRANCH  23  24
BRANCH  23  28
ATOM     28  C   UNL     1       0.810  10.600  20.774  0.00  0.00    +0.000 C 
ATOM     29  F   UNL     1      -0.329  10.116  21.334  0.00  0.00    +0.000 F 
ATOM     30  F   UNL     1       1.824  10.146  21.556  0.00  0.00    +0.000 F 
ATOM     31  F   UNL     1       0.768  11.934  20.962  0.00  0.00    +0.000 F 
ENDBRANCH  23  28
BRANCH  23  32
ATOM     32  O   UNL     1       1.926  11.064  18.626  0.00  0.00    +0.000 OA
ATOM     33  H   UNL     1       1.437  11.503  17.903  0.00  0.00    +0.000 HD
ENDBRANCH  23  32
ENDBRANCH   4  23
TORSDOF 9
ENDMDL
MODEL 9
REMARK VINA RESULT:      -8.4      0.966      1.374
REMARK  Name = 
REMARK  9 active torsions:
REMARK  status: ('A' for Active; 'I' for Inactive)
REMARK    1  A    between atoms: S_2  and  C_4
REMARK    2  A    between atoms: S_2  and  N_11
REMARK    3  A    between atoms: N_11  and  C_12
REMARK    4  A    between atoms: N_11  and  C_17
REMARK    5  A    between atoms: C_12  and  C_13
REMARK    6  A    between atoms: C_20  and  C_21
REMARK    7  A    between atoms: C_21  and  O_22
REMARK    8  A    between atoms: C_21  and  C_23
REMARK    9  A    between atoms: C_21  and  C_27
REMARK                            x       y       z     vdW  Elec       q    Type
REMARK                         _______ _______ _______ _____ _____    ______ ____
ROOT
ATOM      1  C   UNL     1       2.677   6.250  18.890  0.00  0.00    +0.000 A 
ATOM      2  C   UNL     1       2.735   7.058  17.761  0.00  0.00    +0.000 A 
ATOM      3  C   UNL     1       2.219   8.355  17.799  0.00  0.00    +0.000 A 
ATOM      4  C   UNL     1       1.609   8.867  18.963  0.00  0.00    +0.000 A 
ATOM      5  C   UNL     1       1.585   8.042  20.101  0.00  0.00    +0.000 A 
ATOM      6  C   UNL     1       2.125   6.751  20.066  0.00  0.00    +0.000 A 
ENDROOT
BRANCH   1   7
ATOM      7  N   UNL     1       3.188   4.922  18.792  0.00  0.00    +0.000 N 
BRANCH   7   9
ATOM      8  O   UNL     1       4.986   3.332  19.601  0.00  0.00    +0.000 OA
ATOM      9  S   UNL     1       4.834   4.672  19.080  0.00  0.00    +0.000 S 
ATOM     10  O   UNL     1       5.409   5.822  19.749  0.00  0.00    +0.000 OA
BRANCH   9  11
ATOM     11  C   UNL     1       5.498   4.670  17.417  0.00  0.00    +0.000 A 
ATOM     12  C   UNL     1       6.847   4.985  17.203  0.00  0.00    +0.000 A 
ATOM     13  C   UNL     1       7.365   4.940  15.907  0.00  0.00    +0.000 A 
ATOM     14  C   UNL     1       6.541   4.580  14.845  0.00  0.00    +0.000 A 
ATOM     15  F   UNL     1       7.042   4.541  13.602  0.00  0.00    +0.000 F 
ATOM     16  C   UNL     1       5.203   4.251  15.051  0.00  0.00    +0.000 A 
ATOM     17  C   UNL     1       4.677   4.284  16.344  0.00  0.00    +0.000 A 
ENDBRANCH   9  11
ENDBRANCH   7   9
BRANCH   7  18
ATOM     18  C   UNL     1       2.254   3.764  18.895  0.00  0.00    +0.000 C 
BRANCH  18  19
ATOM     19  C   UNL     1       1.636   3.472  20.268  0.00  0.00    +0.000 C 
ATOM     20  F   UNL     1       1.428   2.170  20.525  0.00  0.00    +0.000 F 
ATOM     21  F   UNL     1       2.451   3.947  21.246  0.00  0.00    +0.000 F 
ATOM     22  F   UNL     1       0.452   4.114  20.407  0.00  0.00    +0.000 F 
ENDBRANCH  18  19
ENDBRANCH   7  18
ENDBRANCH   1   7
BRANCH   4  23
ATOM     23  C   UNL     1       0.966  10.271  18.989  0.00  0.00    +0.000 C 
BRANCH  23  24
ATOM     24  C   UNL     1      -0.474  10.249  18.402  0.00  0.00    +0.000 C 
ATOM     25  F   UNL     1      -0.566   9.494  17.279  0.00  0.00    +0.000 F 
ATOM     26  F   UNL     1      -1.458   9.840  19.216  0.00  0.00    +0.000 F 
ATOM     27  F   UNL     1      -0.806  11.513  18.000  0.00  0.00    +0.000 F 
ENDBRANCH  23  24
BRANCH  23  28
ATOM     28  C   UNL     1       0.961  10.899  20.411  0.00  0.00    +0.000 C 
ATOM     29  F   UNL     1       2.078  11.632  20.656  0.00  0.00    +0.000 F 
ATOM     30  F   UNL     1      -0.080  11.758  20.570  0.00  0.00    +0.000 F 
ATOM     31  F   UNL     1       0.874  10.021  21.429  0.00  0.00    +0.000 F 
ENDBRANCH  23  28
BRANCH  23  32
ATOM     32  O   UNL     1       1.814  11.104  18.108  0.00  0.00    +0.000 OA
ATOM     33  H   UNL     1       2.450  10.507  17.668  0.00  0.00    +0.000 HD
ENDBRANCH  23  32
ENDBRANCH   4  23
TORSDOF 9
ENDMDL
