MODEL 1
REMARK VINA RESULT:      -8.2      0.000      0.000
REMARK  Name = 
REMARK  7 active torsions:
REMARK  status: ('A' for Active; 'I' for Inactive)
REMARK    1  A    between atoms: C_1  and  C_2
REMARK    2  A    between atoms: C_2  and  O_4
REMARK    3  A    between atoms: O_4  and  C_5
REMARK    4  A    between atoms: C_8  and  C_9
REMARK    5  A    between atoms: C_10  and  C_11
REMARK    6  A    between atoms: C_20  and  O_21
REMARK    7  A    between atoms: C_25  and  N_26
REMARK                            x       y       z     vdW  Elec       q    Type
REMARK                         _______ _______ _______ _____ _____    ______ ____
ROOT
ATOM      1  C   UNL     1       0.689   8.110  21.170  0.00  0.00    +0.000 C 
ATOM      2  C   UNL     1       1.742   8.028  20.322  0.00  0.00    +0.000 C 
ENDROOT
BRANCH   2   3
ATOM      3  C   UNL     1       2.348   6.764  19.828  0.00  0.00    +0.000 A 
ATOM      4  C   UNL     1       1.940   5.544  20.336  0.00  0.00    +0.000 A 
ATOM      5  C   UNL     1       2.454   4.372  19.803  0.00  0.00    +0.000 A 
ATOM      6  C   UNL     1       3.298   4.399  18.682  0.00  0.00    +0.000 A 
ATOM      7  C   UNL     1       3.740   3.205  18.053  0.00  0.00    +0.000 A 
ATOM      8 CL   UNL     1       3.327   1.631  18.659  0.00  0.00    +0.000 Cl
ATOM      9  C   UNL     1       4.487   3.239  16.880  0.00  0.00    +0.000 A 
ATOM     10  C   UNL     1       4.824   4.467  16.347  0.00  0.00    +0.000 A 
ATOM     11 CL   UNL     1       5.695   4.500  14.854  0.00  0.00    +0.000 Cl
ATOM     12  C   UNL     1       4.434   5.659  16.988  0.00  0.00    +0.000 A 
ATOM     13  C   UNL     1       3.646   5.670  18.165  0.00  0.00    +0.000 A 
ATOM     14  N   UNL     1       3.193   6.826  18.763  0.00  0.00    +0.000 NA
BRANCH  12  15
ATOM     15  O   UNL     1       4.803   6.861  16.415  0.00  0.00    +0.000 OA
ATOM     16  H   UNL     1       5.674   7.110  16.767  0.00  0.00    +0.000 HD
ENDBRANCH  12  15
ENDBRANCH   2   3
BRANCH   1  20
ATOM     17  C   UNL     1      -1.467  11.707  22.261  0.00  0.00    +0.000 A 
ATOM     18  C   UNL     1      -1.151  10.749  23.226  0.00  0.00    +0.000 A 
ATOM     19  C   UNL     1      -0.473   9.573  22.874  0.00  0.00    +0.000 A 
ATOM     20  C   UNL     1      -0.105   9.307  21.549  0.00  0.00    +0.000 A 
ATOM     21  C   UNL     1      -0.448  10.265  20.571  0.00  0.00    +0.000 A 
ATOM     22  C   UNL     1      -1.129  11.450  20.933  0.00  0.00    +0.000 A 
BRANCH  22  23
ATOM     23  N   UNL     1      -1.458  12.407  19.891  0.00  0.00    +0.000 N 
ATOM     24  O   UNL     1      -2.506  12.230  19.255  0.00  0.00    +0.000 OA
ATOM     25  O   UNL     1      -0.643  13.319  19.687  0.00  0.00    +0.000 OA
ENDBRANCH  22  23
BRANCH  17  26
ATOM     26  O   UNL     1      -2.207  12.841  22.643  0.00  0.00    +0.000 OA
BRANCH  26  28
ATOM     27  C   UNL     1      -3.884  12.884  24.327  0.00  0.00    +0.000 C 
ATOM     28  C   UNL     1      -3.566  12.634  22.881  0.00  0.00    +0.000 C 
ATOM     29  O   UNL     1      -4.395  12.301  22.044  0.00  0.00    +0.000 OA
ENDBRANCH  26  28
ENDBRANCH  17  26
ENDBRANCH   1  20
TORSDOF 6
ENDMDL
MODEL 2
REMARK VINA RESULT:      -8.2      4.711     10.258
REMARK  Name = 
REMARK  7 active torsions:
REMARK  status: ('A' for Active; 'I' for Inactive)
REMARK    1  A    between atoms: C_1  and  C_2
REMARK    2  A    between atoms: C_2  and  O_4
REMARK    3  A    between atoms: O_4  and  C_5
REMARK    4  A    between atoms: C_8  and  C_9
REMARK    5  A    between atoms: C_10  and  C_11
REMARK    6  A    between atoms: C_20  and  O_21
REMARK    7  A    between atoms: C_25  and  N_26
REMARK                            x       y       z     vdW  Elec       q    Type
REMARK                         _______ _______ _______ _____ _____    ______ ____
ROOT
ATOM      1  C   UNL     1       2.040   7.739  18.302  0.00  0.00    +0.000 C 
ATOM      2  C   UNL     1       1.688   8.995  17.937  0.00  0.00    +0.000 C 
ENDROOT
BRANCH   2   3
ATOM      3  C   UNL     1       0.621   9.806  18.580  0.00  0.00    +0.000 A 
ATOM      4  C   UNL     1       0.935  10.730  19.560  0.00  0.00    +0.000 A 
ATOM      5  C   UNL     1      -0.062  11.537  20.086  0.00  0.00    +0.000 A 
ATOM      6  C   UNL     1      -1.364  11.509  19.564  0.00  0.00    +0.000 A 
ATOM      7  C   UNL     1      -2.367  12.410  20.012  0.00  0.00    +0.000 A 
ATOM      8 CL   UNL     1      -2.079  13.561  21.280  0.00  0.00    +0.000 Cl
ATOM      9  C   UNL     1      -3.623  12.449  19.416  0.00  0.00    +0.000 A 
ATOM     10  C   UNL     1      -3.894  11.568  18.388  0.00  0.00    +0.000 A 
ATOM     11 CL   UNL     1      -5.434  11.669  17.608  0.00  0.00    +0.000 Cl
ATOM     12  C   UNL     1      -2.925  10.636  17.967  0.00  0.00    +0.000 A 
ATOM     13  C   UNL     1      -1.624  10.583  18.526  0.00  0.00    +0.000 A 
ATOM     14  N   UNL     1      -0.641   9.730  18.075  0.00  0.00    +0.000 NA
BRANCH  12  15
ATOM     15  O   UNL     1      -3.251   9.772  16.940  0.00  0.00    +0.000 OA
ATOM     16  H   UNL     1      -2.443   9.583  16.434  0.00  0.00    +0.000 HD
ENDBRANCH  12  15
ENDBRANCH   2   3
BRANCH   1  20
ATOM     17  C   UNL     1       5.535   5.428  17.196  0.00  0.00    +0.000 A 
ATOM     18  C   UNL     1       5.394   6.749  16.769  0.00  0.00    +0.000 A 
ATOM     19  C   UNL     1       4.254   7.494  17.105  0.00  0.00    +0.000 A 
ATOM     20  C   UNL     1       3.214   6.941  17.862  0.00  0.00    +0.000 A 
ATOM     21  C   UNL     1       3.347   5.597  18.271  0.00  0.00    +0.000 A 
ATOM     22  C   UNL     1       4.500   4.852  17.930  0.00  0.00    +0.000 A 
BRANCH  22  23
ATOM     23  N   UNL     1       4.591   3.473  18.377  0.00  0.00    +0.000 N 
ATOM     24  O   UNL     1       4.044   2.605  17.685  0.00  0.00    +0.000 OA
ATOM     25  O   UNL     1       5.185   3.266  19.446  0.00  0.00    +0.000 OA
ENDBRANCH  22  23
BRANCH  17  26
ATOM     26  O   UNL     1       6.661   4.693  16.781  0.00  0.00    +0.000 OA
BRANCH  26  28
ATOM     27  C   UNL     1       6.006   3.776  14.687  0.00  0.00    +0.000 C 
ATOM     28  C   UNL     1       6.933   4.709  15.413  0.00  0.00    +0.000 C 
ATOM     29  O   UNL     1       7.796   5.382  14.864  0.00  0.00    +0.000 OA
ENDBRANCH  26  28
ENDBRANCH  17  26
ENDBRANCH   1  20
TORSDOF 6
ENDMDL
MODEL 3
REMARK VINA RESULT:      -8.1      7.876      9.143
REMARK  Name = 
REMARK  7 active torsions:
REMARK  status: ('A' for Active; 'I' for Inactive)
REMARK    1  A    between atoms: C_1  and  C_2
REMARK    2  A    between atoms: C_2  and  O_4
REMARK    3  A    between atoms: O_4  and  C_5
REMARK    4  A    between atoms: C_8  and  C_9
REMARK    5  A    between atoms: C_10  and  C_11
REMARK    6  A    between atoms: C_20  and  O_21
REMARK    7  A    between atoms: C_25  and  N_26
REMARK                            x       y       z     vdW  Elec       q    Type
REMARK                         _______ _______ _______ _____ _____    ______ ____
ROOT
ATOM      1  C   UNL     1       8.797   9.013  18.794  0.00  0.00    +0.000 C 
ATOM      2  C   UNL     1       8.048   8.733  17.701  0.00  0.00    +0.000 C 
ENDROOT
BRANCH   2   3
ATOM      3  C   UNL     1       7.372   7.436  17.435  0.00  0.00    +0.000 A 
ATOM      4  C   UNL     1       6.392   6.966  18.291  0.00  0.00    +0.000 A 
ATOM      5  C   UNL     1       5.714   5.798  17.981  0.00  0.00    +0.000 A 
ATOM      6  C   UNL     1       5.927   5.142  16.758  0.00  0.00    +0.000 A 
ATOM      7  C   UNL     1       5.158   4.011  16.375  0.00  0.00    +0.000 A 
ATOM      8 CL   UNL     1       3.949   3.318  17.412  0.00  0.00    +0.000 Cl
ATOM      9  C   UNL     1       5.299   3.432  15.118  0.00  0.00    +0.000 A 
ATOM     10  C   UNL     1       6.233   3.961  14.249  0.00  0.00    +0.000 A 
ATOM     11 CL   UNL     1       6.356   3.278  12.665  0.00  0.00    +0.000 Cl
ATOM     12  C   UNL     1       7.037   5.051  14.635  0.00  0.00    +0.000 A 
ATOM     13  C   UNL     1       6.903   5.690  15.892  0.00  0.00    +0.000 A 
ATOM     14  N   UNL     1       7.627   6.804  16.257  0.00  0.00    +0.000 NA
BRANCH  12  15
ATOM     15  O   UNL     1       7.960   5.537  13.729  0.00  0.00    +0.000 OA
ATOM     16  H   UNL     1       7.718   5.212  12.846  0.00  0.00    +0.000 HD
ENDBRANCH  12  15
ENDBRANCH   2   3
BRANCH   1  20
ATOM     17  C   UNL     1      10.530  12.773  20.075  0.00  0.00    +0.000 A 
ATOM     18  C   UNL     1       9.929  11.917  20.999  0.00  0.00    +0.000 A 
ATOM     19  C   UNL     1       9.347  10.710  20.586  0.00  0.00    +0.000 A 
ATOM     20  C   UNL     1       9.331  10.326  19.240  0.00  0.00    +0.000 A 
ATOM     21  C   UNL     1       9.916  11.205  18.303  0.00  0.00    +0.000 A 
ATOM     22  C   UNL     1      10.503  12.420  18.726  0.00  0.00    +0.000 A 
BRANCH  22  23
ATOM     23  N   UNL     1      11.096  13.289  17.724  0.00  0.00    +0.000 N 
ATOM     24  O   UNL     1      12.331  13.348  17.670  0.00  0.00    +0.000 OA
ATOM     25  O   UNL     1      10.317  13.941  17.013  0.00  0.00    +0.000 OA
ENDBRANCH  22  23
BRANCH  17  26
ATOM     26  O   UNL     1      11.043  14.005  20.518  0.00  0.00    +0.000 OA
BRANCH  26  28
ATOM     27  C   UNL     1      10.142  15.395  22.225  0.00  0.00    +0.000 C 
ATOM     28  C   UNL     1      10.102  15.003  20.776  0.00  0.00    +0.000 C 
ATOM     29  O   UNL     1       9.347  15.502  19.950  0.00  0.00    +0.000 OA
ENDBRANCH  26  28
ENDBRANCH  17  26
ENDBRANCH   1  20
TORSDOF 6
ENDMDL
MODEL 4
REMARK VINA RESULT:      -8.1      1.016      1.294
REMARK  Name = 
REMARK  7 active torsions:
REMARK  status: ('A' for Active; 'I' for Inactive)
REMARK    1  A    between atoms: C_1  and  C_2
REMARK    2  A    between atoms: C_2  and  O_4
REMARK    3  A    between atoms: O_4  and  C_5
REMARK    4  A    between atoms: C_8  and  C_9
REMARK    5  A    between atoms: C_10  and  C_11
REMARK    6  A    between atoms: C_20  and  O_21
REMARK    7  A    between atoms: C_25  and  N_26
REMARK                            x       y       z     vdW  Elec       q    Type
REMARK                         _______ _______ _______ _____ _____    ______ ____
ROOT
ATOM      1  C   UNL     1       1.450   8.274  21.020  0.00  0.00    +0.000 C 
ATOM      2  C   UNL     1       1.855   8.059  19.745  0.00  0.00    +0.000 C 
ENDROOT
BRANCH   2   3
ATOM      3  C   UNL     1       2.516   6.822  19.254  0.00  0.00    +0.000 A 
ATOM      4  C   UNL     1       2.091   5.579  19.687  0.00  0.00    +0.000 A 
ATOM      5  C   UNL     1       2.661   4.434  19.153  0.00  0.00    +0.000 A 
ATOM      6  C   UNL     1       3.586   4.513  18.100  0.00  0.00    +0.000 A 
ATOM      7  C   UNL     1       4.092   3.347  17.464  0.00  0.00    +0.000 A 
ATOM      8 CL   UNL     1       3.659   1.747  17.981  0.00  0.00    +0.000 Cl
ATOM      9  C   UNL     1       4.923   3.433  16.352  0.00  0.00    +0.000 A 
ATOM     10  C   UNL     1       5.278   4.684  15.888  0.00  0.00    +0.000 A 
ATOM     11 CL   UNL     1       6.258   4.783  14.466  0.00  0.00    +0.000 Cl
ATOM     12  C   UNL     1       4.824   5.848  16.540  0.00  0.00    +0.000 A 
ATOM     13  C   UNL     1       3.951   5.805  17.655  0.00  0.00    +0.000 A 
ATOM     14  N   UNL     1       3.436   6.933  18.257  0.00  0.00    +0.000 NA
BRANCH  12  15
ATOM     15  O   UNL     1       5.216   7.074  16.039  0.00  0.00    +0.000 OA
ATOM     16  H   UNL     1       6.132   6.995  15.726  0.00  0.00    +0.000 HD
ENDBRANCH  12  15
ENDBRANCH   2   3
BRANCH   1  20
ATOM     17  C   UNL     1      -0.853  11.562  22.653  0.00  0.00    +0.000 A 
ATOM     18  C   UNL     1      -0.968  10.279  23.190  0.00  0.00    +0.000 A 
ATOM     19  C   UNL     1      -0.242   9.207  22.651  0.00  0.00    +0.000 A 
ATOM     20  C   UNL     1       0.607   9.376  21.551  0.00  0.00    +0.000 A 
ATOM     21  C   UNL     1       0.703  10.669  20.992  0.00  0.00    +0.000 A 
ATOM     22  C   UNL     1      -0.030  11.746  21.542  0.00  0.00    +0.000 A 
BRANCH  22  23
ATOM     23  N   UNL     1       0.104  13.059  20.934  0.00  0.00    +0.000 N 
ATOM     24  O   UNL     1       0.921  13.844  21.431  0.00  0.00    +0.000 OA
ATOM     25  O   UNL     1      -0.640  13.312  19.974  0.00  0.00    +0.000 OA
ENDBRANCH  22  23
BRANCH  17  26
ATOM     26  O   UNL     1      -1.648  12.596  23.179  0.00  0.00    +0.000 OA
BRANCH  26  28
ATOM     27  C   UNL     1      -3.573  12.810  21.799  0.00  0.00    +0.000 C 
ATOM     28  C   UNL     1      -3.027  12.391  23.134  0.00  0.00    +0.000 C 
ATOM     29  O   UNL     1      -3.711  11.934  24.042  0.00  0.00    +0.000 OA
ENDBRANCH  26  28
ENDBRANCH  17  26
ENDBRANCH   1  20
TORSDOF 6
ENDMDL
MODEL 5
REMARK VINA RESULT:      -8.0      4.227     10.062
REMARK  Name = 
REMARK  7 active torsions:
REMARK  status: ('A' for Active; 'I' for Inactive)
REMARK    1  A    between atoms: C_1  and  C_2
REMARK    2  A    between atoms: C_2  and  O_4
REMARK    3  A    between atoms: O_4  and  C_5
REMARK    4  A    between atoms: C_8  and  C_9
REMARK    5  A    between atoms: C_10  and  C_11
REMARK    6  A    between atoms: C_20  and  O_21
REMARK    7  A    between atoms: C_25  and  N_26
REMARK                            x       y       z     vdW  Elec       q    Type
REMARK                         _______ _______ _______ _____ _____    ______ ____
ROOT
ATOM      1  C   UNL     1       2.383   7.922  18.480  0.00  0.00    +0.000 C 
ATOM      2  C   UNL     1       1.939   8.018  19.755  0.00  0.00    +0.000 C 
ENDROOT
BRANCH   2   3
ATOM      3  C   UNL     1       0.981   9.040  20.254  0.00  0.00    +0.000 A 
ATOM      4  C   UNL     1       0.363   8.884  21.482  0.00  0.00    +0.000 A 
ATOM      5  C   UNL     1      -0.460   9.887  21.968  0.00  0.00    +0.000 A 
ATOM      6  C   UNL     1      -0.591  11.107  21.285  0.00  0.00    +0.000 A 
ATOM      7  C   UNL     1      -1.338  12.188  21.826  0.00  0.00    +0.000 A 
ATOM      8 CL   UNL     1      -2.194  12.060  23.331  0.00  0.00    +0.000 Cl
ATOM      9  C   UNL     1      -1.375  13.428  21.198  0.00  0.00    +0.000 A 
ATOM     10  C   UNL     1      -0.691  13.586  20.008  0.00  0.00    +0.000 A 
ATOM     11 CL   UNL     1      -0.688  15.148  19.268  0.00  0.00    +0.000 Cl
ATOM     12  C   UNL     1       0.012  12.508  19.435  0.00  0.00    +0.000 A 
ATOM     13  C   UNL     1       0.101  11.239  20.058  0.00  0.00    +0.000 A 
ATOM     14  N   UNL     1       0.847  10.197  19.550  0.00  0.00    +0.000 NA
BRANCH  12  15
ATOM     15  O   UNL     1       0.672  12.719  18.241  0.00  0.00    +0.000 OA
ATOM     16  H   UNL     1       1.080  11.881  17.967  0.00  0.00    +0.000 HD
ENDBRANCH  12  15
ENDBRANCH   2   3
BRANCH   1  20
ATOM     17  C   UNL     1       4.744   4.690  16.817  0.00  0.00    +0.000 A 
ATOM     18  C   UNL     1       5.085   6.020  16.566  0.00  0.00    +0.000 A 
ATOM     19  C   UNL     1       4.311   7.070  17.084  0.00  0.00    +0.000 A 
ATOM     20  C   UNL     1       3.166   6.826  17.851  0.00  0.00    +0.000 A 
ATOM     21  C   UNL     1       2.808   5.481  18.082  0.00  0.00    +0.000 A 
ATOM     22  C   UNL     1       3.593   4.428  17.559  0.00  0.00    +0.000 A 
BRANCH  22  23
ATOM     23  N   UNL     1       3.185   3.059  17.827  0.00  0.00    +0.000 N 
ATOM     24  O   UNL     1       2.257   2.592  17.153  0.00  0.00    +0.000 OA
ATOM     25  O   UNL     1       3.776   2.464  18.740  0.00  0.00    +0.000 OA
ENDBRANCH  22  23
BRANCH  17  26
ATOM     26  O   UNL     1       5.506   3.667  16.225  0.00  0.00    +0.000 OA
BRANCH  26  28
ATOM     27  C   UNL     1       6.296   4.028  14.011  0.00  0.00    +0.000 C 
ATOM     28  C   UNL     1       6.610   4.079  15.479  0.00  0.00    +0.000 C 
ATOM     29  O   UNL     1       7.688   4.438  15.937  0.00  0.00    +0.000 OA
ENDBRANCH  26  28
ENDBRANCH  17  26
ENDBRANCH   1  20
TORSDOF 6
ENDMDL
MODEL 6
REMARK VINA RESULT:      -8.0      4.420     10.184
REMARK  Name = 
REMARK  7 active torsions:
REMARK  status: ('A' for Active; 'I' for Inactive)
REMARK    1  A    between atoms: C_1  and  C_2
REMARK    2  A    between atoms: C_2  and  O_4
REMARK    3  A    between atoms: O_4  and  C_5
REMARK    4  A    between atoms: C_8  and  C_9
REMARK    5  A    between atoms: C_10  and  C_11
REMARK    6  A    between atoms: C_20  and  O_21
REMARK    7  A    between atoms: C_25  and  N_26
REMARK                            x       y       z     vdW  Elec       q    Type
REMARK                         _______ _______ _______ _____ _____    ______ ____
ROOT
ATOM      1  C   UNL     1       1.756   7.833  18.240  0.00  0.00    +0.000 C 
ATOM      2  C   UNL     1       1.579   9.103  17.806  0.00  0.00    +0.000 C 
ENDROOT
BRANCH   2   3
ATOM      3  C   UNL     1       0.513  10.027  18.274  0.00  0.00    +0.000 A 
ATOM      4  C   UNL     1      -0.785   9.893  17.814  0.00  0.00    +0.000 A 
ATOM      5  C   UNL     1      -1.782  10.708  18.326  0.00  0.00    +0.000 A 
ATOM      6  C   UNL     1      -1.518  11.593  19.384  0.00  0.00    +0.000 A 
ATOM      7  C   UNL     1      -2.552  12.350  19.998  0.00  0.00    +0.000 A 
ATOM      8 CL   UNL     1      -4.197  12.290  19.446  0.00  0.00    +0.000 Cl
ATOM      9  C   UNL     1      -2.303  13.142  21.114  0.00  0.00    +0.000 A 
ATOM     10  C   UNL     1      -1.014  13.206  21.604  0.00  0.00    +0.000 A 
ATOM     11 CL   UNL     1      -0.726  14.139  23.031  0.00  0.00    +0.000 Cl
ATOM     12  C   UNL     1       0.030  12.499  20.975  0.00  0.00    +0.000 A 
ATOM     13  C   UNL     1      -0.186  11.657  19.856  0.00  0.00    +0.000 A 
ATOM     14  N   UNL     1       0.808  10.899  19.276  0.00  0.00    +0.000 NA
BRANCH  12  15
ATOM     15  O   UNL     1       1.302  12.604  21.502  0.00  0.00    +0.000 OA
ATOM     16  H   UNL     1       1.474  11.812  22.038  0.00  0.00    +0.000 HD
ENDBRANCH  12  15
ENDBRANCH   2   3
BRANCH   1  20
ATOM     17  C   UNL     1       5.131   5.170  17.691  0.00  0.00    +0.000 A 
ATOM     18  C   UNL     1       5.214   6.509  17.308  0.00  0.00    +0.000 A 
ATOM     19  C   UNL     1       4.118   7.369  17.463  0.00  0.00    +0.000 A 
ATOM     20  C   UNL     1       2.901   6.918  17.988  0.00  0.00    +0.000 A 
ATOM     21  C   UNL     1       2.810   5.558  18.351  0.00  0.00    +0.000 A 
ATOM     22  C   UNL     1       3.920   4.696  18.195  0.00  0.00    +0.000 A 
BRANCH  22  23
ATOM     23  N   UNL     1       3.778   3.304  18.586  0.00  0.00    +0.000 N 
ATOM     24  O   UNL     1       4.164   2.980  19.716  0.00  0.00    +0.000 OA
ATOM     25  O   UNL     1       3.309   2.527  17.740  0.00  0.00    +0.000 OA
ENDBRANCH  22  23
BRANCH  17  26
ATOM     26  O   UNL     1       6.230   4.323  17.458  0.00  0.00    +0.000 OA
BRANCH  26  28
ATOM     27  C   UNL     1       5.709   3.780  15.202  0.00  0.00    +0.000 C 
ATOM     28  C   UNL     1       6.735   4.319  16.157  0.00  0.00    +0.000 C 
ATOM     29  O   UNL     1       7.850   4.700  15.823  0.00  0.00    +0.000 OA
ENDBRANCH  26  28
ENDBRANCH  17  26
ENDBRANCH   1  20
TORSDOF 6
ENDMDL
MODEL 7
REMARK VINA RESULT:      -7.9      4.158     10.165
REMARK  Name = 
REMARK  7 active torsions:
REMARK  status: ('A' for Active; 'I' for Inactive)
REMARK    1  A    between atoms: C_1  and  C_2
REMARK    2  A    between atoms: C_2  and  O_4
REMARK    3  A    between atoms: O_4  and  C_5
REMARK    4  A    between atoms: C_8  and  C_9
REMARK    5  A    between atoms: C_10  and  C_11
REMARK    6  A    between atoms: C_20  and  O_21
REMARK    7  A    between atoms: C_25  and  N_26
REMARK                            x       y       z     vdW  Elec       q    Type
REMARK                         _______ _______ _______ _____ _____    ______ ____
ROOT
ATOM      1  C   UNL     1       2.558   7.131  18.694  0.00  0.00    +0.000 C 
ATOM      2  C   UNL     1       2.163   8.397  18.421  0.00  0.00    +0.000 C 
ENDROOT
BRANCH   2   3
ATOM      3  C   UNL     1       1.219   9.196  19.245  0.00  0.00    +0.000 A 
ATOM      4  C   UNL     1       0.816   8.745  20.489  0.00  0.00    +0.000 A 
ATOM      5  C   UNL     1       0.004   9.543  21.278  0.00  0.00    +0.000 A 
ATOM      6  C   UNL     1      -0.328  10.849  20.883  0.00  0.00    +0.000 A 
ATOM      7  C   UNL     1      -1.062  11.721  21.732  0.00  0.00    +0.000 A 
ATOM      8 CL   UNL     1      -1.659  11.218  23.283  0.00  0.00    +0.000 Cl
ATOM      9  C   UNL     1      -1.293  13.046  21.381  0.00  0.00    +0.000 A 
ATOM     10  C   UNL     1      -0.820  13.500  20.166  0.00  0.00    +0.000 A 
ATOM     11 CL   UNL     1      -1.054  15.166  19.767  0.00  0.00    +0.000 Cl
ATOM     12  C   UNL     1      -0.134  12.633  19.293  0.00  0.00    +0.000 A 
ATOM     13  C   UNL     1       0.151  11.285  19.626  0.00  0.00    +0.000 A 
ATOM     14  N   UNL     1       0.887  10.446  18.818  0.00  0.00    +0.000 NA
BRANCH  12  15
ATOM     15  O   UNL     1       0.313  13.137  18.087  0.00  0.00    +0.000 OA
ATOM     16  H   UNL     1      -0.441  13.547  17.632  0.00  0.00    +0.000 HD
ENDBRANCH  12  15
ENDBRANCH   2   3
BRANCH   1  20
ATOM     17  C   UNL     1       5.724   4.953  16.690  0.00  0.00    +0.000 A 
ATOM     18  C   UNL     1       4.405   4.501  16.632  0.00  0.00    +0.000 A 
ATOM     19  C   UNL     1       3.380   5.190  17.298  0.00  0.00    +0.000 A 
ATOM     20  C   UNL     1       3.640   6.339  18.054  0.00  0.00    +0.000 A 
ATOM     21  C   UNL     1       4.978   6.780  18.133  0.00  0.00    +0.000 A 
ATOM     22  C   UNL     1       6.007   6.083  17.458  0.00  0.00    +0.000 A 
BRANCH  22  23
ATOM     23  N   UNL     1       7.368   6.578  17.567  0.00  0.00    +0.000 N 
ATOM     24  O   UNL     1       8.046   6.194  18.530  0.00  0.00    +0.000 OA
ATOM     25  O   UNL     1       7.746   7.382  16.701  0.00  0.00    +0.000 OA
ENDBRANCH  22  23
BRANCH  17  26
ATOM     26  O   UNL     1       6.733   4.198  16.066  0.00  0.00    +0.000 OA
BRANCH  26  28
ATOM     27  C   UNL     1       6.161   3.756  13.800  0.00  0.00    +0.000 C 
ATOM     28  C   UNL     1       7.025   4.540  14.745  0.00  0.00    +0.000 C 
ATOM     29  O   UNL     1       7.861   5.361  14.389  0.00  0.00    +0.000 OA
ENDBRANCH  26  28
ENDBRANCH  17  26
ENDBRANCH   1  20
TORSDOF 6
ENDMDL
MODEL 8
REMARK VINA RESULT:      -7.9      4.242     10.226
REMARK  Name = 
REMARK  7 active torsions:
REMARK  status: ('A' for Active; 'I' for Inactive)
REMARK    1  A    between atoms: C_1  and  C_2
REMARK    2  A    between atoms: C_2  and  O_4
REMARK    3  A    between atoms: O_4  and  C_5
REMARK    4  A    between atoms: C_8  and  C_9
REMARK    5  A    between atoms: C_10  and  C_11
REMARK    6  A    between atoms: C_20  and  O_21
REMARK    7  A    between atoms: C_25  and  N_26
REMARK                            x       y       z     vdW  Elec       q    Type
REMARK                         _______ _______ _______ _____ _____    ______ ____
ROOT
ATOM      1  C   UNL     1       2.110   7.604  18.783  0.00  0.00    +0.000 C 
ATOM      2  C   UNL     1       1.809   8.898  18.518  0.00  0.00    +0.000 C 
ENDROOT
BRANCH   2   3
ATOM      3  C   UNL     1       0.866   9.736  19.304  0.00  0.00    +0.000 A 
ATOM      4  C   UNL     1       0.366   9.285  20.512  0.00  0.00    +0.000 A 
ATOM      5  C   UNL     1      -0.444  10.116  21.272  0.00  0.00    +0.000 A 
ATOM      6  C   UNL     1      -0.674  11.446  20.888  0.00  0.00    +0.000 A 
ATOM      7  C   UNL     1      -1.405  12.344  21.713  0.00  0.00    +0.000 A 
ATOM      8 CL   UNL     1      -2.120  11.848  23.215  0.00  0.00    +0.000 Cl
ATOM      9  C   UNL     1      -1.537  13.687  21.379  0.00  0.00    +0.000 A 
ATOM     10  C   UNL     1      -0.968  14.135  20.203  0.00  0.00    +0.000 A 
ATOM     11 CL   UNL     1      -1.080  15.820  19.829  0.00  0.00    +0.000 Cl
ATOM     12  C   UNL     1      -0.284  13.245  19.352  0.00  0.00    +0.000 A 
ATOM     13  C   UNL     1      -0.098  11.877  19.670  0.00  0.00    +0.000 A 
ATOM     14  N   UNL     1       0.633  11.011  18.887  0.00  0.00    +0.000 NA
BRANCH  12  15
ATOM     15  O   UNL     1       0.261  13.744  18.185  0.00  0.00    +0.000 OA
ATOM     16  H   UNL     1       0.888  14.449  18.420  0.00  0.00    +0.000 HD
ENDBRANCH  12  15
ENDBRANCH   2   3
BRANCH   1  20
ATOM     17  C   UNL     1       5.322   5.154  17.215  0.00  0.00    +0.000 A 
ATOM     18  C   UNL     1       5.194   6.488  16.828  0.00  0.00    +0.000 A 
ATOM     19  C   UNL     1       4.143   7.279  17.315  0.00  0.00    +0.000 A 
ATOM     20  C   UNL     1       3.179   6.761  18.188  0.00  0.00    +0.000 A 
ATOM     21  C   UNL     1       3.295   5.404  18.558  0.00  0.00    +0.000 A 
ATOM     22  C   UNL     1       4.358   4.612  18.065  0.00  0.00    +0.000 A 
BRANCH  22  23
ATOM     23  N   UNL     1       4.436   3.221  18.477  0.00  0.00    +0.000 N 
ATOM     24  O   UNL     1       5.054   2.962  19.518  0.00  0.00    +0.000 OA
ATOM     25  O   UNL     1       3.904   2.384  17.733  0.00  0.00    +0.000 OA
ENDBRANCH  22  23
BRANCH  17  26
ATOM     26  O   UNL     1       6.349   4.375  16.652  0.00  0.00    +0.000 OA
BRANCH  26  28
ATOM     27  C   UNL     1       5.811   4.060  14.357  0.00  0.00    +0.000 C 
ATOM     28  C   UNL     1       6.729   4.710  15.352  0.00  0.00    +0.000 C 
ATOM     29  O   UNL     1       7.671   5.431  15.047  0.00  0.00    +0.000 OA
ENDBRANCH  26  28
ENDBRANCH  17  26
ENDBRANCH   1  20
TORSDOF 6
ENDMDL
MODEL 9
REMARK VINA RESULT:      -7.9      0.771      1.072
REMARK  Name = 
REMARK  7 active torsions:
REMARK  status: ('A' for Active; 'I' for Inactive)
REMARK    1  A    between atoms: C_1  and  C_2
REMARK    2  A    between atoms: C_2  and  O_4
REMARK    3  A    between atoms: O_4  and  C_5
REMARK    4  A    between atoms: C_8  and  C_9
REMARK    5  A    between atoms: C_10  and  C_11
REMARK    6  A    between atoms: C_20  and  O_21
REMARK    7  A    between atoms: C_25  and  N_26
REMARK                            x       y       z     vdW  Elec       q    Type
REMARK                         _______ _______ _______ _____ _____    ______ ____
ROOT
ATOM      1  C   UNL     1       0.917   8.279  21.173  0.00  0.00    +0.000 C 
ATOM      2  C   UNL     1       1.690   8.128  20.072  0.00  0.00    +0.000 C 
ENDROOT
BRANCH   2   3
ATOM      3  C   UNL     1       2.345   6.862  19.651  0.00  0.00    +0.000 A 
ATOM      4  C   UNL     1       1.974   5.657  20.221  0.00  0.00    +0.000 A 
ATOM      5  C   UNL     1       2.534   4.477  19.756  0.00  0.00    +0.000 A 
ATOM      6  C   UNL     1       3.389   4.474  18.643  0.00  0.00    +0.000 A 
ATOM      7  C   UNL     1       3.879   3.264  18.083  0.00  0.00    +0.000 A 
ATOM      8 CL   UNL     1       3.514   1.711  18.769  0.00  0.00    +0.000 Cl
ATOM      9  C   UNL     1       4.637   3.261  16.916  0.00  0.00    +0.000 A 
ATOM     10  C   UNL     1       4.936   4.470  16.320  0.00  0.00    +0.000 A 
ATOM     11 CL   UNL     1       5.821   4.454  14.836  0.00  0.00    +0.000 Cl
ATOM     12  C   UNL     1       4.498   5.681  16.893  0.00  0.00    +0.000 A 
ATOM     13  C   UNL     1       3.698   5.726  18.061  0.00  0.00    +0.000 A 
ATOM     14  N   UNL     1       3.198   6.896  18.592  0.00  0.00    +0.000 NA
BRANCH  12  15
ATOM     15  O   UNL     1       4.831   6.862  16.260  0.00  0.00    +0.000 OA
ATOM     16  H   UNL     1       5.243   6.644  15.407  0.00  0.00    +0.000 HD
ENDBRANCH  12  15
ENDBRANCH   2   3
BRANCH   1  20
ATOM     17  C   UNL     1      -1.414  11.758  22.288  0.00  0.00    +0.000 A 
ATOM     18  C   UNL     1      -1.119  10.770  23.228  0.00  0.00    +0.000 A 
ATOM     19  C   UNL     1      -0.384   9.632  22.867  0.00  0.00    +0.000 A 
ATOM     20  C   UNL     1       0.065   9.434  21.556  0.00  0.00    +0.000 A 
ATOM     21  C   UNL     1      -0.256  10.422  20.600  0.00  0.00    +0.000 A 
ATOM     22  C   UNL     1      -0.995  11.569  20.972  0.00  0.00    +0.000 A 
BRANCH  22  23
ATOM     23  N   UNL     1      -1.298  12.559  19.952  0.00  0.00    +0.000 N 
ATOM     24  O   UNL     1      -2.294  12.369  19.242  0.00  0.00    +0.000 OA
ATOM     25  O   UNL     1      -0.512  13.512  19.842  0.00  0.00    +0.000 OA
ENDBRANCH  22  23
BRANCH  17  26
ATOM     26  O   UNL     1      -2.210  12.852  22.673  0.00  0.00    +0.000 OA
BRANCH  26  28
ATOM     27  C   UNL     1      -2.473  14.474  24.392  0.00  0.00    +0.000 C 
ATOM     28  C   UNL     1      -1.556  13.871  23.367  0.00  0.00    +0.000 C 
ATOM     29  O   UNL     1      -0.401  14.234  23.181  0.00  0.00    +0.000 OA
ENDBRANCH  26  28
ENDBRANCH  17  26
ENDBRANCH   1  20
TORSDOF 6
ENDMDL
