MODEL 1
REMARK VINA RESULT:      -7.1      0.000      0.000
REMARK  Name = 
REMARK  3 active torsions:
REMARK  status: ('A' for Active; 'I' for Inactive)
REMARK    1  A    between atoms: C_1  and  C_2
REMARK    2  A    between atoms: N_12  and  C_13
REMARK    3  A    between atoms: C_17  and  O_18
REMARK                            x       y       z     vdW  Elec       q    Type
REMARK                         _______ _______ _______ _____ _____    ______ ____
ROOT
ATOM      1  C   UNL     1       1.983   5.129  21.122  0.00  0.00    +0.000 C 
ATOM      2  C   UNL     1       1.873   6.443  20.378  0.00  0.00    +0.000 A 
ATOM      3  N   UNL     1       1.272   7.414  20.995  0.00  0.00    +0.000 NA
ATOM      4  C   UNL     1       1.148   8.646  20.349  0.00  0.00    +0.000 A 
ATOM      5  C   UNL     1       0.453   9.674  20.992  0.00  0.00    +0.000 A 
ATOM      6  C   UNL     1       0.232  10.895  20.351  0.00  0.00    +0.000 A 
ATOM      7  C   UNL     1       0.718  11.103  19.060  0.00  0.00    +0.000 A 
ATOM      8  C   UNL     1       1.449  10.099  18.425  0.00  0.00    +0.000 A 
ATOM      9  C   UNL     1       1.662   8.877  19.078  0.00  0.00    +0.000 A 
ATOM     10  C   UNL     1       2.417   7.787  18.431  0.00  0.00    +0.000 A 
ATOM     11  O   UNL     1       2.942   8.005  17.341  0.00  0.00    +0.000 OA
ATOM     12  N   UNL     1       2.442   6.567  19.121  0.00  0.00    +0.000 N 
ENDROOT
BRANCH  12  13
ATOM     13  C   UNL     1       3.087   5.470  18.480  0.00  0.00    +0.000 A 
ATOM     14  C   UNL     1       2.340   4.568  17.713  0.00  0.00    +0.000 A 
ATOM     15  C   UNL     1       2.957   3.464  17.121  0.00  0.00    +0.000 A 
ATOM     16  C   UNL     1       4.319   3.239  17.313  0.00  0.00    +0.000 A 
ATOM     17  C   UNL     1       5.059   4.135  18.078  0.00  0.00    +0.000 A 
ATOM     18  C   UNL     1       4.460   5.253  18.650  0.00  0.00    +0.000 A 
BRANCH  17  19
ATOM     19  O   UNL     1       6.389   3.943  18.308  0.00  0.00    +0.000 OA
ATOM     20  H   UNL     1       6.489   3.341  19.064  0.00  0.00    +0.000 HD
ENDBRANCH  17  19
ENDBRANCH  12  13
TORSDOF 2
ENDMDL
MODEL 2
REMARK VINA RESULT:      -6.9      3.651      7.094
REMARK  Name = 
REMARK  3 active torsions:
REMARK  status: ('A' for Active; 'I' for Inactive)
REMARK    1  A    between atoms: C_1  and  C_2
REMARK    2  A    between atoms: N_12  and  C_13
REMARK    3  A    between atoms: C_17  and  O_18
REMARK                            x       y       z     vdW  Elec       q    Type
REMARK                         _______ _______ _______ _____ _____    ______ ____
ROOT
ATOM      1  C   UNL     1       7.197   6.743  17.701  0.00  0.00    +0.000 C 
ATOM      2  C   UNL     1       6.710   5.884  16.554  0.00  0.00    +0.000 A 
ATOM      3  N   UNL     1       7.468   5.831  15.503  0.00  0.00    +0.000 NA
ATOM      4  C   UNL     1       7.060   5.049  14.419  0.00  0.00    +0.000 A 
ATOM      5  C   UNL     1       7.850   5.036  13.267  0.00  0.00    +0.000 A 
ATOM      6  C   UNL     1       7.440   4.336  12.129  0.00  0.00    +0.000 A 
ATOM      7  C   UNL     1       6.238   3.628  12.141  0.00  0.00    +0.000 A 
ATOM      8  C   UNL     1       5.463   3.601  13.300  0.00  0.00    +0.000 A 
ATOM      9  C   UNL     1       5.883   4.309  14.434  0.00  0.00    +0.000 A 
ATOM     10  C   UNL     1       5.081   4.315  15.672  0.00  0.00    +0.000 A 
ATOM     11  O   UNL     1       4.079   3.605  15.724  0.00  0.00    +0.000 OA
ATOM     12  N   UNL     1       5.529   5.172  16.686  0.00  0.00    +0.000 N 
ENDROOT
BRANCH  12  13
ATOM     13  C   UNL     1       4.725   5.266  17.860  0.00  0.00    +0.000 A 
ATOM     14  C   UNL     1       4.764   4.248  18.820  0.00  0.00    +0.000 A 
ATOM     15  C   UNL     1       3.945   4.310  19.950  0.00  0.00    +0.000 A 
ATOM     16  C   UNL     1       3.062   5.376  20.114  0.00  0.00    +0.000 A 
ATOM     17  C   UNL     1       3.024   6.385  19.157  0.00  0.00    +0.000 A 
ATOM     18  C   UNL     1       3.855   6.348  18.042  0.00  0.00    +0.000 A 
BRANCH  17  19
ATOM     19  O   UNL     1       2.162   7.436  19.267  0.00  0.00    +0.000 OA
ATOM     20  H   UNL     1       2.379   8.089  18.581  0.00  0.00    +0.000 HD
ENDBRANCH  17  19
ENDBRANCH  12  13
TORSDOF 2
ENDMDL
MODEL 3
REMARK VINA RESULT:      -6.9      3.100      5.914
REMARK  Name = 
REMARK  3 active torsions:
REMARK  status: ('A' for Active; 'I' for Inactive)
REMARK    1  A    between atoms: C_1  and  C_2
REMARK    2  A    between atoms: N_12  and  C_13
REMARK    3  A    between atoms: C_17  and  O_18
REMARK                            x       y       z     vdW  Elec       q    Type
REMARK                         _______ _______ _______ _____ _____    ______ ____
ROOT
ATOM      1  C   UNL     1       2.828   6.819  18.678  0.00  0.00    +0.000 C 
ATOM      2  C   UNL     1       3.632   5.888  17.795  0.00  0.00    +0.000 A 
ATOM      3  N   UNL     1       4.444   6.443  16.949  0.00  0.00    +0.000 NA
ATOM      4  C   UNL     1       5.208   5.624  16.115  0.00  0.00    +0.000 A 
ATOM      5  C   UNL     1       6.042   6.222  15.167  0.00  0.00    +0.000 A 
ATOM      6  C   UNL     1       6.760   5.445  14.256  0.00  0.00    +0.000 A 
ATOM      7  C   UNL     1       6.661   4.054  14.296  0.00  0.00    +0.000 A 
ATOM      8  C   UNL     1       5.865   3.444  15.264  0.00  0.00    +0.000 A 
ATOM      9  C   UNL     1       5.146   4.236  16.171  0.00  0.00    +0.000 A 
ATOM     10  C   UNL     1       4.281   3.626  17.199  0.00  0.00    +0.000 A 
ATOM     11  O   UNL     1       4.277   2.402  17.310  0.00  0.00    +0.000 OA
ATOM     12  N   UNL     1       3.505   4.517  17.953  0.00  0.00    +0.000 N 
ENDROOT
BRANCH  12  13
ATOM     13  C   UNL     1       2.594   3.953  18.893  0.00  0.00    +0.000 A 
ATOM     14  C   UNL     1       1.307   3.582  18.485  0.00  0.00    +0.000 A 
ATOM     15  C   UNL     1       0.392   3.072  19.409  0.00  0.00    +0.000 A 
ATOM     16  C   UNL     1       0.749   2.955  20.752  0.00  0.00    +0.000 A 
ATOM     17  C   UNL     1       2.028   3.328  21.155  0.00  0.00    +0.000 A 
ATOM     18  C   UNL     1       2.956   3.811  20.238  0.00  0.00    +0.000 A 
BRANCH  17  19
ATOM     19  O   UNL     1       2.412   3.249  22.461  0.00  0.00    +0.000 OA
ATOM     20  H   UNL     1       3.359   3.461  22.519  0.00  0.00    +0.000 HD
ENDBRANCH  17  19
ENDBRANCH  12  13
TORSDOF 2
ENDMDL
MODEL 4
REMARK VINA RESULT:      -6.8      3.336      5.201
REMARK  Name = 
REMARK  3 active torsions:
REMARK  status: ('A' for Active; 'I' for Inactive)
REMARK    1  A    between atoms: C_1  and  C_2
REMARK    2  A    between atoms: N_12  and  C_13
REMARK    3  A    between atoms: C_17  and  O_18
REMARK                            x       y       z     vdW  Elec       q    Type
REMARK                         _______ _______ _______ _____ _____    ______ ____
ROOT
ATOM      1  C   UNL     1       4.290   7.131  17.214  0.00  0.00    +0.000 C 
ATOM      2  C   UNL     1       3.819   5.838  17.844  0.00  0.00    +0.000 A 
ATOM      3  N   UNL     1       2.936   5.938  18.790  0.00  0.00    +0.000 NA
ATOM      4  C   UNL     1       2.469   4.771  19.401  0.00  0.00    +0.000 A 
ATOM      5  C   UNL     1       1.561   4.883  20.456  0.00  0.00    +0.000 A 
ATOM      6  C   UNL     1       1.131   3.750  21.151  0.00  0.00    +0.000 A 
ATOM      7  C   UNL     1       1.599   2.489  20.784  0.00  0.00    +0.000 A 
ATOM      8  C   UNL     1       2.474   2.361  19.706  0.00  0.00    +0.000 A 
ATOM      9  C   UNL     1       2.900   3.506  19.018  0.00  0.00    +0.000 A 
ATOM     10  C   UNL     1       3.838   3.411  17.883  0.00  0.00    +0.000 A 
ATOM     11  O   UNL     1       4.166   2.295  17.486  0.00  0.00    +0.000 OA
ATOM     12  N   UNL     1       4.301   4.629  17.369  0.00  0.00    +0.000 N 
ENDROOT
BRANCH  12  13
ATOM     13  C   UNL     1       5.276   4.569  16.330  0.00  0.00    +0.000 A 
ATOM     14  C   UNL     1       6.589   4.986  16.577  0.00  0.00    +0.000 A 
ATOM     15  C   UNL     1       7.539   4.975  15.553  0.00  0.00    +0.000 A 
ATOM     16  C   UNL     1       7.175   4.573  14.269  0.00  0.00    +0.000 A 
ATOM     17  C   UNL     1       5.868   4.163  14.025  0.00  0.00    +0.000 A 
ATOM     18  C   UNL     1       4.921   4.144  15.044  0.00  0.00    +0.000 A 
BRANCH  17  19
ATOM     19  O   UNL     1       5.463   3.781  12.780  0.00  0.00    +0.000 OA
ATOM     20  H   UNL     1       6.221   3.389  12.315  0.00  0.00    +0.000 HD
ENDBRANCH  17  19
ENDBRANCH  12  13
TORSDOF 2
ENDMDL
MODEL 5
REMARK VINA RESULT:      -6.7      2.141      6.492
REMARK  Name = 
REMARK  3 active torsions:
REMARK  status: ('A' for Active; 'I' for Inactive)
REMARK    1  A    between atoms: C_1  and  C_2
REMARK    2  A    between atoms: N_12  and  C_13
REMARK    3  A    between atoms: C_17  and  O_18
REMARK                            x       y       z     vdW  Elec       q    Type
REMARK                         _______ _______ _______ _____ _____    ______ ____
ROOT
ATOM      1  C   UNL     1      -0.002   9.424  21.572  0.00  0.00    +0.000 C 
ATOM      2  C   UNL     1       0.895   8.782  20.536  0.00  0.00    +0.000 A 
ATOM      3  N   UNL     1       1.373   7.611  20.823  0.00  0.00    +0.000 NA
ATOM      4  C   UNL     1       2.205   6.978  19.896  0.00  0.00    +0.000 A 
ATOM      5  C   UNL     1       2.763   5.742  20.229  0.00  0.00    +0.000 A 
ATOM      6  C   UNL     1       3.667   5.111  19.370  0.00  0.00    +0.000 A 
ATOM      7  C   UNL     1       4.010   5.711  18.159  0.00  0.00    +0.000 A 
ATOM      8  C   UNL     1       3.428   6.925  17.797  0.00  0.00    +0.000 A 
ATOM      9  C   UNL     1       2.525   7.549  18.669  0.00  0.00    +0.000 A 
ATOM     10  C   UNL     1       1.901   8.841  18.327  0.00  0.00    +0.000 A 
ATOM     11  O   UNL     1       2.114   9.318  17.214  0.00  0.00    +0.000 OA
ATOM     12  N   UNL     1       1.129   9.434  19.335  0.00  0.00    +0.000 N 
ENDROOT
BRANCH  12  13
ATOM     13  C   UNL     1       0.587  10.725  19.066  0.00  0.00    +0.000 A 
ATOM     14  C   UNL     1       1.291  11.873  19.446  0.00  0.00    +0.000 A 
ATOM     15  C   UNL     1       0.745  13.141  19.229  0.00  0.00    +0.000 A 
ATOM     16  C   UNL     1      -0.519  13.267  18.656  0.00  0.00    +0.000 A 
ATOM     17  C   UNL     1      -1.218  12.124  18.283  0.00  0.00    +0.000 A 
ATOM     18  C   UNL     1      -0.672  10.858  18.469  0.00  0.00    +0.000 A 
BRANCH  17  19
ATOM     19  O   UNL     1      -2.465  12.200  17.737  0.00  0.00    +0.000 OA
ATOM     20  H   UNL     1      -3.056  12.637  18.374  0.00  0.00    +0.000 HD
ENDBRANCH  17  19
ENDBRANCH  12  13
TORSDOF 2
ENDMDL
MODEL 6
REMARK VINA RESULT:      -6.7      1.496      1.734
REMARK  Name = 
REMARK  3 active torsions:
REMARK  status: ('A' for Active; 'I' for Inactive)
REMARK    1  A    between atoms: C_1  and  C_2
REMARK    2  A    between atoms: N_12  and  C_13
REMARK    3  A    between atoms: C_17  and  O_18
REMARK                            x       y       z     vdW  Elec       q    Type
REMARK                         _______ _______ _______ _____ _____    ______ ____
ROOT
ATOM      1  C   UNL     1       1.620   4.501  21.395  0.00  0.00    +0.000 C 
ATOM      2  C   UNL     1       1.875   5.607  20.394  0.00  0.00    +0.000 A 
ATOM      3  N   UNL     1       1.460   6.793  20.716  0.00  0.00    +0.000 NA
ATOM      4  C   UNL     1       1.675   7.847  19.825  0.00  0.00    +0.000 A 
ATOM      5  C   UNL     1       1.179   9.112  20.149  0.00  0.00    +0.000 A 
ATOM      6  C   UNL     1       1.296  10.176  19.251  0.00  0.00    +0.000 A 
ATOM      7  C   UNL     1       1.926   9.984  18.021  0.00  0.00    +0.000 A 
ATOM      8  C   UNL     1       2.462   8.736  17.705  0.00  0.00    +0.000 A 
ATOM      9  C   UNL     1       2.335   7.676  18.613  0.00  0.00    +0.000 A 
ATOM     10  C   UNL     1       2.876   6.338  18.306  0.00  0.00    +0.000 A 
ATOM     11  O   UNL     1       3.528   6.193  17.274  0.00  0.00    +0.000 OA
ATOM     12  N   UNL     1       2.564   5.326  19.224  0.00  0.00    +0.000 N 
ENDROOT
BRANCH  12  13
ATOM     13  C   UNL     1       2.996   4.005  18.909  0.00  0.00    +0.000 A 
ATOM     14  C   UNL     1       2.365   3.286  17.888  0.00  0.00    +0.000 A 
ATOM     15  C   UNL     1       2.751   1.974  17.604  0.00  0.00    +0.000 A 
ATOM     16  C   UNL     1       3.751   1.363  18.358  0.00  0.00    +0.000 A 
ATOM     17  C   UNL     1       4.374   2.078  19.375  0.00  0.00    +0.000 A 
ATOM     18  C   UNL     1       4.017   3.395  19.648  0.00  0.00    +0.000 A 
BRANCH  17  19
ATOM     19  O   UNL     1       5.343   1.513  20.151  0.00  0.00    +0.000 OA
ATOM     20  H   UNL     1       5.890   2.221  20.529  0.00  0.00    +0.000 HD
ENDBRANCH  17  19
ENDBRANCH  12  13
TORSDOF 2
ENDMDL
MODEL 7
REMARK VINA RESULT:      -6.7      3.603      6.466
REMARK  Name = 
REMARK  3 active torsions:
REMARK  status: ('A' for Active; 'I' for Inactive)
REMARK    1  A    between atoms: C_1  and  C_2
REMARK    2  A    between atoms: N_12  and  C_13
REMARK    3  A    between atoms: C_17  and  O_18
REMARK                            x       y       z     vdW  Elec       q    Type
REMARK                         _______ _______ _______ _____ _____    ______ ____
ROOT
ATOM      1  C   UNL     1       6.737   5.408  19.523  0.00  0.00    +0.000 C 
ATOM      2  C   UNL     1       6.241   4.979  18.159  0.00  0.00    +0.000 A 
ATOM      3  N   UNL     1       7.076   5.096  17.172  0.00  0.00    +0.000 NA
ATOM      4  C   UNL     1       6.665   4.711  15.894  0.00  0.00    +0.000 A 
ATOM      5  C   UNL     1       7.546   4.887  14.824  0.00  0.00    +0.000 A 
ATOM      6  C   UNL     1       7.148   4.595  13.517  0.00  0.00    +0.000 A 
ATOM      7  C   UNL     1       5.865   4.108  13.271  0.00  0.00    +0.000 A 
ATOM      8  C   UNL     1       4.992   3.888  14.336  0.00  0.00    +0.000 A 
ATOM      9  C   UNL     1       5.401   4.188  15.643  0.00  0.00    +0.000 A 
ATOM     10  C   UNL     1       4.499   3.983  16.792  0.00  0.00    +0.000 A 
ATOM     11  O   UNL     1       3.409   3.451  16.594  0.00  0.00    +0.000 OA
ATOM     12  N   UNL     1       4.967   4.452  18.028  0.00  0.00    +0.000 N 
ENDROOT
BRANCH  12  13
ATOM     13  C   UNL     1       4.082   4.349  19.140  0.00  0.00    +0.000 A 
ATOM     14  C   UNL     1       3.932   3.127  19.806  0.00  0.00    +0.000 A 
ATOM     15  C   UNL     1       3.031   3.005  20.867  0.00  0.00    +0.000 A 
ATOM     16  C   UNL     1       2.256   4.097  21.252  0.00  0.00    +0.000 A 
ATOM     17  C   UNL     1       2.404   5.310  20.586  0.00  0.00    +0.000 A 
ATOM     18  C   UNL     1       3.318   5.450  19.546  0.00  0.00    +0.000 A 
BRANCH  17  19
ATOM     19  O   UNL     1       1.651   6.398  20.916  0.00  0.00    +0.000 OA
ATOM     20  H   UNL     1       0.766   6.095  21.178  0.00  0.00    +0.000 HD
ENDBRANCH  17  19
ENDBRANCH  12  13
TORSDOF 2
ENDMDL
MODEL 8
REMARK VINA RESULT:      -6.6      3.460      6.383
REMARK  Name = 
REMARK  3 active torsions:
REMARK  status: ('A' for Active; 'I' for Inactive)
REMARK    1  A    between atoms: C_1  and  C_2
REMARK    2  A    between atoms: N_12  and  C_13
REMARK    3  A    between atoms: C_17  and  O_18
REMARK                            x       y       z     vdW  Elec       q    Type
REMARK                         _______ _______ _______ _____ _____    ______ ____
ROOT
ATOM      1  C   UNL     1       6.466   5.510  19.513  0.00  0.00    +0.000 C 
ATOM      2  C   UNL     1       6.022   5.044  18.143  0.00  0.00    +0.000 A 
ATOM      3  N   UNL     1       6.899   5.119  17.190  0.00  0.00    +0.000 NA
ATOM      4  C   UNL     1       6.537   4.698  15.908  0.00  0.00    +0.000 A 
ATOM      5  C   UNL     1       7.464   4.830  14.871  0.00  0.00    +0.000 A 
ATOM      6  C   UNL     1       7.118   4.501  13.558  0.00  0.00    +0.000 A 
ATOM      7  C   UNL     1       5.839   4.021  13.274  0.00  0.00    +0.000 A 
ATOM      8  C   UNL     1       4.920   3.846  14.308  0.00  0.00    +0.000 A 
ATOM      9  C   UNL     1       5.278   4.182  15.620  0.00  0.00    +0.000 A 
ATOM     10  C   UNL     1       4.326   4.025  16.736  0.00  0.00    +0.000 A 
ATOM     11  O   UNL     1       3.239   3.499  16.509  0.00  0.00    +0.000 OA
ATOM     12  N   UNL     1       4.748   4.527  17.975  0.00  0.00    +0.000 N 
ENDROOT
BRANCH  12  13
ATOM     13  C   UNL     1       3.816   4.470  19.052  0.00  0.00    +0.000 A 
ATOM     14  C   UNL     1       2.948   5.543  19.285  0.00  0.00    +0.000 A 
ATOM     15  C   UNL     1       2.064   5.515  20.366  0.00  0.00    +0.000 A 
ATOM     16  C   UNL     1       2.061   4.427  21.237  0.00  0.00    +0.000 A 
ATOM     17  C   UNL     1       2.927   3.363  21.005  0.00  0.00    +0.000 A 
ATOM     18  C   UNL     1       3.792   3.368  19.915  0.00  0.00    +0.000 A 
BRANCH  17  19
ATOM     19  O   UNL     1       2.972   2.288  21.842  0.00  0.00    +0.000 OA
ATOM     20  H   UNL     1       2.727   2.580  22.736  0.00  0.00    +0.000 HD
ENDBRANCH  17  19
ENDBRANCH  12  13
TORSDOF 2
ENDMDL
MODEL 9
REMARK VINA RESULT:      -6.5      3.700      6.985
REMARK  Name = 
REMARK  3 active torsions:
REMARK  status: ('A' for Active; 'I' for Inactive)
REMARK    1  A    between atoms: C_1  and  C_2
REMARK    2  A    between atoms: N_12  and  C_13
REMARK    3  A    between atoms: C_17  and  O_18
REMARK                            x       y       z     vdW  Elec       q    Type
REMARK                         _______ _______ _______ _____ _____    ______ ____
ROOT
ATOM      1  C   UNL     1       7.009   6.557  17.845  0.00  0.00    +0.000 C 
ATOM      2  C   UNL     1       6.590   5.747  16.637  0.00  0.00    +0.000 A 
ATOM      3  N   UNL     1       7.385   5.774  15.612  0.00  0.00    +0.000 NA
ATOM      4  C   UNL     1       7.041   5.041  14.474  0.00  0.00    +0.000 A 
ATOM      5  C   UNL     1       7.870   5.114  13.352  0.00  0.00    +0.000 A 
ATOM      6  C   UNL     1       7.522   4.466  12.164  0.00  0.00    +0.000 A 
ATOM      7  C   UNL     1       6.344   3.723  12.094  0.00  0.00    +0.000 A 
ATOM      8  C   UNL     1       5.530   3.609  13.221  0.00  0.00    +0.000 A 
ATOM      9  C   UNL     1       5.888   4.267  14.406  0.00  0.00    +0.000 A 
ATOM     10  C   UNL     1       5.043   4.181  15.612  0.00  0.00    +0.000 A 
ATOM     11  O   UNL     1       4.063   3.439  15.590  0.00  0.00    +0.000 OA
ATOM     12  N   UNL     1       5.428   4.994  16.687  0.00  0.00    +0.000 N 
ENDROOT
BRANCH  12  13
ATOM     13  C   UNL     1       4.582   5.000  17.834  0.00  0.00    +0.000 A 
ATOM     14  C   UNL     1       3.850   6.148  18.159  0.00  0.00    +0.000 A 
ATOM     15  C   UNL     1       3.055   6.179  19.307  0.00  0.00    +0.000 A 
ATOM     16  C   UNL     1       3.007   5.072  20.152  0.00  0.00    +0.000 A 
ATOM     17  C   UNL     1       3.738   3.933  19.829  0.00  0.00    +0.000 A 
ATOM     18  C   UNL     1       4.512   3.881  18.674  0.00  0.00    +0.000 A 
BRANCH  17  19
ATOM     19  O   UNL     1       3.737   2.834  20.637  0.00  0.00    +0.000 OA
ATOM     20  H   UNL     1       3.203   2.140  20.216  0.00  0.00    +0.000 HD
ENDBRANCH  17  19
ENDBRANCH  12  13
TORSDOF 2
ENDMDL
