MODEL 1
REMARK VINA RESULT:      -8.7      0.000      0.000
REMARK  Name = 
REMARK  15 active torsions:
REMARK  status: ('A' for Active; 'I' for Inactive)
REMARK    1  A    between atoms: C_1  and  C_2
REMARK    2  A    between atoms: C_2  and  C_3
REMARK    3  A    between atoms: C_3  and  C_4
REMARK    4  A    between atoms: C_4  and  C_5
REMARK    5  A    between atoms: C_5  and  C_6
REMARK    6  A    between atoms: C_6  and  C_7
REMARK    7  A    between atoms: C_7  and  C_8
REMARK    8  A    between atoms: C_10  and  C_11
REMARK    9  A    between atoms: C_14  and  C_15
REMARK   10  A    between atoms: C_15  and  N_16
REMARK   11  A    between atoms: C_15  and  C_25
REMARK   12  A    between atoms: C_17  and  C_19
REMARK   13  A    between atoms: C_23  and  O_24
REMARK   14  A    between atoms: C_25  and  C_26
REMARK   15  A    between atoms: C_25  and  C_27
REMARK                            x       y       z     vdW  Elec       q    Type
REMARK                         _______ _______ _______ _____ _____    ______ ____
ROOT
ATOM      1  C   UNL     1       5.165   5.554  16.455  0.00  0.00    +0.000 A 
ATOM      2  C   UNL     1       4.790   4.527  17.331  0.00  0.00    +0.000 A 
ATOM      3  C   UNL     1       3.950   4.788  18.420  0.00  0.00    +0.000 A 
ATOM      4  C   UNL     1       3.464   6.083  18.659  0.00  0.00    +0.000 A 
ATOM      5  C   UNL     1       3.862   7.111  17.791  0.00  0.00    +0.000 A 
ATOM      6  C   UNL     1       4.688   6.846  16.693  0.00  0.00    +0.000 A 
ENDROOT
BRANCH   1   9
ATOM      7  C   UNL     1       6.692   4.500  13.491  0.00  0.00    +0.000 A 
ATOM      8  N   UNL     1       5.642   4.480  14.275  0.00  0.00    +0.000 NA
ATOM      9  C   UNL     1       6.042   5.275  15.327  0.00  0.00    +0.000 A 
ATOM     10  N   UNL     1       7.293   5.752  15.202  0.00  0.00    +0.000 NA
ATOM     11  O   UNL     1       7.725   5.239  13.981  0.00  0.00    +0.000 OA
BRANCH   7  12
ATOM     12  C   UNL     1       6.874   3.873  12.164  0.00  0.00    +0.000 C 
BRANCH  12  13
ATOM     13  C   UNL     1       6.374   2.430  12.187  0.00  0.00    +0.000 C 
BRANCH  13  14
ATOM     14  C   UNL     1       5.189   2.234  11.246  0.00  0.00    +0.000 C 
BRANCH  14  15
ATOM     15  C   UNL     1       4.201   3.394  11.369  0.00  0.00    +0.000 C 
BRANCH  15  16
ATOM     16  C   UNL     1       3.018   3.201  10.425  0.00  0.00    +0.000 C 
BRANCH  16  18
ATOM     17  C   UNL     1       2.095   5.094   9.054  0.00  0.00    +0.000 C 
ATOM     18  C   UNL     1       3.179   4.033   9.155  0.00  0.00    +0.000 C 
ENDBRANCH  16  18
ENDBRANCH  15  16
ENDBRANCH  14  15
ENDBRANCH  13  14
ENDBRANCH  12  13
ENDBRANCH   7  12
ENDBRANCH   1   9
BRANCH   4  19
ATOM     19  C   UNL     1       2.557   6.325  19.862  0.00  0.00    +0.000 C 
BRANCH  19  20
ATOM     20  N   UNL     1       1.789   7.544  19.614  0.00  0.00    +0.000 N 
ATOM     21  C   UNL     1       1.369   8.369  20.635  0.00  0.00    +0.000 C 
ATOM     22  O   UNL     1       1.620   8.154  21.824  0.00  0.00    +0.000 OA
ATOM     23  H   UNL     1       1.719   7.881  18.659  0.00  0.00    +0.000 HD
BRANCH  21  24
ATOM     24  C   UNL     1       0.507   9.569  20.188  0.00  0.00    +0.000 C 
ATOM     25  N   UNL     1       0.436  10.587  21.270  0.00  0.00    +0.000 NA
ATOM     26  C   UNL     1       0.660  11.905  20.674  0.00  0.00    +0.000 C 
ATOM     27  C   UNL     1       0.655  11.720  19.170  0.00  0.00    +0.000 C 
ATOM     28  C   UNL     1       1.087  10.277  18.971  0.00  0.00    +0.000 C 
ATOM     29  H   UNL     1       1.189  10.380  21.940  0.00  0.00    +0.000 HD
BRANCH  28  30
ATOM     30  O   UNL     1       0.575   9.750  17.751  0.00  0.00    +0.000 OA
ATOM     31  H   UNL     1       0.832   8.811  17.694  0.00  0.00    +0.000 HD
ENDBRANCH  28  30
ENDBRANCH  21  24
ENDBRANCH  19  20
BRANCH  19  32
ATOM     32  C   UNL     1       1.627   5.129  20.229  0.00  0.00    +0.000 C 
ATOM     33  C   UNL     1       1.357   4.222  19.018  0.00  0.00    +0.000 C 
ATOM     34  C   UNL     1       2.218   4.263  21.351  0.00  0.00    +0.000 C 
ENDBRANCH  19  32
ENDBRANCH   4  19
TORSDOF 12
ENDMDL
MODEL 2
REMARK VINA RESULT:      -8.4      2.625      4.249
REMARK  Name = 
REMARK  15 active torsions:
REMARK  status: ('A' for Active; 'I' for Inactive)
REMARK    1  A    between atoms: C_1  and  C_2
REMARK    2  A    between atoms: C_2  and  C_3
REMARK    3  A    between atoms: C_3  and  C_4
REMARK    4  A    between atoms: C_4  and  C_5
REMARK    5  A    between atoms: C_5  and  C_6
REMARK    6  A    between atoms: C_6  and  C_7
REMARK    7  A    between atoms: C_7  and  C_8
REMARK    8  A    between atoms: C_10  and  C_11
REMARK    9  A    between atoms: C_14  and  C_15
REMARK   10  A    between atoms: C_15  and  N_16
REMARK   11  A    between atoms: C_15  and  C_25
REMARK   12  A    between atoms: C_17  and  C_19
REMARK   13  A    between atoms: C_23  and  O_24
REMARK   14  A    between atoms: C_25  and  C_26
REMARK   15  A    between atoms: C_25  and  C_27
REMARK                            x       y       z     vdW  Elec       q    Type
REMARK                         _______ _______ _______ _____ _____    ______ ____
ROOT
ATOM      1  C   UNL     1       2.910   6.982  18.320  0.00  0.00    +0.000 A 
ATOM      2  C   UNL     1       2.396   6.968  19.623  0.00  0.00    +0.000 A 
ATOM      3  C   UNL     1       1.702   8.073  20.129  0.00  0.00    +0.000 A 
ATOM      4  C   UNL     1       1.504   9.220  19.343  0.00  0.00    +0.000 A 
ATOM      5  C   UNL     1       2.041   9.236  18.047  0.00  0.00    +0.000 A 
ATOM      6  C   UNL     1       2.720   8.124  17.536  0.00  0.00    +0.000 A 
ENDROOT
BRANCH   1   9
ATOM      7  C   UNL     1       4.941   4.706  16.608  0.00  0.00    +0.000 A 
ATOM      8  N   UNL     1       4.502   5.935  16.738  0.00  0.00    +0.000 NA
ATOM      9  C   UNL     1       3.634   5.830  17.802  0.00  0.00    +0.000 A 
ATOM     10  N   UNL     1       3.531   4.584  18.298  0.00  0.00    +0.000 NA
ATOM     11  O   UNL     1       4.401   3.838  17.507  0.00  0.00    +0.000 OA
BRANCH   7  12
ATOM     12  C   UNL     1       5.946   4.172  15.666  0.00  0.00    +0.000 C 
BRANCH  12  13
ATOM     13  C   UNL     1       5.329   3.986  14.281  0.00  0.00    +0.000 C 
BRANCH  13  14
ATOM     14  C   UNL     1       6.389   3.651  13.236  0.00  0.00    +0.000 C 
BRANCH  14  15
ATOM     15  C   UNL     1       5.740   3.161  11.942  0.00  0.00    +0.000 C 
BRANCH  15  16
ATOM     16  C   UNL     1       4.314   3.689  11.816  0.00  0.00    +0.000 C 
BRANCH  16  18
ATOM     17  C   UNL     1       2.989   4.146   9.732  0.00  0.00    +0.000 C 
ATOM     18  C   UNL     1       3.598   3.072  10.618  0.00  0.00    +0.000 C 
ENDBRANCH  16  18
ENDBRANCH  15  16
ENDBRANCH  14  15
ENDBRANCH  13  14
ENDBRANCH  12  13
ENDBRANCH   7  12
ENDBRANCH   1   9
BRANCH   4  19
ATOM     19  C   UNL     1       0.748  10.404  19.936  0.00  0.00    +0.000 C 
BRANCH  19  20
ATOM     20  N   UNL     1       1.348  11.633  19.418  0.00  0.00    +0.000 N 
ATOM     21  C   UNL     1       1.713  12.677  20.240  0.00  0.00    +0.000 C 
ATOM     22  O   UNL     1       1.577  12.650  21.467  0.00  0.00    +0.000 OA
ATOM     23  H   UNL     1       1.666  11.641  18.454  0.00  0.00    +0.000 HD
BRANCH  21  24
ATOM     24  C   UNL     1       2.262  13.920  19.508  0.00  0.00    +0.000 C 
ATOM     25  N   UNL     1       3.154  14.699  20.407  0.00  0.00    +0.000 NA
ATOM     26  C   UNL     1       4.360  15.056  19.658  0.00  0.00    +0.000 C 
ATOM     27  C   UNL     1       4.113  14.678  18.211  0.00  0.00    +0.000 C 
ATOM     28  C   UNL     1       3.097  13.552  18.289  0.00  0.00    +0.000 C 
ATOM     29  H   UNL     1       3.407  14.088  21.196  0.00  0.00    +0.000 HD
BRANCH  28  30
ATOM     30  O   UNL     1       2.311  13.484  17.103  0.00  0.00    +0.000 OA
ATOM     31  H   UNL     1       1.476  13.960  17.264  0.00  0.00    +0.000 HD
ENDBRANCH  28  30
ENDBRANCH  21  24
ENDBRANCH  19  20
BRANCH  19  32
ATOM     32  C   UNL     1      -0.793  10.379  19.701  0.00  0.00    +0.000 C 
ATOM     33  C   UNL     1      -1.502  11.534  20.426  0.00  0.00    +0.000 C 
ATOM     34  C   UNL     1      -1.151  10.462  18.211  0.00  0.00    +0.000 C 
ENDBRANCH  19  32
ENDBRANCH   4  19
TORSDOF 12
ENDMDL
MODEL 3
REMARK VINA RESULT:      -8.3      3.451      5.798
REMARK  Name = 
REMARK  15 active torsions:
REMARK  status: ('A' for Active; 'I' for Inactive)
REMARK    1  A    between atoms: C_1  and  C_2
REMARK    2  A    between atoms: C_2  and  C_3
REMARK    3  A    between atoms: C_3  and  C_4
REMARK    4  A    between atoms: C_4  and  C_5
REMARK    5  A    between atoms: C_5  and  C_6
REMARK    6  A    between atoms: C_6  and  C_7
REMARK    7  A    between atoms: C_7  and  C_8
REMARK    8  A    between atoms: C_10  and  C_11
REMARK    9  A    between atoms: C_14  and  C_15
REMARK   10  A    between atoms: C_15  and  N_16
REMARK   11  A    between atoms: C_15  and  C_25
REMARK   12  A    between atoms: C_17  and  C_19
REMARK   13  A    between atoms: C_23  and  O_24
REMARK   14  A    between atoms: C_25  and  C_26
REMARK   15  A    between atoms: C_25  and  C_27
REMARK                            x       y       z     vdW  Elec       q    Type
REMARK                         _______ _______ _______ _____ _____    ______ ____
ROOT
ATOM      1  C   UNL     1       2.712   6.949  18.334  0.00  0.00    +0.000 A 
ATOM      2  C   UNL     1       2.325   8.097  17.630  0.00  0.00    +0.000 A 
ATOM      3  C   UNL     1       1.664   9.146  18.280  0.00  0.00    +0.000 A 
ATOM      4  C   UNL     1       1.374   9.072  19.652  0.00  0.00    +0.000 A 
ATOM      5  C   UNL     1       1.743   7.910  20.346  0.00  0.00    +0.000 A 
ATOM      6  C   UNL     1       2.420   6.870  19.700  0.00  0.00    +0.000 A 
ENDROOT
BRANCH   1   9
ATOM      7  C   UNL     1       4.807   4.872  16.456  0.00  0.00    +0.000 A 
ATOM      8  N   UNL     1       4.499   6.082  16.856  0.00  0.00    +0.000 NA
ATOM      9  C   UNL     1       3.396   5.861  17.650  0.00  0.00    +0.000 A 
ATOM     10  N   UNL     1       3.029   4.570  17.724  0.00  0.00    +0.000 NA
ATOM     11  O   UNL     1       3.968   3.912  16.933  0.00  0.00    +0.000 OA
BRANCH   7  12
ATOM     12  C   UNL     1       5.938   4.431  15.613  0.00  0.00    +0.000 C 
BRANCH  12  13
ATOM     13  C   UNL     1       7.257   4.950  16.182  0.00  0.00    +0.000 C 
BRANCH  13  14
ATOM     14  C   UNL     1       7.468   4.482  17.619  0.00  0.00    +0.000 C 
BRANCH  14  15
ATOM     15  C   UNL     1       7.755   5.669  18.539  0.00  0.00    +0.000 C 
BRANCH  15  16
ATOM     16  C   UNL     1       7.648   6.986  17.776  0.00  0.00    +0.000 C 
BRANCH  16  18
ATOM     17  C   UNL     1       8.143   9.448  17.822  0.00  0.00    +0.000 C 
ATOM     18  C   UNL     1       8.373   8.112  18.508  0.00  0.00    +0.000 C 
ENDBRANCH  16  18
ENDBRANCH  15  16
ENDBRANCH  14  15
ENDBRANCH  13  14
ENDBRANCH  12  13
ENDBRANCH   7  12
ENDBRANCH   1   9
BRANCH   4  19
ATOM     19  C   UNL     1       0.646  10.234  20.319  0.00  0.00    +0.000 C 
BRANCH  19  20
ATOM     20  N   UNL     1      -0.495  10.599  19.481  0.00  0.00    +0.000 N 
ATOM     21  C   UNL     1      -0.526  11.764  18.745  0.00  0.00    +0.000 C 
ATOM     22  O   UNL     1       0.406  12.574  18.725  0.00  0.00    +0.000 OA
ATOM     23  H   UNL     1      -1.201   9.892  19.299  0.00  0.00    +0.000 HD
BRANCH  21  24
ATOM     24  C   UNL     1      -1.842  12.015  17.979  0.00  0.00    +0.000 C 
ATOM     25  N   UNL     1      -1.936  11.112  16.801  0.00  0.00    +0.000 NA
ATOM     26  C   UNL     1      -3.283  10.540  16.768  0.00  0.00    +0.000 C 
ATOM     27  C   UNL     1      -4.100  11.267  17.818  0.00  0.00    +0.000 C 
ATOM     28  C   UNL     1      -3.071  11.733  18.833  0.00  0.00    +0.000 C 
ATOM     29  H   UNL     1      -1.246  10.360  16.932  0.00  0.00    +0.000 HD
BRANCH  28  30
ATOM     30  O   UNL     1      -3.520  12.896  19.524  0.00  0.00    +0.000 OA
ATOM     31  H   UNL     1      -3.249  12.819  20.457  0.00  0.00    +0.000 HD
ENDBRANCH  28  30
ENDBRANCH  21  24
ENDBRANCH  19  20
BRANCH  19  32
ATOM     32  C   UNL     1       0.210   9.971  21.793  0.00  0.00    +0.000 C 
ATOM     33  C   UNL     1      -0.549  11.168  22.387  0.00  0.00    +0.000 C 
ATOM     34  C   UNL     1      -0.686   8.731  21.917  0.00  0.00    +0.000 C 
ENDBRANCH  19  32
ENDBRANCH   4  19
TORSDOF 12
ENDMDL
MODEL 4
REMARK VINA RESULT:      -8.2      4.071      6.463
REMARK  Name = 
REMARK  15 active torsions:
REMARK  status: ('A' for Active; 'I' for Inactive)
REMARK    1  A    between atoms: C_1  and  C_2
REMARK    2  A    between atoms: C_2  and  C_3
REMARK    3  A    between atoms: C_3  and  C_4
REMARK    4  A    between atoms: C_4  and  C_5
REMARK    5  A    between atoms: C_5  and  C_6
REMARK    6  A    between atoms: C_6  and  C_7
REMARK    7  A    between atoms: C_7  and  C_8
REMARK    8  A    between atoms: C_10  and  C_11
REMARK    9  A    between atoms: C_14  and  C_15
REMARK   10  A    between atoms: C_15  and  N_16
REMARK   11  A    between atoms: C_15  and  C_25
REMARK   12  A    between atoms: C_17  and  C_19
REMARK   13  A    between atoms: C_23  and  O_24
REMARK   14  A    between atoms: C_25  and  C_26
REMARK   15  A    between atoms: C_25  and  C_27
REMARK                            x       y       z     vdW  Elec       q    Type
REMARK                         _______ _______ _______ _____ _____    ______ ____
ROOT
ATOM      1  C   UNL     1       2.512   7.418  18.938  0.00  0.00    +0.000 A 
ATOM      2  C   UNL     1       2.420   8.356  17.901  0.00  0.00    +0.000 A 
ATOM      3  C   UNL     1       1.673   9.529  18.063  0.00  0.00    +0.000 A 
ATOM      4  C   UNL     1       1.001   9.793  19.267  0.00  0.00    +0.000 A 
ATOM      5  C   UNL     1       1.079   8.838  20.293  0.00  0.00    +0.000 A 
ATOM      6  C   UNL     1       1.839   7.674  20.137  0.00  0.00    +0.000 A 
ENDROOT
BRANCH   1   9
ATOM      7  C   UNL     1       3.932   4.386  17.929  0.00  0.00    +0.000 A 
ATOM      8  N   UNL     1       3.019   5.308  17.745  0.00  0.00    +0.000 NA
ATOM      9  C   UNL     1       3.288   6.199  18.760  0.00  0.00    +0.000 A 
ATOM     10  N   UNL     1       4.315   5.833  19.547  0.00  0.00    +0.000 NA
ATOM     11  O   UNL     1       4.745   4.629  18.993  0.00  0.00    +0.000 OA
BRANCH   7  12
ATOM     12  C   UNL     1       4.206   3.175  17.126  0.00  0.00    +0.000 C 
BRANCH  12  13
ATOM     13  C   UNL     1       3.678   1.933  17.842  0.00  0.00    +0.000 C 
BRANCH  13  14
ATOM     14  C   UNL     1       2.153   1.898  17.849  0.00  0.00    +0.000 C 
BRANCH  14  15
ATOM     15  C   UNL     1       1.616   1.915  19.280  0.00  0.00    +0.000 C 
BRANCH  15  16
ATOM     16  C   UNL     1       0.766   3.158  19.527  0.00  0.00    +0.000 C 
BRANCH  16  18
ATOM     17  C   UNL     1       2.440   3.240  21.398  0.00  0.00    +0.000 C 
ATOM     18  C   UNL     1       1.205   3.888  20.793  0.00  0.00    +0.000 C 
ENDBRANCH  16  18
ENDBRANCH  15  16
ENDBRANCH  14  15
ENDBRANCH  13  14
ENDBRANCH  12  13
ENDBRANCH   7  12
ENDBRANCH   1   9
BRANCH   4  19
ATOM     19  C   UNL     1       0.192  11.079  19.399  0.00  0.00    +0.000 C 
BRANCH  19  20
ATOM     20  N   UNL     1       1.127  12.203  19.436  0.00  0.00    +0.000 N 
ATOM     21  C   UNL     1       1.383  12.910  20.590  0.00  0.00    +0.000 C 
ATOM     22  O   UNL     1       0.859  12.643  21.676  0.00  0.00    +0.000 OA
ATOM     23  H   UNL     1       1.733  12.348  18.633  0.00  0.00    +0.000 HD
BRANCH  21  24
ATOM     24  C   UNL     1       2.341  14.109  20.420  0.00  0.00    +0.000 C 
ATOM     25  N   UNL     1       1.952  14.918  19.234  0.00  0.00    +0.000 NA
ATOM     26  C   UNL     1       1.981  16.331  19.616  0.00  0.00    +0.000 C 
ATOM     27  C   UNL     1       2.605  16.407  20.995  0.00  0.00    +0.000 C 
ATOM     28  C   UNL     1       2.305  15.053  21.614  0.00  0.00    +0.000 C 
ATOM     29  H   UNL     1       0.993  14.650  18.978  0.00  0.00    +0.000 HD
BRANCH  28  30
ATOM     30  O   UNL     1       3.278  14.709  22.596  0.00  0.00    +0.000 OA
ATOM     31  H   UNL     1       2.809  14.440  23.408  0.00  0.00    +0.000 HD
ENDBRANCH  28  30
ENDBRANCH  21  24
ENDBRANCH  19  20
BRANCH  19  32
ATOM     32  C   UNL     1      -0.899  11.280  18.303  0.00  0.00    +0.000 C 
ATOM     33  C   UNL     1      -1.801  10.044  18.161  0.00  0.00    +0.000 C 
ATOM     34  C   UNL     1      -1.794  12.492  18.596  0.00  0.00    +0.000 C 
ENDBRANCH  19  32
ENDBRANCH   4  19
TORSDOF 12
ENDMDL
MODEL 5
REMARK VINA RESULT:      -8.2      2.685      4.139
REMARK  Name = 
REMARK  15 active torsions:
REMARK  status: ('A' for Active; 'I' for Inactive)
REMARK    1  A    between atoms: C_1  and  C_2
REMARK    2  A    between atoms: C_2  and  C_3
REMARK    3  A    between atoms: C_3  and  C_4
REMARK    4  A    between atoms: C_4  and  C_5
REMARK    5  A    between atoms: C_5  and  C_6
REMARK    6  A    between atoms: C_6  and  C_7
REMARK    7  A    between atoms: C_7  and  C_8
REMARK    8  A    between atoms: C_10  and  C_11
REMARK    9  A    between atoms: C_14  and  C_15
REMARK   10  A    between atoms: C_15  and  N_16
REMARK   11  A    between atoms: C_15  and  C_25
REMARK   12  A    between atoms: C_17  and  C_19
REMARK   13  A    between atoms: C_23  and  O_24
REMARK   14  A    between atoms: C_25  and  C_26
REMARK   15  A    between atoms: C_25  and  C_27
REMARK                            x       y       z     vdW  Elec       q    Type
REMARK                         _______ _______ _______ _____ _____    ______ ____
ROOT
ATOM      1  C   UNL     1       3.272   6.965  18.226  0.00  0.00    +0.000 A 
ATOM      2  C   UNL     1       2.955   8.121  17.500  0.00  0.00    +0.000 A 
ATOM      3  C   UNL     1       2.110   9.096  18.042  0.00  0.00    +0.000 A 
ATOM      4  C   UNL     1       1.562   8.940  19.325  0.00  0.00    +0.000 A 
ATOM      5  C   UNL     1       1.865   7.770  20.038  0.00  0.00    +0.000 A 
ATOM      6  C   UNL     1       2.724   6.804  19.502  0.00  0.00    +0.000 A 
ENDROOT
BRANCH   1   9
ATOM      7  C   UNL     1       5.471   5.033  16.313  0.00  0.00    +0.000 A 
ATOM      8  N   UNL     1       4.789   6.144  16.450  0.00  0.00    +0.000 NA
ATOM      9  C   UNL     1       4.149   5.954  17.654  0.00  0.00    +0.000 A 
ATOM     10  N   UNL     1       4.414   4.767  18.228  0.00  0.00    +0.000 NA
ATOM     11  O   UNL     1       5.294   4.156  17.339  0.00  0.00    +0.000 OA
BRANCH   7  12
ATOM     12  C   UNL     1       6.410   4.644  15.239  0.00  0.00    +0.000 C 
BRANCH  12  13
ATOM     13  C   UNL     1       5.735   3.673  14.271  0.00  0.00    +0.000 C 
BRANCH  13  14
ATOM     14  C   UNL     1       6.422   3.674  12.909  0.00  0.00    +0.000 C 
BRANCH  14  15
ATOM     15  C   UNL     1       5.417   3.963  11.795  0.00  0.00    +0.000 C 
BRANCH  15  16
ATOM     16  C   UNL     1       4.721   2.682  11.345  0.00  0.00    +0.000 C 
BRANCH  16  18
ATOM     17  C   UNL     1       3.242   4.044   9.840  0.00  0.00    +0.000 C 
ATOM     18  C   UNL     1       3.287   2.956  10.900  0.00  0.00    +0.000 C 
ENDBRANCH  16  18
ENDBRANCH  15  16
ENDBRANCH  14  15
ENDBRANCH  13  14
ENDBRANCH  12  13
ENDBRANCH   7  12
ENDBRANCH   1   9
BRANCH   4  19
ATOM     19  C   UNL     1       0.641  10.024  19.875  0.00  0.00    +0.000 C 
BRANCH  19  20
ATOM     20  N   UNL     1      -0.560  10.067  19.042  0.00  0.00    +0.000 N 
ATOM     21  C   UNL     1      -0.992  11.225  18.433  0.00  0.00    +0.000 C 
ATOM     22  O   UNL     1      -0.396  12.302  18.530  0.00  0.00    +0.000 OA
ATOM     23  H   UNL     1      -0.981   9.186  18.763  0.00  0.00    +0.000 HD
BRANCH  21  24
ATOM     24  C   UNL     1      -2.319  11.094  17.654  0.00  0.00    +0.000 C 
ATOM     25  N   UNL     1      -2.206  11.755  16.326  0.00  0.00    +0.000 NA
ATOM     26  C   UNL     1      -2.774  10.858  15.319  0.00  0.00    +0.000 C 
ATOM     27  C   UNL     1      -3.441   9.718  16.063  0.00  0.00    +0.000 C 
ATOM     28  C   UNL     1      -2.687   9.642  17.379  0.00  0.00    +0.000 C 
ATOM     29  H   UNL     1      -1.205  11.898  16.135  0.00  0.00    +0.000 HD
BRANCH  28  30
ATOM     30  O   UNL     1      -3.505   9.095  18.410  0.00  0.00    +0.000 OA
ATOM     31  H   UNL     1      -4.295   8.703  17.995  0.00  0.00    +0.000 HD
ENDBRANCH  28  30
ENDBRANCH  21  24
ENDBRANCH  19  20
BRANCH  19  32
ATOM     32  C   UNL     1       0.282   9.872  21.385  0.00  0.00    +0.000 C 
ATOM     33  C   UNL     1      -0.339  11.155  21.958  0.00  0.00    +0.000 C 
ATOM     34  C   UNL     1      -0.698   8.717  21.632  0.00  0.00    +0.000 C 
ENDBRANCH  19  32
ENDBRANCH   4  19
TORSDOF 12
ENDMDL
MODEL 6
REMARK VINA RESULT:      -8.2      4.069     10.854
REMARK  Name = 
REMARK  15 active torsions:
REMARK  status: ('A' for Active; 'I' for Inactive)
REMARK    1  A    between atoms: C_1  and  C_2
REMARK    2  A    between atoms: C_2  and  C_3
REMARK    3  A    between atoms: C_3  and  C_4
REMARK    4  A    between atoms: C_4  and  C_5
REMARK    5  A    between atoms: C_5  and  C_6
REMARK    6  A    between atoms: C_6  and  C_7
REMARK    7  A    between atoms: C_7  and  C_8
REMARK    8  A    between atoms: C_10  and  C_11
REMARK    9  A    between atoms: C_14  and  C_15
REMARK   10  A    between atoms: C_15  and  N_16
REMARK   11  A    between atoms: C_15  and  C_25
REMARK   12  A    between atoms: C_17  and  C_19
REMARK   13  A    between atoms: C_23  and  O_24
REMARK   14  A    between atoms: C_25  and  C_26
REMARK   15  A    between atoms: C_25  and  C_27
REMARK                            x       y       z     vdW  Elec       q    Type
REMARK                         _______ _______ _______ _____ _____    ______ ____
ROOT
ATOM      1  C   UNL     1       1.228   9.148  20.214  0.00  0.00    +0.000 A 
ATOM      2  C   UNL     1       1.528   9.304  18.855  0.00  0.00    +0.000 A 
ATOM      3  C   UNL     1       2.111   8.260  18.127  0.00  0.00    +0.000 A 
ATOM      4  C   UNL     1       2.406   7.032  18.741  0.00  0.00    +0.000 A 
ATOM      5  C   UNL     1       2.123   6.890  20.108  0.00  0.00    +0.000 A 
ATOM      6  C   UNL     1       1.525   7.929  20.831  0.00  0.00    +0.000 A 
ENDROOT
BRANCH   1   9
ATOM      7  C   UNL     1      -0.724  11.264  22.199  0.00  0.00    +0.000 A 
ATOM      8  N   UNL     1      -0.545  10.077  21.672  0.00  0.00    +0.000 NA
ATOM      9  C   UNL     1       0.625  10.240  20.965  0.00  0.00    +0.000 A 
ATOM     10  N   UNL     1       1.138  11.481  21.040  0.00  0.00    +0.000 NA
ATOM     11  O   UNL     1       0.242  12.161  21.862  0.00  0.00    +0.000 OA
BRANCH   7  12
ATOM     12  C   UNL     1      -1.789  11.723  23.117  0.00  0.00    +0.000 C 
BRANCH  12  13
ATOM     13  C   UNL     1      -1.611  13.207  23.435  0.00  0.00    +0.000 C 
BRANCH  13  14
ATOM     14  C   UNL     1      -2.953  13.930  23.496  0.00  0.00    +0.000 C 
BRANCH  14  15
ATOM     15  C   UNL     1      -4.026  13.031  24.109  0.00  0.00    +0.000 C 
BRANCH  15  16
ATOM     16  C   UNL     1      -5.310  13.079  23.285  0.00  0.00    +0.000 C 
BRANCH  16  18
ATOM     17  C   UNL     1      -7.799  12.738  23.300  0.00  0.00    +0.000 C 
ATOM     18  C   UNL     1      -6.529  12.730  24.135  0.00  0.00    +0.000 C 
ENDBRANCH  16  18
ENDBRANCH  15  16
ENDBRANCH  14  15
ENDBRANCH  13  14
ENDBRANCH  12  13
ENDBRANCH   7  12
ENDBRANCH   1   9
BRANCH   4  19
ATOM     19  C   UNL     1       3.047   5.923  17.913  0.00  0.00    +0.000 C 
BRANCH  19  20
ATOM     20  N   UNL     1       4.498   6.077  17.992  0.00  0.00    +0.000 N 
ATOM     21  C   UNL     1       5.253   6.496  16.918  0.00  0.00    +0.000 C 
ATOM     22  O   UNL     1       4.765   6.787  15.822  0.00  0.00    +0.000 OA
ATOM     23  H   UNL     1       4.934   6.045  18.909  0.00  0.00    +0.000 HD
BRANCH  21  24
ATOM     24  C   UNL     1       6.777   6.528  17.167  0.00  0.00    +0.000 C 
ATOM     25  N   UNL     1       7.283   7.925  17.101  0.00  0.00    +0.000 NA
ATOM     26  C   UNL     1       8.179   8.141  18.239  0.00  0.00    +0.000 C 
ATOM     27  C   UNL     1       8.398   6.792  18.895  0.00  0.00    +0.000 C 
ATOM     28  C   UNL     1       7.148   6.002  18.547  0.00  0.00    +0.000 C 
ATOM     29  H   UNL     1       6.471   8.552  17.179  0.00  0.00    +0.000 HD
BRANCH  28  30
ATOM     30  O   UNL     1       7.412   4.602  18.532  0.00  0.00    +0.000 OA
ATOM     31  H   UNL     1       7.129   4.248  17.670  0.00  0.00    +0.000 HD
ENDBRANCH  28  30
ENDBRANCH  21  24
ENDBRANCH  19  20
BRANCH  19  32
ATOM     32  C   UNL     1       2.603   4.479  18.302  0.00  0.00    +0.000 C 
ATOM     33  C   UNL     1       1.320   4.058  17.568  0.00  0.00    +0.000 C 
ATOM     34  C   UNL     1       3.691   3.440  17.995  0.00  0.00    +0.000 C 
ENDBRANCH  19  32
ENDBRANCH   4  19
TORSDOF 12
ENDMDL
MODEL 7
REMARK VINA RESULT:      -8.1      3.589      6.278
REMARK  Name = 
REMARK  15 active torsions:
REMARK  status: ('A' for Active; 'I' for Inactive)
REMARK    1  A    between atoms: C_1  and  C_2
REMARK    2  A    between atoms: C_2  and  C_3
REMARK    3  A    between atoms: C_3  and  C_4
REMARK    4  A    between atoms: C_4  and  C_5
REMARK    5  A    between atoms: C_5  and  C_6
REMARK    6  A    between atoms: C_6  and  C_7
REMARK    7  A    between atoms: C_7  and  C_8
REMARK    8  A    between atoms: C_10  and  C_11
REMARK    9  A    between atoms: C_14  and  C_15
REMARK   10  A    between atoms: C_15  and  N_16
REMARK   11  A    between atoms: C_15  and  C_25
REMARK   12  A    between atoms: C_17  and  C_19
REMARK   13  A    between atoms: C_23  and  O_24
REMARK   14  A    between atoms: C_25  and  C_26
REMARK   15  A    between atoms: C_25  and  C_27
REMARK                            x       y       z     vdW  Elec       q    Type
REMARK                         _______ _______ _______ _____ _____    ______ ____
ROOT
ATOM      1  C   UNL     1       2.272   7.462  19.191  0.00  0.00    +0.000 A 
ATOM      2  C   UNL     1       2.098   8.406  18.170  0.00  0.00    +0.000 A 
ATOM      3  C   UNL     1       1.388   9.590  18.405  0.00  0.00    +0.000 A 
ATOM      4  C   UNL     1       0.837   9.859  19.667  0.00  0.00    +0.000 A 
ATOM      5  C   UNL     1       0.996   8.900  20.679  0.00  0.00    +0.000 A 
ATOM      6  C   UNL     1       1.720   7.725  20.448  0.00  0.00    +0.000 A 
ENDROOT
BRANCH   1   9
ATOM      7  C   UNL     1       3.860   4.637  17.878  0.00  0.00    +0.000 A 
ATOM      8  N   UNL     1       3.131   5.706  17.671  0.00  0.00    +0.000 NA
ATOM      9  C   UNL     1       3.008   6.232  18.938  0.00  0.00    +0.000 A 
ATOM     10  N   UNL     1       3.624   5.508  19.888  0.00  0.00    +0.000 NA
ATOM     11  O   UNL     1       4.193   4.449  19.184  0.00  0.00    +0.000 OA
BRANCH   7  12
ATOM     12  C   UNL     1       4.384   3.664  16.895  0.00  0.00    +0.000 C 
BRANCH  12  13
ATOM     13  C   UNL     1       5.130   4.390  15.777  0.00  0.00    +0.000 C 
BRANCH  13  14
ATOM     14  C   UNL     1       6.641   4.301  15.964  0.00  0.00    +0.000 C 
BRANCH  14  15
ATOM     15  C   UNL     1       7.202   5.621  16.491  0.00  0.00    +0.000 C 
BRANCH  15  16
ATOM     16  C   UNL     1       7.440   5.546  17.997  0.00  0.00    +0.000 C 
BRANCH  16  18
ATOM     17  C   UNL     1       7.721   8.007  17.579  0.00  0.00    +0.000 C 
ATOM     18  C   UNL     1       8.000   6.860  18.536  0.00  0.00    +0.000 C 
ENDBRANCH  16  18
ENDBRANCH  15  16
ENDBRANCH  14  15
ENDBRANCH  13  14
ENDBRANCH  12  13
ENDBRANCH   7  12
ENDBRANCH   1   9
BRANCH   4  19
ATOM     19  C   UNL     1       0.066  11.158  19.878  0.00  0.00    +0.000 C 
BRANCH  19  20
ATOM     20  N   UNL     1      -1.329  10.925  19.509  0.00  0.00    +0.000 N 
ATOM     21  C   UNL     1      -1.951  11.627  18.499  0.00  0.00    +0.000 C 
ATOM     22  O   UNL     1      -1.379  12.488  17.825  0.00  0.00    +0.000 OA
ATOM     23  H   UNL     1      -1.793  10.104  19.885  0.00  0.00    +0.000 HD
BRANCH  21  24
ATOM     24  C   UNL     1      -3.446  11.296  18.302  0.00  0.00    +0.000 C 
ATOM     25  N   UNL     1      -4.289  12.189  19.140  0.00  0.00    +0.000 NA
ATOM     26  C   UNL     1      -5.396  12.679  18.317  0.00  0.00    +0.000 C 
ATOM     27  C   UNL     1      -5.356  11.907  17.013  0.00  0.00    +0.000 C 
ATOM     28  C   UNL     1      -3.899  11.505  16.863  0.00  0.00    +0.000 C 
ATOM     29  H   UNL     1      -3.702  12.982  19.435  0.00  0.00    +0.000 HD
BRANCH  28  30
ATOM     30  O   UNL     1      -3.770  10.319  16.084  0.00  0.00    +0.000 OA
ATOM     31  H   UNL     1      -2.826  10.192  15.877  0.00  0.00    +0.000 HD
ENDBRANCH  28  30
ENDBRANCH  21  24
ENDBRANCH  19  20
BRANCH  19  32
ATOM     32  C   UNL     1       0.184  11.762  21.311  0.00  0.00    +0.000 C 
ATOM     33  C   UNL     1       0.486  13.269  21.274  0.00  0.00    +0.000 C 
ATOM     34  C   UNL     1      -1.097  11.554  22.132  0.00  0.00    +0.000 C 
ENDBRANCH  19  32
ENDBRANCH   4  19
TORSDOF 12
ENDMDL
MODEL 8
REMARK VINA RESULT:      -8.0      3.622      5.882
REMARK  Name = 
REMARK  15 active torsions:
REMARK  status: ('A' for Active; 'I' for Inactive)
REMARK    1  A    between atoms: C_1  and  C_2
REMARK    2  A    between atoms: C_2  and  C_3
REMARK    3  A    between atoms: C_3  and  C_4
REMARK    4  A    between atoms: C_4  and  C_5
REMARK    5  A    between atoms: C_5  and  C_6
REMARK    6  A    between atoms: C_6  and  C_7
REMARK    7  A    between atoms: C_7  and  C_8
REMARK    8  A    between atoms: C_10  and  C_11
REMARK    9  A    between atoms: C_14  and  C_15
REMARK   10  A    between atoms: C_15  and  N_16
REMARK   11  A    between atoms: C_15  and  C_25
REMARK   12  A    between atoms: C_17  and  C_19
REMARK   13  A    between atoms: C_23  and  O_24
REMARK   14  A    between atoms: C_25  and  C_26
REMARK   15  A    between atoms: C_25  and  C_27
REMARK                            x       y       z     vdW  Elec       q    Type
REMARK                         _______ _______ _______ _____ _____    ______ ____
ROOT
ATOM      1  C   UNL     1       2.443   7.067  19.136  0.00  0.00    +0.000 A 
ATOM      2  C   UNL     1       1.809   7.256  20.371  0.00  0.00    +0.000 A 
ATOM      3  C   UNL     1       1.102   8.434  20.639  0.00  0.00    +0.000 A 
ATOM      4  C   UNL     1       1.011   9.452  19.676  0.00  0.00    +0.000 A 
ATOM      5  C   UNL     1       1.667   9.266  18.450  0.00  0.00    +0.000 A 
ATOM      6  C   UNL     1       2.359   8.081  18.177  0.00  0.00    +0.000 A 
ENDROOT
BRANCH   1   9
ATOM      7  C   UNL     1       4.021   4.252  17.788  0.00  0.00    +0.000 A 
ATOM      8  N   UNL     1       3.284   5.319  17.597  0.00  0.00    +0.000 NA
ATOM      9  C   UNL     1       3.180   5.841  18.867  0.00  0.00    +0.000 A 
ATOM     10  N   UNL     1       3.814   5.116  19.805  0.00  0.00    +0.000 NA
ATOM     11  O   UNL     1       4.375   4.061  19.089  0.00  0.00    +0.000 OA
BRANCH   7  12
ATOM     12  C   UNL     1       4.533   3.285  16.794  0.00  0.00    +0.000 C 
BRANCH  12  13
ATOM     13  C   UNL     1       5.535   3.963  15.862  0.00  0.00    +0.000 C 
BRANCH  13  14
ATOM     14  C   UNL     1       6.765   4.448  16.621  0.00  0.00    +0.000 C 
BRANCH  14  15
ATOM     15  C   UNL     1       7.029   5.927  16.339  0.00  0.00    +0.000 C 
BRANCH  15  16
ATOM     16  C   UNL     1       6.705   6.779  17.563  0.00  0.00    +0.000 C 
BRANCH  16  18
ATOM     17  C   UNL     1       8.117   8.835  17.862  0.00  0.00    +0.000 C 
ATOM     18  C   UNL     1       7.972   7.358  18.187  0.00  0.00    +0.000 C 
ENDBRANCH  16  18
ENDBRANCH  15  16
ENDBRANCH  14  15
ENDBRANCH  13  14
ENDBRANCH  12  13
ENDBRANCH   7  12
ENDBRANCH   1   9
BRANCH   4  19
ATOM     19  C   UNL     1       0.236  10.722  20.012  0.00  0.00    +0.000 C 
BRANCH  19  20
ATOM     20  N   UNL     1       0.971  11.862  19.466  0.00  0.00    +0.000 N 
ATOM     21  C   UNL     1       1.484  12.859  20.267  0.00  0.00    +0.000 C 
ATOM     22  O   UNL     1       1.377  12.859  21.497  0.00  0.00    +0.000 OA
ATOM     23  H   UNL     1       1.263  11.822  18.494  0.00  0.00    +0.000 HD
BRANCH  21  24
ATOM     24  C   UNL     1       2.165  14.018  19.507  0.00  0.00    +0.000 C 
ATOM     25  N   UNL     1       2.998  14.826  20.437  0.00  0.00    +0.000 NA
ATOM     26  C   UNL     1       4.290  15.075  19.795  0.00  0.00    +0.000 C 
ATOM     27  C   UNL     1       4.174  14.595  18.361  0.00  0.00    +0.000 C 
ATOM     28  C   UNL     1       3.102  13.521  18.414  0.00  0.00    +0.000 C 
ATOM     29  H   UNL     1       3.140  14.269  21.290  0.00  0.00    +0.000 HD
BRANCH  28  30
ATOM     30  O   UNL     1       2.439  13.394  17.160  0.00  0.00    +0.000 OA
ATOM     31  H   UNL     1       2.355  14.282  16.768  0.00  0.00    +0.000 HD
ENDBRANCH  28  30
ENDBRANCH  21  24
ENDBRANCH  19  20
BRANCH  19  32
ATOM     32  C   UNL     1      -1.251  10.724  19.541  0.00  0.00    +0.000 C 
ATOM     33  C   UNL     1      -2.013  11.954  20.057  0.00  0.00    +0.000 C 
ATOM     34  C   UNL     1      -1.371  10.697  18.011  0.00  0.00    +0.000 C 
ENDBRANCH  19  32
ENDBRANCH   4  19
TORSDOF 12
ENDMDL
MODEL 9
REMARK VINA RESULT:      -8.0      4.028      9.305
REMARK  Name = 
REMARK  15 active torsions:
REMARK  status: ('A' for Active; 'I' for Inactive)
REMARK    1  A    between atoms: C_1  and  C_2
REMARK    2  A    between atoms: C_2  and  C_3
REMARK    3  A    between atoms: C_3  and  C_4
REMARK    4  A    between atoms: C_4  and  C_5
REMARK    5  A    between atoms: C_5  and  C_6
REMARK    6  A    between atoms: C_6  and  C_7
REMARK    7  A    between atoms: C_7  and  C_8
REMARK    8  A    between atoms: C_10  and  C_11
REMARK    9  A    between atoms: C_14  and  C_15
REMARK   10  A    between atoms: C_15  and  N_16
REMARK   11  A    between atoms: C_15  and  C_25
REMARK   12  A    between atoms: C_17  and  C_19
REMARK   13  A    between atoms: C_23  and  O_24
REMARK   14  A    between atoms: C_25  and  C_26
REMARK   15  A    between atoms: C_25  and  C_27
REMARK                            x       y       z     vdW  Elec       q    Type
REMARK                         _______ _______ _______ _____ _____    ______ ____
ROOT
ATOM      1  C   UNL     1       1.169   8.699  20.450  0.00  0.00    +0.000 A 
ATOM      2  C   UNL     1       1.630   9.006  19.163  0.00  0.00    +0.000 A 
ATOM      3  C   UNL     1       2.258   8.032  18.378  0.00  0.00    +0.000 A 
ATOM      4  C   UNL     1       2.439   6.726  18.861  0.00  0.00    +0.000 A 
ATOM      5  C   UNL     1       1.995   6.432  20.159  0.00  0.00    +0.000 A 
ATOM      6  C   UNL     1       1.352   7.401  20.937  0.00  0.00    +0.000 A 
ENDROOT
BRANCH   1   9
ATOM      7  C   UNL     1      -0.612  11.415  21.748  0.00  0.00    +0.000 A 
ATOM      8  N   UNL     1      -0.191  10.754  20.697  0.00  0.00    +0.000 NA
ATOM      9  C   UNL     1       0.520   9.718  21.262  0.00  0.00    +0.000 A 
ATOM     10  N   UNL     1       0.548   9.749  22.606  0.00  0.00    +0.000 NA
ATOM     11  O   UNL     1      -0.206  10.875  22.929  0.00  0.00    +0.000 OA
BRANCH   7  12
ATOM     12  C   UNL     1      -1.478  12.611  21.808  0.00  0.00    +0.000 C 
BRANCH  12  13
ATOM     13  C   UNL     1      -1.865  13.058  20.399  0.00  0.00    +0.000 C 
BRANCH  13  14
ATOM     14  C   UNL     1      -3.296  12.656  20.058  0.00  0.00    +0.000 C 
BRANCH  14  15
ATOM     15  C   UNL     1      -3.316  11.384  19.211  0.00  0.00    +0.000 C 
BRANCH  15  16
ATOM     16  C   UNL     1      -3.631  11.707  17.754  0.00  0.00    +0.000 C 
BRANCH  16  18
ATOM     17  C   UNL     1      -1.732  10.089  17.464  0.00  0.00    +0.000 C 
ATOM     18  C   UNL     1      -2.523  11.218  16.825  0.00  0.00    +0.000 C 
ENDBRANCH  16  18
ENDBRANCH  15  16
ENDBRANCH  14  15
ENDBRANCH  13  14
ENDBRANCH  12  13
ENDBRANCH   7  12
ENDBRANCH   1   9
BRANCH   4  19
ATOM     19  C   UNL     1       3.135   5.698  17.975  0.00  0.00    +0.000 C 
BRANCH  19  20
ATOM     20  N   UNL     1       4.574   5.950  18.028  0.00  0.00    +0.000 N 
ATOM     21  C   UNL     1       5.299   6.312  16.913  0.00  0.00    +0.000 C 
ATOM     22  O   UNL     1       4.792   6.465  15.798  0.00  0.00    +0.000 OA
ATOM     23  H   UNL     1       5.012   6.034  18.940  0.00  0.00    +0.000 HD
BRANCH  21  24
ATOM     24  C   UNL     1       6.818   6.464  17.147  0.00  0.00    +0.000 C 
ATOM     25  N   UNL     1       7.236   7.875  16.930  0.00  0.00    +0.000 NA
ATOM     26  C   UNL     1       8.118   8.265  18.031  0.00  0.00    +0.000 C 
ATOM     27  C   UNL     1       8.421   7.009  18.825  0.00  0.00    +0.000 C 
ATOM     28  C   UNL     1       7.222   6.111  18.572  0.00  0.00    +0.000 C 
ATOM     29  H   UNL     1       6.387   8.455  16.947  0.00  0.00    +0.000 HD
BRANCH  28  30
ATOM     30  O   UNL     1       7.572   4.737  18.703  0.00  0.00    +0.000 OA
ATOM     31  H   UNL     1       6.813   4.200  18.412  0.00  0.00    +0.000 HD
ENDBRANCH  28  30
ENDBRANCH  21  24
ENDBRANCH  19  20
BRANCH  19  32
ATOM     32  C   UNL     1       2.803   4.213  18.315  0.00  0.00    +0.000 C 
ATOM     33  C   UNL     1       1.573   3.710  17.543  0.00  0.00    +0.000 C 
ATOM     34  C   UNL     1       3.976   3.274  18.003  0.00  0.00    +0.000 C 
ENDBRANCH  19  32
ENDBRANCH   4  19
TORSDOF 12
ENDMDL
