MODEL 1
REMARK VINA RESULT:      -7.5      0.000      0.000
REMARK  Name = 
REMARK  6 active torsions:
REMARK  status: ('A' for Active; 'I' for Inactive)
REMARK    1  A    between atoms: C_1  and  C_2
REMARK    2  A    between atoms: C_5  and  O_6
REMARK    3  A    between atoms: O_6  and  C_7
REMARK    4  A    between atoms: C_8  and  C_9
REMARK    5  A    between atoms: C_13  and  N_14
REMARK    6  A    between atoms: C_18  and  N_19
REMARK                            x       y       z     vdW  Elec       q    Type
REMARK                         _______ _______ _______ _____ _____    ______ ____
ROOT
ATOM      1  C   UNL     1       5.390   4.562  18.076  0.00  0.00    +0.000 A 
ATOM      2  C   UNL     1       6.610   5.217  17.791  0.00  0.00    +0.000 A 
ATOM      3  C   UNL     1       7.093   5.251  16.462  0.00  0.00    +0.000 A 
ATOM      4  C   UNL     1       6.385   4.631  15.428  0.00  0.00    +0.000 A 
ATOM      5  C   UNL     1       5.211   3.928  15.701  0.00  0.00    +0.000 A 
ATOM      6  C   UNL     1       4.749   3.877  17.022  0.00  0.00    +0.000 A 
ENDROOT
BRANCH   2   7
ATOM      7  C   UNL     1       7.496   5.881  18.804  0.00  0.00    +0.000 C 
ATOM      8  N   UNL     1       7.747   5.259  19.988  0.00  0.00    +0.000 N 
ATOM      9  O   UNL     1       8.016   6.966  18.568  0.00  0.00    +0.000 OA
ATOM     10  H   UNL     1       7.360   4.358  20.240  0.00  0.00    +0.000 HD
ATOM     11  H   UNL     1       8.369   5.719  20.640  0.00  0.00    +0.000 HD
ENDBRANCH   2   7
BRANCH   4  12
ATOM     12  N   UNL     1       6.889   4.690  14.049  0.00  0.00    +0.000 N 
ATOM     13  O   UNL     1       7.790   5.497  13.801  0.00  0.00    +0.000 OA
ATOM     14  O   UNL     1       6.375   3.924  13.222  0.00  0.00    +0.000 OA
ENDBRANCH   4  12
BRANCH   6  15
ATOM     15  N   UNL     1       3.607   3.008  17.253  0.00  0.00    +0.000 N 
ATOM     16  O   UNL     1       2.496   3.428  16.907  0.00  0.00    +0.000 OA
ATOM     17  O   UNL     1       3.833   1.943  17.844  0.00  0.00    +0.000 OA
ENDBRANCH   6  15
BRANCH   1  18
ATOM     18  O   UNL     1       4.948   4.567  19.380  0.00  0.00    +0.000 OA
BRANCH  18  23
ATOM     19  C   UNL     1       0.390   7.635  20.814  0.00  0.00    +0.000 C 
ATOM     20  C   UNL     1       1.572   6.796  20.426  0.00  0.00    +0.000 A 
ATOM     21  C   UNL     1       2.547   7.291  19.555  0.00  0.00    +0.000 A 
ATOM     22  C   UNL     1       3.647   6.505  19.211  0.00  0.00    +0.000 A 
ATOM     23  C   UNL     1       3.785   5.218  19.732  0.00  0.00    +0.000 A 
ATOM     24  C   UNL     1       2.784   4.690  20.551  0.00  0.00    +0.000 A 
ATOM     25  C   UNL     1       1.700   5.493  20.923  0.00  0.00    +0.000 A 
ENDBRANCH  18  23
ENDBRANCH   1  18
TORSDOF 5
ENDMDL
MODEL 2
REMARK VINA RESULT:      -7.4      0.685      1.145
REMARK  Name = 
REMARK  6 active torsions:
REMARK  status: ('A' for Active; 'I' for Inactive)
REMARK    1  A    between atoms: C_1  and  C_2
REMARK    2  A    between atoms: C_5  and  O_6
REMARK    3  A    between atoms: O_6  and  C_7
REMARK    4  A    between atoms: C_8  and  C_9
REMARK    5  A    between atoms: C_13  and  N_14
REMARK    6  A    between atoms: C_18  and  N_19
REMARK                            x       y       z     vdW  Elec       q    Type
REMARK                         _______ _______ _______ _____ _____    ______ ____
ROOT
ATOM      1  C   UNL     1       5.260   4.439  18.187  0.00  0.00    +0.000 A 
ATOM      2  C   UNL     1       6.507   5.069  17.969  0.00  0.00    +0.000 A 
ATOM      3  C   UNL     1       7.040   5.129  16.660  0.00  0.00    +0.000 A 
ATOM      4  C   UNL     1       6.356   4.559  15.582  0.00  0.00    +0.000 A 
ATOM      5  C   UNL     1       5.155   3.881  15.790  0.00  0.00    +0.000 A 
ATOM      6  C   UNL     1       4.642   3.803  17.091  0.00  0.00    +0.000 A 
ENDROOT
BRANCH   2   7
ATOM      7  C   UNL     1       7.370   5.678  19.034  0.00  0.00    +0.000 C 
ATOM      8  N   UNL     1       8.083   6.805  18.758  0.00  0.00    +0.000 N 
ATOM      9  O   UNL     1       7.424   5.188  20.156  0.00  0.00    +0.000 OA
ATOM     10  H   UNL     1       8.072   7.267  17.858  0.00  0.00    +0.000 HD
ATOM     11  H   UNL     1       8.635   7.208  19.504  0.00  0.00    +0.000 HD
ENDBRANCH   2   7
BRANCH   4  12
ATOM     12  N   UNL     1       6.914   4.646  14.225  0.00  0.00    +0.000 N 
ATOM     13  O   UNL     1       6.457   3.885  13.367  0.00  0.00    +0.000 OA
ATOM     14  O   UNL     1       7.809   5.479  14.030  0.00  0.00    +0.000 OA
ENDBRANCH   4  12
BRANCH   6  15
ATOM     15  N   UNL     1       3.470   2.958  17.251  0.00  0.00    +0.000 N 
ATOM     16  O   UNL     1       3.646   1.832  17.732  0.00  0.00    +0.000 OA
ATOM     17  O   UNL     1       2.399   3.411  16.826  0.00  0.00    +0.000 OA
ENDBRANCH   6  15
BRANCH   1  18
ATOM     18  O   UNL     1       4.769   4.417  19.474  0.00  0.00    +0.000 OA
BRANCH  18  23
ATOM     19  C   UNL     1       0.402   7.770  20.862  0.00  0.00    +0.000 C 
ATOM     20  C   UNL     1       1.533   6.858  20.487  0.00  0.00    +0.000 A 
ATOM     21  C   UNL     1       2.529   7.277  19.601  0.00  0.00    +0.000 A 
ATOM     22  C   UNL     1       3.580   6.422  19.269  0.00  0.00    +0.000 A 
ATOM     23  C   UNL     1       3.647   5.141  19.817  0.00  0.00    +0.000 A 
ATOM     24  C   UNL     1       2.623   4.689  20.652  0.00  0.00    +0.000 A 
ATOM     25  C   UNL     1       1.588   5.560  21.012  0.00  0.00    +0.000 A 
ENDBRANCH  18  23
ENDBRANCH   1  18
TORSDOF 5
ENDMDL
MODEL 3
REMARK VINA RESULT:      -7.4      0.812      3.173
REMARK  Name = 
REMARK  6 active torsions:
REMARK  status: ('A' for Active; 'I' for Inactive)
REMARK    1  A    between atoms: C_1  and  C_2
REMARK    2  A    between atoms: C_5  and  O_6
REMARK    3  A    between atoms: O_6  and  C_7
REMARK    4  A    between atoms: C_8  and  C_9
REMARK    5  A    between atoms: C_13  and  N_14
REMARK    6  A    between atoms: C_18  and  N_19
REMARK                            x       y       z     vdW  Elec       q    Type
REMARK                         _______ _______ _______ _____ _____    ______ ____
ROOT
ATOM      1  C   UNL     1       5.242   4.249  18.167  0.00  0.00    +0.000 A 
ATOM      2  C   UNL     1       4.516   3.700  17.085  0.00  0.00    +0.000 A 
ATOM      3  C   UNL     1       5.046   3.777  15.776  0.00  0.00    +0.000 A 
ATOM      4  C   UNL     1       6.273   4.405  15.536  0.00  0.00    +0.000 A 
ATOM      5  C   UNL     1       6.972   5.005  16.584  0.00  0.00    +0.000 A 
ATOM      6  C   UNL     1       6.432   4.947  17.875  0.00  0.00    +0.000 A 
ENDROOT
BRANCH   2   7
ATOM      7  C   UNL     1       3.171   3.043  17.186  0.00  0.00    +0.000 C 
ATOM      8  N   UNL     1       3.054   1.845  17.821  0.00  0.00    +0.000 N 
ATOM      9  O   UNL     1       2.172   3.582  16.723  0.00  0.00    +0.000 OA
ATOM     10  H   UNL     1       3.835   1.353  18.236  0.00  0.00    +0.000 HD
ATOM     11  H   UNL     1       2.130   1.439  17.897  0.00  0.00    +0.000 HD
ENDBRANCH   2   7
BRANCH   4  12
ATOM     12  N   UNL     1       6.820   4.461  14.174  0.00  0.00    +0.000 N 
ATOM     13  O   UNL     1       7.696   5.299  13.942  0.00  0.00    +0.000 OA
ATOM     14  O   UNL     1       6.364   3.662  13.344  0.00  0.00    +0.000 OA
ENDBRANCH   4  12
BRANCH   6  15
ATOM     15  N   UNL     1       7.139   5.718  18.884  0.00  0.00    +0.000 N 
ATOM     16  O   UNL     1       7.662   6.779  18.522  0.00  0.00    +0.000 OA
ATOM     17  O   UNL     1       7.219   5.213  20.012  0.00  0.00    +0.000 OA
ENDBRANCH   6  15
BRANCH   1  18
ATOM     18  O   UNL     1       4.698   4.137  19.427  0.00  0.00    +0.000 OA
BRANCH  18  23
ATOM     19  C   UNL     1       0.542   7.686  20.967  0.00  0.00    +0.000 C 
ATOM     20  C   UNL     1       1.615   6.723  20.552  0.00  0.00    +0.000 A 
ATOM     21  C   UNL     1       2.613   7.107  19.652  0.00  0.00    +0.000 A 
ATOM     22  C   UNL     1       3.612   6.204  19.283  0.00  0.00    +0.000 A 
ATOM     23  C   UNL     1       3.623   4.912  19.807  0.00  0.00    +0.000 A 
ATOM     24  C   UNL     1       2.594   4.498  20.656  0.00  0.00    +0.000 A 
ATOM     25  C   UNL     1       1.614   5.415  21.053  0.00  0.00    +0.000 A 
ENDBRANCH  18  23
ENDBRANCH   1  18
TORSDOF 5
ENDMDL
MODEL 4
REMARK VINA RESULT:      -7.2      0.184      1.208
REMARK  Name = 
REMARK  6 active torsions:
REMARK  status: ('A' for Active; 'I' for Inactive)
REMARK    1  A    between atoms: C_1  and  C_2
REMARK    2  A    between atoms: C_5  and  O_6
REMARK    3  A    between atoms: O_6  and  C_7
REMARK    4  A    between atoms: C_8  and  C_9
REMARK    5  A    between atoms: C_13  and  N_14
REMARK    6  A    between atoms: C_18  and  N_19
REMARK                            x       y       z     vdW  Elec       q    Type
REMARK                         _______ _______ _______ _____ _____    ______ ____
ROOT
ATOM      1  C   UNL     1       5.260   4.503  17.987  0.00  0.00    +0.000 A 
ATOM      2  C   UNL     1       6.483   5.142  17.681  0.00  0.00    +0.000 A 
ATOM      3  C   UNL     1       6.957   5.145  16.349  0.00  0.00    +0.000 A 
ATOM      4  C   UNL     1       6.237   4.509  15.332  0.00  0.00    +0.000 A 
ATOM      5  C   UNL     1       5.059   3.822  15.627  0.00  0.00    +0.000 A 
ATOM      6  C   UNL     1       4.606   3.802  16.952  0.00  0.00    +0.000 A 
ENDROOT
BRANCH   2   7
ATOM      7  C   UNL     1       7.381   5.819  18.674  0.00  0.00    +0.000 C 
ATOM      8  N   UNL     1       7.639   5.217  19.867  0.00  0.00    +0.000 N 
ATOM      9  O   UNL     1       7.904   6.898  18.415  0.00  0.00    +0.000 OA
ATOM     10  H   UNL     1       7.251   4.322  20.138  0.00  0.00    +0.000 HD
ATOM     11  H   UNL     1       8.270   5.685  20.505  0.00  0.00    +0.000 HD
ENDBRANCH   2   7
BRANCH   4  12
ATOM     12  N   UNL     1       6.732   4.536  13.949  0.00  0.00    +0.000 N 
ATOM     13  O   UNL     1       6.278   3.701  13.160  0.00  0.00    +0.000 OA
ATOM     14  O   UNL     1       7.575   5.397  13.663  0.00  0.00    +0.000 OA
ENDBRANCH   4  12
BRANCH   6  15
ATOM     15  N   UNL     1       3.459   2.946  17.208  0.00  0.00    +0.000 N 
ATOM     16  O   UNL     1       2.343   3.391  16.912  0.00  0.00    +0.000 OA
ATOM     17  O   UNL     1       3.688   1.866  17.769  0.00  0.00    +0.000 OA
ENDBRANCH   6  15
BRANCH   1  18
ATOM     18  O   UNL     1       4.826   4.538  19.294  0.00  0.00    +0.000 OA
BRANCH  18  23
ATOM     19  C   UNL     1       0.266   7.518  20.896  0.00  0.00    +0.000 C 
ATOM     20  C   UNL     1       1.492   6.759  20.480  0.00  0.00    +0.000 A 
ATOM     21  C   UNL     1       1.756   5.487  20.994  0.00  0.00    +0.000 A 
ATOM     22  C   UNL     1       2.895   4.787  20.590  0.00  0.00    +0.000 A 
ATOM     23  C   UNL     1       3.780   5.351  19.672  0.00  0.00    +0.000 A 
ATOM     24  C   UNL     1       3.559   6.648  19.202  0.00  0.00    +0.000 A 
ATOM     25  C   UNL     1       2.399   7.333  19.580  0.00  0.00    +0.000 A 
ENDBRANCH  18  23
ENDBRANCH   1  18
TORSDOF 5
ENDMDL
MODEL 5
REMARK VINA RESULT:      -7.1      1.220      1.555
REMARK  Name = 
REMARK  6 active torsions:
REMARK  status: ('A' for Active; 'I' for Inactive)
REMARK    1  A    between atoms: C_1  and  C_2
REMARK    2  A    between atoms: C_5  and  O_6
REMARK    3  A    between atoms: O_6  and  C_7
REMARK    4  A    between atoms: C_8  and  C_9
REMARK    5  A    between atoms: C_13  and  N_14
REMARK    6  A    between atoms: C_18  and  N_19
REMARK                            x       y       z     vdW  Elec       q    Type
REMARK                         _______ _______ _______ _____ _____    ______ ____
ROOT
ATOM      1  C   UNL     1       5.196   5.100  17.309  0.00  0.00    +0.000 A 
ATOM      2  C   UNL     1       6.364   5.712  16.800  0.00  0.00    +0.000 A 
ATOM      3  C   UNL     1       6.817   5.383  15.501  0.00  0.00    +0.000 A 
ATOM      4  C   UNL     1       6.131   4.447  14.720  0.00  0.00    +0.000 A 
ATOM      5  C   UNL     1       5.012   3.789  15.231  0.00  0.00    +0.000 A 
ATOM      6  C   UNL     1       4.581   4.101  16.526  0.00  0.00    +0.000 A 
ENDROOT
BRANCH   2   7
ATOM      7  C   UNL     1       7.224   6.694  17.541  0.00  0.00    +0.000 C 
ATOM      8  N   UNL     1       7.758   6.346  18.743  0.00  0.00    +0.000 N 
ATOM      9  O   UNL     1       7.471   7.797  17.065  0.00  0.00    +0.000 OA
ATOM     10  H   UNL     1       7.604   5.448  19.185  0.00  0.00    +0.000 HD
ATOM     11  H   UNL     1       8.355   7.019  19.206  0.00  0.00    +0.000 HD
ENDBRANCH   2   7
BRANCH   4  12
ATOM     12  N   UNL     1       6.603   4.129  13.365  0.00  0.00    +0.000 N 
ATOM     13  O   UNL     1       6.044   3.206  12.765  0.00  0.00    +0.000 OA
ATOM     14  O   UNL     1       7.534   4.809  12.912  0.00  0.00    +0.000 OA
ENDBRANCH   4  12
BRANCH   6  15
ATOM     15  N   UNL     1       3.504   3.273  17.043  0.00  0.00    +0.000 N 
ATOM     16  O   UNL     1       2.346   3.649  16.825  0.00  0.00    +0.000 OA
ATOM     17  O   UNL     1       3.837   2.293  17.723  0.00  0.00    +0.000 OA
ENDBRANCH   6  15
BRANCH   1  18
ATOM     18  O   UNL     1       4.780   5.462  18.571  0.00  0.00    +0.000 OA
BRANCH  18  23
ATOM     19  C   UNL     1       0.808   9.486  19.088  0.00  0.00    +0.000 C 
ATOM     20  C   UNL     1       1.832   8.397  18.958  0.00  0.00    +0.000 A 
ATOM     21  C   UNL     1       2.670   8.331  17.842  0.00  0.00    +0.000 A 
ATOM     22  C   UNL     1       3.626   7.319  17.739  0.00  0.00    +0.000 A 
ATOM     23  C   UNL     1       3.754   6.365  18.748  0.00  0.00    +0.000 A 
ATOM     24  C   UNL     1       2.878   6.384  19.836  0.00  0.00    +0.000 A 
ATOM     25  C   UNL     1       1.944   7.420  19.955  0.00  0.00    +0.000 A 
ENDBRANCH  18  23
ENDBRANCH   1  18
TORSDOF 5
ENDMDL
MODEL 6
REMARK VINA RESULT:      -7.1      0.812      3.326
REMARK  Name = 
REMARK  6 active torsions:
REMARK  status: ('A' for Active; 'I' for Inactive)
REMARK    1  A    between atoms: C_1  and  C_2
REMARK    2  A    between atoms: C_5  and  O_6
REMARK    3  A    between atoms: O_6  and  C_7
REMARK    4  A    between atoms: C_8  and  C_9
REMARK    5  A    between atoms: C_13  and  N_14
REMARK    6  A    between atoms: C_18  and  N_19
REMARK                            x       y       z     vdW  Elec       q    Type
REMARK                         _______ _______ _______ _____ _____    ______ ____
ROOT
ATOM      1  C   UNL     1       5.244   4.317  18.105  0.00  0.00    +0.000 A 
ATOM      2  C   UNL     1       4.527   3.747  17.029  0.00  0.00    +0.000 A 
ATOM      3  C   UNL     1       5.067   3.799  15.722  0.00  0.00    +0.000 A 
ATOM      4  C   UNL     1       6.295   4.424  15.480  0.00  0.00    +0.000 A 
ATOM      5  C   UNL     1       6.986   5.045  16.521  0.00  0.00    +0.000 A 
ATOM      6  C   UNL     1       6.437   5.010  17.809  0.00  0.00    +0.000 A 
ENDROOT
BRANCH   2   7
ATOM      7  C   UNL     1       3.182   3.091  17.132  0.00  0.00    +0.000 C 
ATOM      8  N   UNL     1       3.062   1.902  17.783  0.00  0.00    +0.000 N 
ATOM      9  O   UNL     1       2.185   3.624  16.657  0.00  0.00    +0.000 OA
ATOM     10  H   UNL     1       3.841   1.416  18.208  0.00  0.00    +0.000 HD
ATOM     11  H   UNL     1       2.138   1.497  17.859  0.00  0.00    +0.000 HD
ENDBRANCH   2   7
BRANCH   4  12
ATOM     12  N   UNL     1       6.853   4.454  14.121  0.00  0.00    +0.000 N 
ATOM     13  O   UNL     1       7.735   5.284  13.882  0.00  0.00    +0.000 OA
ATOM     14  O   UNL     1       6.399   3.644  13.302  0.00  0.00    +0.000 OA
ENDBRANCH   4  12
BRANCH   6  15
ATOM     15  N   UNL     1       7.135   5.802  18.808  0.00  0.00    +0.000 N 
ATOM     16  O   UNL     1       7.643   6.865  18.434  0.00  0.00    +0.000 OA
ATOM     17  O   UNL     1       7.224   5.309  19.941  0.00  0.00    +0.000 OA
ENDBRANCH   6  15
BRANCH   1  18
ATOM     18  O   UNL     1       4.691   4.230  19.363  0.00  0.00    +0.000 OA
BRANCH  18  23
ATOM     19  C   UNL     1       0.311   7.434  21.033  0.00  0.00    +0.000 C 
ATOM     20  C   UNL     1       1.491   6.614  20.600  0.00  0.00    +0.000 A 
ATOM     21  C   UNL     1       1.671   5.312  21.073  0.00  0.00    +0.000 A 
ATOM     22  C   UNL     1       2.767   4.556  20.654  0.00  0.00    +0.000 A 
ATOM     23  C   UNL     1       3.694   5.094  19.761  0.00  0.00    +0.000 A 
ATOM     24  C   UNL     1       3.559   6.417  19.333  0.00  0.00    +0.000 A 
ATOM     25  C   UNL     1       2.440   7.160  19.726  0.00  0.00    +0.000 A 
ENDBRANCH  18  23
ENDBRANCH   1  18
TORSDOF 5
ENDMDL
MODEL 7
REMARK VINA RESULT:      -6.8      1.245      1.959
REMARK  Name = 
REMARK  6 active torsions:
REMARK  status: ('A' for Active; 'I' for Inactive)
REMARK    1  A    between atoms: C_1  and  C_2
REMARK    2  A    between atoms: C_5  and  O_6
REMARK    3  A    between atoms: O_6  and  C_7
REMARK    4  A    between atoms: C_8  and  C_9
REMARK    5  A    between atoms: C_13  and  N_14
REMARK    6  A    between atoms: C_18  and  N_19
REMARK                            x       y       z     vdW  Elec       q    Type
REMARK                         _______ _______ _______ _____ _____    ______ ____
ROOT
ATOM      1  C   UNL     1       5.113   5.141  17.266  0.00  0.00    +0.000 A 
ATOM      2  C   UNL     1       6.286   5.746  16.760  0.00  0.00    +0.000 A 
ATOM      3  C   UNL     1       6.761   5.387  15.477  0.00  0.00    +0.000 A 
ATOM      4  C   UNL     1       6.092   4.428  14.709  0.00  0.00    +0.000 A 
ATOM      5  C   UNL     1       4.968   3.777  15.219  0.00  0.00    +0.000 A 
ATOM      6  C   UNL     1       4.514   4.120  16.499  0.00  0.00    +0.000 A 
ENDROOT
BRANCH   2   7
ATOM      7  C   UNL     1       7.129   6.750  17.489  0.00  0.00    +0.000 C 
ATOM      8  N   UNL     1       7.721   6.403  18.665  0.00  0.00    +0.000 N 
ATOM      9  O   UNL     1       7.312   7.871  17.027  0.00  0.00    +0.000 OA
ATOM     10  H   UNL     1       7.622   5.492  19.094  0.00  0.00    +0.000 HD
ATOM     11  H   UNL     1       8.305   7.093  19.120  0.00  0.00    +0.000 HD
ENDBRANCH   2   7
BRANCH   4  12
ATOM     12  N   UNL     1       6.586   4.078  13.371  0.00  0.00    +0.000 N 
ATOM     13  O   UNL     1       6.039   3.140  12.784  0.00  0.00    +0.000 OA
ATOM     14  O   UNL     1       7.523   4.749  12.917  0.00  0.00    +0.000 OA
ENDBRANCH   4  12
BRANCH   6  15
ATOM     15  N   UNL     1       3.434   3.299  17.020  0.00  0.00    +0.000 N 
ATOM     16  O   UNL     1       3.747   2.283  17.651  0.00  0.00    +0.000 OA
ATOM     17  O   UNL     1       2.282   3.649  16.725  0.00  0.00    +0.000 OA
ENDBRANCH   6  15
BRANCH   1  18
ATOM     18  O   UNL     1       4.675   5.532  18.512  0.00  0.00    +0.000 OA
BRANCH  18  23
ATOM     19  C   UNL     1       0.611   9.413  19.323  0.00  0.00    +0.000 C 
ATOM     20  C   UNL     1       1.708   8.414  19.101  0.00  0.00    +0.000 A 
ATOM     21  C   UNL     1       1.989   7.434  20.056  0.00  0.00    +0.000 A 
ATOM     22  C   UNL     1       3.006   6.504  19.832  0.00  0.00    +0.000 A 
ATOM     23  C   UNL     1       3.751   6.544  18.654  0.00  0.00    +0.000 A 
ATOM     24  C   UNL     1       3.521   7.559  17.722  0.00  0.00    +0.000 A 
ATOM     25  C   UNL     1       2.478   8.469  17.932  0.00  0.00    +0.000 A 
ENDBRANCH  18  23
ENDBRANCH   1  18
TORSDOF 5
ENDMDL
MODEL 8
REMARK VINA RESULT:      -6.7      1.247      2.156
REMARK  Name = 
REMARK  6 active torsions:
REMARK  status: ('A' for Active; 'I' for Inactive)
REMARK    1  A    between atoms: C_1  and  C_2
REMARK    2  A    between atoms: C_5  and  O_6
REMARK    3  A    between atoms: O_6  and  C_7
REMARK    4  A    between atoms: C_8  and  C_9
REMARK    5  A    between atoms: C_13  and  N_14
REMARK    6  A    between atoms: C_18  and  N_19
REMARK                            x       y       z     vdW  Elec       q    Type
REMARK                         _______ _______ _______ _____ _____    ______ ____
ROOT
ATOM      1  C   UNL     1       5.313   5.461  17.992  0.00  0.00    +0.000 A 
ATOM      2  C   UNL     1       6.688   5.702  17.769  0.00  0.00    +0.000 A 
ATOM      3  C   UNL     1       7.236   5.491  16.483  0.00  0.00    +0.000 A 
ATOM      4  C   UNL     1       6.437   5.030  15.432  0.00  0.00    +0.000 A 
ATOM      5  C   UNL     1       5.092   4.729  15.650  0.00  0.00    +0.000 A 
ATOM      6  C   UNL     1       4.559   4.918  16.931  0.00  0.00    +0.000 A 
ENDROOT
BRANCH   2   7
ATOM      7  C   UNL     1       7.671   6.151  18.811  0.00  0.00    +0.000 C 
ATOM      8  N   UNL     1       7.868   5.389  19.921  0.00  0.00    +0.000 N 
ATOM      9  O   UNL     1       8.316   7.183  18.663  0.00  0.00    +0.000 OA
ATOM     10  H   UNL     1       7.379   4.521  20.098  0.00  0.00    +0.000 HD
ATOM     11  H   UNL     1       8.557   5.703  20.592  0.00  0.00    +0.000 HD
ENDBRANCH   2   7
BRANCH   4  12
ATOM     12  N   UNL     1       7.016   4.832  14.096  0.00  0.00    +0.000 N 
ATOM     13  O   UNL     1       6.522   3.956  13.380  0.00  0.00    +0.000 OA
ATOM     14  O   UNL     1       7.965   5.560  13.774  0.00  0.00    +0.000 OA
ENDBRANCH   4  12
BRANCH   6  15
ATOM     15  N   UNL     1       3.198   4.445  17.118  0.00  0.00    +0.000 N 
ATOM     16  O   UNL     1       2.994   3.233  16.976  0.00  0.00    +0.000 OA
ATOM     17  O   UNL     1       2.336   5.308  17.335  0.00  0.00    +0.000 OA
ENDBRANCH   6  15
BRANCH   1  18
ATOM     18  O   UNL     1       4.816   5.696  19.255  0.00  0.00    +0.000 OA
BRANCH  18  23
ATOM     19  C   UNL     1       1.310   2.243  22.089  0.00  0.00    +0.000 C 
ATOM     20  C   UNL     1       2.238   3.131  21.313  0.00  0.00    +0.000 A 
ATOM     21  C   UNL     1       1.924   4.474  21.087  0.00  0.00    +0.000 A 
ATOM     22  C   UNL     1       2.801   5.292  20.373  0.00  0.00    +0.000 A 
ATOM     23  C   UNL     1       3.999   4.777  19.878  0.00  0.00    +0.000 A 
ATOM     24  C   UNL     1       4.292   3.421  20.041  0.00  0.00    +0.000 A 
ATOM     25  C   UNL     1       3.429   2.612  20.788  0.00  0.00    +0.000 A 
ENDBRANCH  18  23
ENDBRANCH   1  18
TORSDOF 5
ENDMDL
MODEL 9
REMARK VINA RESULT:      -6.6      1.335      3.332
REMARK  Name = 
REMARK  6 active torsions:
REMARK  status: ('A' for Active; 'I' for Inactive)
REMARK    1  A    between atoms: C_1  and  C_2
REMARK    2  A    between atoms: C_5  and  O_6
REMARK    3  A    between atoms: O_6  and  C_7
REMARK    4  A    between atoms: C_8  and  C_9
REMARK    5  A    between atoms: C_13  and  N_14
REMARK    6  A    between atoms: C_18  and  N_19
REMARK                            x       y       z     vdW  Elec       q    Type
REMARK                         _______ _______ _______ _____ _____    ______ ____
ROOT
ATOM      1  C   UNL     1       5.365   4.895  17.393  0.00  0.00    +0.000 A 
ATOM      2  C   UNL     1       4.629   3.991  16.593  0.00  0.00    +0.000 A 
ATOM      3  C   UNL     1       5.054   3.722  15.271  0.00  0.00    +0.000 A 
ATOM      4  C   UNL     1       6.184   4.352  14.740  0.00  0.00    +0.000 A 
ATOM      5  C   UNL     1       6.885   5.292  15.495  0.00  0.00    +0.000 A 
ATOM      6  C   UNL     1       6.448   5.573  16.796  0.00  0.00    +0.000 A 
ENDROOT
BRANCH   2   7
ATOM      7  C   UNL     1       3.375   3.282  17.012  0.00  0.00    +0.000 C 
ATOM      8  N   UNL     1       3.448   2.259  17.907  0.00  0.00    +0.000 N 
ATOM      9  O   UNL     1       2.282   3.628  16.576  0.00  0.00    +0.000 OA
ATOM     10  H   UNL     1       4.315   1.933  18.314  0.00  0.00    +0.000 HD
ATOM     11  H   UNL     1       2.583   1.818  18.191  0.00  0.00    +0.000 HD
ENDBRANCH   2   7
BRANCH   4  12
ATOM     12  N   UNL     1       6.624   4.049  13.371  0.00  0.00    +0.000 N 
ATOM     13  O   UNL     1       7.533   4.735  12.896  0.00  0.00    +0.000 OA
ATOM     14  O   UNL     1       6.052   3.121  12.782  0.00  0.00    +0.000 OA
ENDBRANCH   4  12
BRANCH   6  15
ATOM     15  N   UNL     1       7.135   6.665  17.465  0.00  0.00    +0.000 N 
ATOM     16  O   UNL     1       7.033   7.791  16.962  0.00  0.00    +0.000 OA
ATOM     17  O   UNL     1       7.826   6.365  18.448  0.00  0.00    +0.000 OA
ENDBRANCH   6  15
BRANCH   1  18
ATOM     18  O   UNL     1       4.927   5.116  18.680  0.00  0.00    +0.000 OA
BRANCH  18  23
ATOM     19  C   UNL     1       0.897   9.025  19.529  0.00  0.00    +0.000 C 
ATOM     20  C   UNL     1       1.938   7.966  19.312  0.00  0.00    +0.000 A 
ATOM     21  C   UNL     1       2.733   7.968  18.163  0.00  0.00    +0.000 A 
ATOM     22  C   UNL     1       3.704   6.983  17.978  0.00  0.00    +0.000 A 
ATOM     23  C   UNL     1       3.890   5.987  18.937  0.00  0.00    +0.000 A 
ATOM     24  C   UNL     1       3.058   5.939  20.057  0.00  0.00    +0.000 A 
ATOM     25  C   UNL     1       2.109   6.947  20.258  0.00  0.00    +0.000 A 
ENDBRANCH  18  23
ENDBRANCH   1  18
TORSDOF 5
ENDMDL
