MODEL 1
REMARK VINA RESULT:      -7.5      0.000      0.000
REMARK  Name = 
REMARK  4 active torsions:
REMARK  status: ('A' for Active; 'I' for Inactive)
REMARK    1  A    between atoms: C_1  and  C_2
REMARK    2  A    between atoms: C_2  and  N_3
REMARK    3  A    between atoms: C_13  and  C_14
REMARK    4  A    between atoms: C_17  and  N_18
REMARK                            x       y       z     vdW  Elec       q    Type
REMARK                         _______ _______ _______ _____ _____    ______ ____
ROOT
ATOM      1  N   UNL     1       0.214  14.042  18.509  0.00  0.00    +0.000 N 
ATOM      2  C   UNL     1       0.530  12.893  19.197  0.00  0.00    +0.000 C 
ATOM      3  O   UNL     1       0.970  12.907  20.341  0.00  0.00    +0.000 OA
ATOM      4  N   UNL     1       0.356  11.767  18.422  0.00  0.00    +0.000 N 
ATOM      5  C   UNL     1       0.704  10.499  18.909  0.00  0.00    +0.000 A 
ATOM      6  C   UNL     1       0.345  10.100  20.184  0.00  0.00    +0.000 A 
ATOM      7  C   UNL     1       0.811   8.877  20.645  0.00  0.00    +0.000 A 
ATOM      8  C   UNL     1       1.628   8.104  19.846  0.00  0.00    +0.000 A 
ATOM      9  N   UNL     1       2.135   6.965  20.349  0.00  0.00    +0.000 NA
ATOM     10  C   UNL     1       2.943   6.275  19.520  0.00  0.00    +0.000 A 
ATOM     11  C   UNL     1       3.227   6.680  18.221  0.00  0.00    +0.000 A 
ATOM     12  N   UNL     1       2.702   7.838  17.734  0.00  0.00    +0.000 NA
ATOM     13  C   UNL     1       1.905   8.564  18.533  0.00  0.00    +0.000 A 
ATOM     14  N   UNL     1       1.414   9.723  18.067  0.00  0.00    +0.000 NA
ATOM     15  H   UNL     1      -0.513  13.963  17.810  0.00  0.00    +0.000 HD
ATOM     16  H   UNL     1       0.596  11.888  17.449  0.00  0.00    +0.000 HD
ENDROOT
BRANCH  11  17
ATOM     17  C   UNL     1       4.072   5.889  17.305  0.00  0.00    +0.000 A 
ATOM     18  C   UNL     1       4.094   4.483  17.352  0.00  0.00    +0.000 A 
ATOM     19  C   UNL     1       4.871   3.731  16.461  0.00  0.00    +0.000 A 
ATOM     20  C   UNL     1       5.684   4.357  15.520  0.00  0.00    +0.000 A 
ATOM     21  C   UNL     1       5.638   5.749  15.429  0.00  0.00    +0.000 A 
ATOM     22  C   UNL     1       4.860   6.504  16.319  0.00  0.00    +0.000 A 
BRANCH  20  23
ATOM     23  N   UNL     1       6.330   3.601  14.537  0.00  0.00    +0.000 N 
ATOM     24  H   UNL     1       7.232   3.233  14.822  0.00  0.00    +0.000 HD
ATOM     25  H   UNL     1       6.362   4.046  13.626  0.00  0.00    +0.000 HD
ENDBRANCH  20  23
ENDBRANCH  11  17
BRANCH   1  27
ATOM     26  C   UNL     1      -0.320  16.460  18.429  0.00  0.00    +0.000 C 
ATOM     27  C   UNL     1       0.475  15.345  19.088  0.00  0.00    +0.000 C 
ENDBRANCH   1  27
TORSDOF 3
ENDMDL
MODEL 2
REMARK VINA RESULT:      -7.4      3.310      8.624
REMARK  Name = 
REMARK  4 active torsions:
REMARK  status: ('A' for Active; 'I' for Inactive)
REMARK    1  A    between atoms: C_1  and  C_2
REMARK    2  A    between atoms: C_2  and  N_3
REMARK    3  A    between atoms: C_13  and  C_14
REMARK    4  A    between atoms: C_17  and  N_18
REMARK                            x       y       z     vdW  Elec       q    Type
REMARK                         _______ _______ _______ _____ _____    ______ ____
ROOT
ATOM      1  N   UNL     1       6.902   4.645  13.193  0.00  0.00    +0.000 N 
ATOM      2  C   UNL     1       6.337   4.451  14.432  0.00  0.00    +0.000 C 
ATOM      3  O   UNL     1       5.899   3.366  14.798  0.00  0.00    +0.000 OA
ATOM      4  N   UNL     1       6.269   5.624  15.153  0.00  0.00    +0.000 N 
ATOM      5  C   UNL     1       5.649   5.659  16.410  0.00  0.00    +0.000 A 
ATOM      6  C   UNL     1       5.901   4.684  17.359  0.00  0.00    +0.000 A 
ATOM      7  C   UNL     1       5.176   4.716  18.541  0.00  0.00    +0.000 A 
ATOM      8  C   UNL     1       4.218   5.688  18.738  0.00  0.00    +0.000 A 
ATOM      9  N   UNL     1       3.471   5.645  19.855  0.00  0.00    +0.000 NA
ATOM     10  C   UNL     1       2.540   6.614  19.967  0.00  0.00    +0.000 A 
ATOM     11  C   UNL     1       2.364   7.614  19.019  0.00  0.00    +0.000 A 
ATOM     12  N   UNL     1       3.132   7.637  17.896  0.00  0.00    +0.000 NA
ATOM     13  C   UNL     1       4.060   6.681  17.736  0.00  0.00    +0.000 A 
ATOM     14  N   UNL     1       4.796   6.682  16.614  0.00  0.00    +0.000 NA
ATOM     15  H   UNL     1       7.600   5.373  13.124  0.00  0.00    +0.000 HD
ATOM     16  H   UNL     1       6.071   6.445  14.600  0.00  0.00    +0.000 HD
ENDROOT
BRANCH  11  17
ATOM     17  C   UNL     1       1.376   8.700  19.178  0.00  0.00    +0.000 A 
ATOM     18  C   UNL     1       0.874   9.407  18.070  0.00  0.00    +0.000 A 
ATOM     19  C   UNL     1      -0.087  10.415  18.217  0.00  0.00    +0.000 A 
ATOM     20  C   UNL     1      -0.552  10.780  19.479  0.00  0.00    +0.000 A 
ATOM     21  C   UNL     1      -0.100  10.056  20.583  0.00  0.00    +0.000 A 
ATOM     22  C   UNL     1       0.862   9.046  20.438  0.00  0.00    +0.000 A 
BRANCH  20  23
ATOM     23  N   UNL     1      -1.621  11.672  19.601  0.00  0.00    +0.000 N 
ATOM     24  H   UNL     1      -1.803  12.220  18.767  0.00  0.00    +0.000 HD
ATOM     25  H   UNL     1      -1.592  12.240  20.441  0.00  0.00    +0.000 HD
ENDBRANCH  20  23
ENDBRANCH  11  17
BRANCH   1  27
ATOM     26  C   UNL     1       5.534   3.124  11.795  0.00  0.00    +0.000 C 
ATOM     27  C   UNL     1       6.924   3.573  12.217  0.00  0.00    +0.000 C 
ENDBRANCH   1  27
TORSDOF 3
ENDMDL
MODEL 3
REMARK VINA RESULT:      -7.4      2.915      3.674
REMARK  Name = 
REMARK  4 active torsions:
REMARK  status: ('A' for Active; 'I' for Inactive)
REMARK    1  A    between atoms: C_1  and  C_2
REMARK    2  A    between atoms: C_2  and  N_3
REMARK    3  A    between atoms: C_13  and  C_14
REMARK    4  A    between atoms: C_17  and  N_18
REMARK                            x       y       z     vdW  Elec       q    Type
REMARK                         _______ _______ _______ _____ _____    ______ ____
ROOT
ATOM      1  N   UNL     1      -1.980  11.758  23.319  0.00  0.00    +0.000 N 
ATOM      2  C   UNL     1      -1.405  11.582  22.081  0.00  0.00    +0.000 C 
ATOM      3  O   UNL     1      -1.952  11.933  21.041  0.00  0.00    +0.000 OA
ATOM      4  N   UNL     1      -0.202  10.916  22.165  0.00  0.00    +0.000 N 
ATOM      5  C   UNL     1       0.505  10.562  21.007  0.00  0.00    +0.000 A 
ATOM      6  C   UNL     1       0.681  11.465  19.973  0.00  0.00    +0.000 A 
ATOM      7  C   UNL     1       1.296  11.021  18.811  0.00  0.00    +0.000 A 
ATOM      8  C   UNL     1       1.695   9.705  18.701  0.00  0.00    +0.000 A 
ATOM      9  N   UNL     1       2.209   9.280  17.534  0.00  0.00    +0.000 NA
ATOM     10  C   UNL     1       2.554   7.978  17.493  0.00  0.00    +0.000 A 
ATOM     11  C   UNL     1       2.420   7.119  18.577  0.00  0.00    +0.000 A 
ATOM     12  N   UNL     1       1.895   7.573  19.749  0.00  0.00    +0.000 NA
ATOM     13  C   UNL     1       1.524   8.859  19.828  0.00  0.00    +0.000 A 
ATOM     14  N   UNL     1       0.975   9.300  20.971  0.00  0.00    +0.000 NA
ATOM     15  H   UNL     1      -1.346  11.865  24.099  0.00  0.00    +0.000 HD
ATOM     16  H   UNL     1      -0.169  10.198  22.873  0.00  0.00    +0.000 HD
ENDROOT
BRANCH  11  17
ATOM     17  C   UNL     1       2.850   5.707  18.536  0.00  0.00    +0.000 A 
ATOM     18  C   UNL     1       4.001   5.268  19.216  0.00  0.00    +0.000 A 
ATOM     19  C   UNL     1       4.390   3.922  19.204  0.00  0.00    +0.000 A 
ATOM     20  C   UNL     1       3.668   2.976  18.480  0.00  0.00    +0.000 A 
ATOM     21  C   UNL     1       2.499   3.388  17.840  0.00  0.00    +0.000 A 
ATOM     22  C   UNL     1       2.105   4.734  17.851  0.00  0.00    +0.000 A 
BRANCH  20  23
ATOM     23  N   UNL     1       3.973   1.617  18.603  0.00  0.00    +0.000 N 
ATOM     24  H   UNL     1       4.477   1.379  19.451  0.00  0.00    +0.000 HD
ATOM     25  H   UNL     1       4.393   1.210  17.774  0.00  0.00    +0.000 HD
ENDBRANCH  20  23
ENDBRANCH  11  17
BRANCH   1  27
ATOM     26  C   UNL     1      -3.365  13.620  24.185  0.00  0.00    +0.000 C 
ATOM     27  C   UNL     1      -3.321  12.296  23.440  0.00  0.00    +0.000 C 
ENDBRANCH   1  27
TORSDOF 3
ENDMDL
MODEL 4
REMARK VINA RESULT:      -7.3      3.053      3.918
REMARK  Name = 
REMARK  4 active torsions:
REMARK  status: ('A' for Active; 'I' for Inactive)
REMARK    1  A    between atoms: C_1  and  C_2
REMARK    2  A    between atoms: C_2  and  N_3
REMARK    3  A    between atoms: C_13  and  C_14
REMARK    4  A    between atoms: C_17  and  N_18
REMARK                            x       y       z     vdW  Elec       q    Type
REMARK                         _______ _______ _______ _____ _____    ______ ____
ROOT
ATOM      1  N   UNL     1      -2.439  12.359  23.306  0.00  0.00    +0.000 N 
ATOM      2  C   UNL     1      -1.880  12.117  22.072  0.00  0.00    +0.000 C 
ATOM      3  O   UNL     1      -2.480  12.317  21.022  0.00  0.00    +0.000 OA
ATOM      4  N   UNL     1      -0.620  11.570  22.180  0.00  0.00    +0.000 N 
ATOM      5  C   UNL     1       0.089  11.169  21.038  0.00  0.00    +0.000 A 
ATOM      6  C   UNL     1       0.159  11.981  19.919  0.00  0.00    +0.000 A 
ATOM      7  C   UNL     1       0.784  11.483  18.786  0.00  0.00    +0.000 A 
ATOM      8  C   UNL     1       1.297  10.203  18.786  0.00  0.00    +0.000 A 
ATOM      9  N   UNL     1       1.821   9.714  17.648  0.00  0.00    +0.000 NA
ATOM     10  C   UNL     1       2.280   8.449  17.718  0.00  0.00    +0.000 A 
ATOM     11  C   UNL     1       2.249   7.690  18.882  0.00  0.00    +0.000 A 
ATOM     12  N   UNL     1       1.713   8.206  20.022  0.00  0.00    +0.000 NA
ATOM     13  C   UNL     1       1.229   9.457  19.992  0.00  0.00    +0.000 A 
ATOM     14  N   UNL     1       0.670   9.956  21.105  0.00  0.00    +0.000 NA
ATOM     15  H   UNL     1      -1.800  12.596  24.053  0.00  0.00    +0.000 HD
ATOM     16  H   UNL     1      -0.506  10.928  22.951  0.00  0.00    +0.000 HD
ENDROOT
BRANCH  11  17
ATOM     17  C   UNL     1       2.803   6.324  18.959  0.00  0.00    +0.000 A 
ATOM     18  C   UNL     1       2.475   5.455  20.016  0.00  0.00    +0.000 A 
ATOM     19  C   UNL     1       2.974   4.148  20.073  0.00  0.00    +0.000 A 
ATOM     20  C   UNL     1       3.850   3.675  19.099  0.00  0.00    +0.000 A 
ATOM     21  C   UNL     1       4.147   4.507  18.020  0.00  0.00    +0.000 A 
ATOM     22  C   UNL     1       3.648   5.817  17.959  0.00  0.00    +0.000 A 
BRANCH  20  23
ATOM     23  N   UNL     1       4.215   2.325  19.079  0.00  0.00    +0.000 N 
ATOM     24  H   UNL     1       4.937   2.080  19.748  0.00  0.00    +0.000 HD
ATOM     25  H   UNL     1       4.404   1.961  18.152  0.00  0.00    +0.000 HD
ENDBRANCH  20  23
ENDBRANCH  11  17
BRANCH   1  27
ATOM     26  C   UNL     1      -4.438  12.455  24.767  0.00  0.00    +0.000 C 
ATOM     27  C   UNL     1      -3.820  12.787  23.419  0.00  0.00    +0.000 C 
ENDBRANCH   1  27
TORSDOF 3
ENDMDL
MODEL 5
REMARK VINA RESULT:      -7.3      2.868      3.586
REMARK  Name = 
REMARK  4 active torsions:
REMARK  status: ('A' for Active; 'I' for Inactive)
REMARK    1  A    between atoms: C_1  and  C_2
REMARK    2  A    between atoms: C_2  and  N_3
REMARK    3  A    between atoms: C_13  and  C_14
REMARK    4  A    between atoms: C_17  and  N_18
REMARK                            x       y       z     vdW  Elec       q    Type
REMARK                         _______ _______ _______ _____ _____    ______ ____
ROOT
ATOM      1  N   UNL     1      -1.976  11.743  23.348  0.00  0.00    +0.000 N 
ATOM      2  C   UNL     1      -1.394  11.582  22.112  0.00  0.00    +0.000 C 
ATOM      3  O   UNL     1      -1.925  11.964  21.075  0.00  0.00    +0.000 OA
ATOM      4  N   UNL     1      -0.204  10.892  22.191  0.00  0.00    +0.000 N 
ATOM      5  C   UNL     1       0.506  10.549  21.032  0.00  0.00    +0.000 A 
ATOM      6  C   UNL     1       0.708  11.469  20.018  0.00  0.00    +0.000 A 
ATOM      7  C   UNL     1       1.324  11.038  18.853  0.00  0.00    +0.000 A 
ATOM      8  C   UNL     1       1.700   9.718  18.718  0.00  0.00    +0.000 A 
ATOM      9  N   UNL     1       2.216   9.307  17.547  0.00  0.00    +0.000 NA
ATOM     10  C   UNL     1       2.538   8.000  17.482  0.00  0.00    +0.000 A 
ATOM     11  C   UNL     1       2.379   7.122  18.547  0.00  0.00    +0.000 A 
ATOM     12  N   UNL     1       1.852   7.561  19.724  0.00  0.00    +0.000 NA
ATOM     13  C   UNL     1       1.503   8.852  19.826  0.00  0.00    +0.000 A 
ATOM     14  N   UNL     1       0.954   9.280  20.973  0.00  0.00    +0.000 NA
ATOM     15  H   UNL     1      -1.347  11.822  24.136  0.00  0.00    +0.000 HD
ATOM     16  H   UNL     1      -0.190  10.159  22.885  0.00  0.00    +0.000 HD
ENDROOT
BRANCH  11  17
ATOM     17  C   UNL     1       2.782   5.704  18.480  0.00  0.00    +0.000 A 
ATOM     18  C   UNL     1       1.958   4.731  17.886  0.00  0.00    +0.000 A 
ATOM     19  C   UNL     1       2.354   3.391  17.794  0.00  0.00    +0.000 A 
ATOM     20  C   UNL     1       3.569   2.967  18.327  0.00  0.00    +0.000 A 
ATOM     21  C   UNL     1       4.418   3.927  18.877  0.00  0.00    +0.000 A 
ATOM     22  C   UNL     1       4.025   5.271  18.970  0.00  0.00    +0.000 A 
BRANCH  20  23
ATOM     23  N   UNL     1       4.024   1.666  18.090  0.00  0.00    +0.000 N 
ATOM     24  H   UNL     1       3.360   1.077  17.599  0.00  0.00    +0.000 HD
ATOM     25  H   UNL     1       4.418   1.211  18.906  0.00  0.00    +0.000 HD
ENDBRANCH  20  23
ENDBRANCH  11  17
BRANCH   1  27
ATOM     26  C   UNL     1      -3.304  13.748  23.942  0.00  0.00    +0.000 C 
ATOM     27  C   UNL     1      -3.307  12.303  23.470  0.00  0.00    +0.000 C 
ENDBRANCH   1  27
TORSDOF 3
ENDMDL
MODEL 6
REMARK VINA RESULT:      -7.3      2.359      2.581
REMARK  Name = 
REMARK  4 active torsions:
REMARK  status: ('A' for Active; 'I' for Inactive)
REMARK    1  A    between atoms: C_1  and  C_2
REMARK    2  A    between atoms: C_2  and  N_3
REMARK    3  A    between atoms: C_13  and  C_14
REMARK    4  A    between atoms: C_17  and  N_18
REMARK                            x       y       z     vdW  Elec       q    Type
REMARK                         _______ _______ _______ _____ _____    ______ ____
ROOT
ATOM      1  N   UNL     1       3.033  14.246  17.348  0.00  0.00    +0.000 N 
ATOM      2  C   UNL     1       2.607  13.371  18.321  0.00  0.00    +0.000 C 
ATOM      3  O   UNL     1       2.755  13.588  19.518  0.00  0.00    +0.000 OA
ATOM      4  N   UNL     1       2.072  12.223  17.778  0.00  0.00    +0.000 N 
ATOM      5  C   UNL     1       1.657  11.165  18.600  0.00  0.00    +0.000 A 
ATOM      6  C   UNL     1       0.898  11.397  19.733  0.00  0.00    +0.000 A 
ATOM      7  C   UNL     1       0.610  10.322  20.561  0.00  0.00    +0.000 A 
ATOM      8  C   UNL     1       1.095   9.067  20.258  0.00  0.00    +0.000 A 
ATOM      9  N   UNL     1       0.874   8.060  21.121  0.00  0.00    +0.000 NA
ATOM     10  C   UNL     1       1.397   6.870  20.769  0.00  0.00    +0.000 A 
ATOM     11  C   UNL     1       2.099   6.665  19.587  0.00  0.00    +0.000 A 
ATOM     12  N   UNL     1       2.311   7.700  18.729  0.00  0.00    +0.000 NA
ATOM     13  C   UNL     1       1.821   8.907  19.049  0.00  0.00    +0.000 A 
ATOM     14  N   UNL     1       2.057   9.936  18.220  0.00  0.00    +0.000 NA
ATOM     15  H   UNL     1       2.519  14.238  16.478  0.00  0.00    +0.000 HD
ATOM     16  H   UNL     1       2.533  11.903  16.939  0.00  0.00    +0.000 HD
ENDROOT
BRANCH  11  17
ATOM     17  C   UNL     1       2.623   5.344  19.188  0.00  0.00    +0.000 A 
ATOM     18  C   UNL     1       1.803   4.382  18.570  0.00  0.00    +0.000 A 
ATOM     19  C   UNL     1       2.307   3.141  18.162  0.00  0.00    +0.000 A 
ATOM     20  C   UNL     1       3.638   2.800  18.393  0.00  0.00    +0.000 A 
ATOM     21  C   UNL     1       4.475   3.760  18.962  0.00  0.00    +0.000 A 
ATOM     22  C   UNL     1       3.973   5.005  19.370  0.00  0.00    +0.000 A 
BRANCH  20  23
ATOM     23  N   UNL     1       4.168   1.629  17.843  0.00  0.00    +0.000 N 
ATOM     24  H   UNL     1       5.161   1.676  17.643  0.00  0.00    +0.000 HD
ATOM     25  H   UNL     1       3.632   1.258  17.065  0.00  0.00    +0.000 HD
ENDBRANCH  20  23
ENDBRANCH  11  17
BRANCH   1  27
ATOM     26  C   UNL     1       2.897  16.690  17.730  0.00  0.00    +0.000 C 
ATOM     27  C   UNL     1       3.767  15.444  17.705  0.00  0.00    +0.000 C 
ENDBRANCH   1  27
TORSDOF 3
ENDMDL
MODEL 7
REMARK VINA RESULT:      -7.3      1.031      1.115
REMARK  Name = 
REMARK  4 active torsions:
REMARK  status: ('A' for Active; 'I' for Inactive)
REMARK    1  A    between atoms: C_1  and  C_2
REMARK    2  A    between atoms: C_2  and  N_3
REMARK    3  A    between atoms: C_13  and  C_14
REMARK    4  A    between atoms: C_17  and  N_18
REMARK                            x       y       z     vdW  Elec       q    Type
REMARK                         _______ _______ _______ _____ _____    ______ ____
ROOT
ATOM      1  N   UNL     1       0.375  13.167  19.675  0.00  0.00    +0.000 N 
ATOM      2  C   UNL     1       0.794  11.950  20.161  0.00  0.00    +0.000 C 
ATOM      3  O   UNL     1       1.333  11.824  21.255  0.00  0.00    +0.000 OA
ATOM      4  N   UNL     1       0.595  10.937  19.248  0.00  0.00    +0.000 N 
ATOM      5  C   UNL     1       1.033   9.632  19.516  0.00  0.00    +0.000 A 
ATOM      6  C   UNL     1       0.802   9.040  20.745  0.00  0.00    +0.000 A 
ATOM      7  C   UNL     1       1.353   7.789  20.984  0.00  0.00    +0.000 A 
ATOM      8  C   UNL     1       2.125   7.178  20.018  0.00  0.00    +0.000 A 
ATOM      9  N   UNL     1       2.717   6.006  20.307  0.00  0.00    +0.000 NA
ATOM     10  C   UNL     1       3.474   5.482  19.324  0.00  0.00    +0.000 A 
ATOM     11  C   UNL     1       3.626   6.079  18.078  0.00  0.00    +0.000 A 
ATOM     12  N   UNL     1       3.018   7.267  17.809  0.00  0.00    +0.000 NA
ATOM     13  C   UNL     1       2.268   7.832  18.767  0.00  0.00    +0.000 A 
ATOM     14  N   UNL     1       1.693   9.019  18.515  0.00  0.00    +0.000 NA
ATOM     15  H   UNL     1      -0.406  13.152  19.033  0.00  0.00    +0.000 HD
ATOM     16  H   UNL     1       0.743  11.205  18.286  0.00  0.00    +0.000 HD
ENDROOT
BRANCH  11  17
ATOM     17  C   UNL     1       4.417   5.468  16.991  0.00  0.00    +0.000 A 
ATOM     18  C   UNL     1       4.585   4.075  16.896  0.00  0.00    +0.000 A 
ATOM     19  C   UNL     1       5.308   3.493  15.847  0.00  0.00    +0.000 A 
ATOM     20  C   UNL     1       5.922   4.284  14.878  0.00  0.00    +0.000 A 
ATOM     21  C   UNL     1       5.725   5.664  14.932  0.00  0.00    +0.000 A 
ATOM     22  C   UNL     1       5.001   6.249  15.981  0.00  0.00    +0.000 A 
BRANCH  20  23
ATOM     23  N   UNL     1       6.503   3.690  13.754  0.00  0.00    +0.000 N 
ATOM     24  H   UNL     1       7.427   3.304  13.918  0.00  0.00    +0.000 HD
ATOM     25  H   UNL     1       6.465   4.263  12.917  0.00  0.00    +0.000 HD
ENDBRANCH  20  23
ENDBRANCH  11  17
BRANCH   1  27
ATOM     26  C   UNL     1       1.270  15.474  19.560  0.00  0.00    +0.000 C 
ATOM     27  C   UNL     1       0.638  14.387  20.413  0.00  0.00    +0.000 C 
ENDBRANCH   1  27
TORSDOF 3
ENDMDL
MODEL 8
REMARK VINA RESULT:      -7.3      3.330      8.603
REMARK  Name = 
REMARK  4 active torsions:
REMARK  status: ('A' for Active; 'I' for Inactive)
REMARK    1  A    between atoms: C_1  and  C_2
REMARK    2  A    between atoms: C_2  and  N_3
REMARK    3  A    between atoms: C_13  and  C_14
REMARK    4  A    between atoms: C_17  and  N_18
REMARK                            x       y       z     vdW  Elec       q    Type
REMARK                         _______ _______ _______ _____ _____    ______ ____
ROOT
ATOM      1  N   UNL     1       6.711   4.552  13.093  0.00  0.00    +0.000 N 
ATOM      2  C   UNL     1       6.203   4.370  14.359  0.00  0.00    +0.000 C 
ATOM      3  O   UNL     1       5.810   3.282  14.764  0.00  0.00    +0.000 OA
ATOM      4  N   UNL     1       6.135   5.555  15.058  0.00  0.00    +0.000 N 
ATOM      5  C   UNL     1       5.566   5.601  16.339  0.00  0.00    +0.000 A 
ATOM      6  C   UNL     1       5.883   4.653  17.296  0.00  0.00    +0.000 A 
ATOM      7  C   UNL     1       5.207   4.691  18.507  0.00  0.00    +0.000 A 
ATOM      8  C   UNL     1       4.233   5.642  18.724  0.00  0.00    +0.000 A 
ATOM      9  N   UNL     1       3.534   5.604  19.872  0.00  0.00    +0.000 NA
ATOM     10  C   UNL     1       2.584   6.550  20.004  0.00  0.00    +0.000 A 
ATOM     11  C   UNL     1       2.342   7.525  19.045  0.00  0.00    +0.000 A 
ATOM     12  N   UNL     1       3.062   7.544  17.889  0.00  0.00    +0.000 NA
ATOM     13  C   UNL     1       4.007   6.609  17.710  0.00  0.00    +0.000 A 
ATOM     14  N   UNL     1       4.696   6.605  16.558  0.00  0.00    +0.000 NA
ATOM     15  H   UNL     1       7.386   5.296  12.980  0.00  0.00    +0.000 HD
ATOM     16  H   UNL     1       5.892   6.359  14.498  0.00  0.00    +0.000 HD
ENDROOT
BRANCH  11  17
ATOM     17  C   UNL     1       1.333   8.588  19.223  0.00  0.00    +0.000 A 
ATOM     18  C   UNL     1       0.818   8.909  20.493  0.00  0.00    +0.000 A 
ATOM     19  C   UNL     1      -0.115   9.939  20.667  0.00  0.00    +0.000 A 
ATOM     20  C   UNL     1      -0.598  10.657  19.576  0.00  0.00    +0.000 A 
ATOM     21  C   UNL     1      -0.063  10.383  18.317  0.00  0.00    +0.000 A 
ATOM     22  C   UNL     1       0.873   9.353  18.139  0.00  0.00    +0.000 A 
BRANCH  20  23
ATOM     23  N   UNL     1      -1.404  11.782  19.777  0.00  0.00    +0.000 N 
ATOM     24  H   UNL     1      -1.283  12.224  20.683  0.00  0.00    +0.000 HD
ATOM     25  H   UNL     1      -2.381  11.638  19.543  0.00  0.00    +0.000 HD
ENDBRANCH  20  23
ENDBRANCH  11  17
BRANCH   1  27
ATOM     26  C   UNL     1       5.328   3.051  11.688  0.00  0.00    +0.000 C 
ATOM     27  C   UNL     1       6.721   3.461  12.138  0.00  0.00    +0.000 C 
ENDBRANCH   1  27
TORSDOF 3
ENDMDL
MODEL 9
REMARK VINA RESULT:      -7.3      0.450      1.124
REMARK  Name = 
REMARK  4 active torsions:
REMARK  status: ('A' for Active; 'I' for Inactive)
REMARK    1  A    between atoms: C_1  and  C_2
REMARK    2  A    between atoms: C_2  and  N_3
REMARK    3  A    between atoms: C_13  and  C_14
REMARK    4  A    between atoms: C_17  and  N_18
REMARK                            x       y       z     vdW  Elec       q    Type
REMARK                         _______ _______ _______ _____ _____    ______ ____
ROOT
ATOM      1  N   UNL     1      -0.245  14.114  18.460  0.00  0.00    +0.000 N 
ATOM      2  C   UNL     1       0.117  12.999  19.180  0.00  0.00    +0.000 C 
ATOM      3  O   UNL     1       0.587  13.065  20.310  0.00  0.00    +0.000 OA
ATOM      4  N   UNL     1      -0.049  11.842  18.450  0.00  0.00    +0.000 N 
ATOM      5  C   UNL     1       0.344  10.601  18.972  0.00  0.00    +0.000 A 
ATOM      6  C   UNL     1       0.028  10.240  20.270  0.00  0.00    +0.000 A 
ATOM      7  C   UNL     1       0.536   9.046  20.761  0.00  0.00    +0.000 A 
ATOM      8  C   UNL     1       1.351   8.265  19.970  0.00  0.00    +0.000 A 
ATOM      9  N   UNL     1       1.900   7.157  20.499  0.00  0.00    +0.000 NA
ATOM     10  C   UNL     1       2.702   6.457  19.673  0.00  0.00    +0.000 A 
ATOM     11  C   UNL     1       2.942   6.821  18.354  0.00  0.00    +0.000 A 
ATOM     12  N   UNL     1       2.377   7.948  17.840  0.00  0.00    +0.000 NA
ATOM     13  C   UNL     1       1.583   8.683  18.633  0.00  0.00    +0.000 A 
ATOM     14  N   UNL     1       1.050   9.812  18.140  0.00  0.00    +0.000 NA
ATOM     15  H   UNL     1      -0.987  13.993  17.784  0.00  0.00    +0.000 HD
ATOM     16  H   UNL     1       0.163  11.932  17.467  0.00  0.00    +0.000 HD
ENDROOT
BRANCH  11  17
ATOM     17  C   UNL     1       3.783   6.018  17.444  0.00  0.00    +0.000 A 
ATOM     18  C   UNL     1       4.715   6.621  16.579  0.00  0.00    +0.000 A 
ATOM     19  C   UNL     1       5.536   5.857  15.739  0.00  0.00    +0.000 A 
ATOM     20  C   UNL     1       5.427   4.469  15.703  0.00  0.00    +0.000 A 
ATOM     21  C   UNL     1       4.541   3.854  16.588  0.00  0.00    +0.000 A 
ATOM     22  C   UNL     1       3.718   4.616  17.431  0.00  0.00    +0.000 A 
BRANCH  20  23
ATOM     23  N   UNL     1       6.355   3.711  14.982  0.00  0.00    +0.000 N 
ATOM     24  H   UNL     1       6.238   3.760  13.975  0.00  0.00    +0.000 HD
ATOM     25  H   UNL     1       6.460   2.759  15.316  0.00  0.00    +0.000 HD
ENDBRANCH  20  23
ENDBRANCH  11  17
BRANCH   1  27
ATOM     26  C   UNL     1       1.368  15.988  18.613  0.00  0.00    +0.000 C 
ATOM     27  C   UNL     1      -0.002  15.443  18.985  0.00  0.00    +0.000 C 
ENDBRANCH   1  27
TORSDOF 3
ENDMDL
