MODEL 1
REMARK VINA RESULT:      -8.5      0.000      0.000
REMARK  Name = 
REMARK  6 active torsions:
REMARK  status: ('A' for Active; 'I' for Inactive)
REMARK    1  A    between atoms: C_1  and  N_2
REMARK    2  A    between atoms: N_2  and  C_3
REMARK    3  A    between atoms: N_2  and  S_10
REMARK    4  A    between atoms: C_3  and  C_4
REMARK    5  A    between atoms: S_10  and  C_13
REMARK    6  A    between atoms: C_18  and  O_19
REMARK                            x       y       z     vdW  Elec       q    Type
REMARK                         _______ _______ _______ _____ _____    ______ ____
ROOT
ATOM      1  S   UNL     1       3.061   2.946  18.955  0.00  0.00    +0.000 S 
ATOM      2  O   UNL     1       3.631   2.330  20.137  0.00  0.00    +0.000 OA
ATOM      3  O   UNL     1       2.409   2.158  17.936  0.00  0.00    +0.000 OA
ENDROOT
BRANCH   1   4
ATOM      4  C   UNL     1       4.372   3.857  18.176  0.00  0.00    +0.000 A 
ATOM      5  C   UNL     1       4.237   4.240  16.832  0.00  0.00    +0.000 A 
ATOM      6  C   UNL     1       5.083   5.227  16.318  0.00  0.00    +0.000 A 
ATOM      7  C   UNL     1       6.059   5.828  17.103  0.00  0.00    +0.000 A 
ATOM      8  N   UNL     1       6.687   6.935  16.677  0.00  0.00    +0.000 NA
ATOM      9  C   UNL     1       7.642   7.441  17.473  0.00  0.00    +0.000 A 
ATOM     10  C   UNL     1       8.105   6.866  18.634  0.00  0.00    +0.000 A 
ATOM     11  C   UNL     1       7.401   5.776  19.112  0.00  0.00    +0.000 A 
ATOM     12  C   UNL     1       6.307   5.292  18.386  0.00  0.00    +0.000 A 
ATOM     13  C   UNL     1       5.425   4.351  18.937  0.00  0.00    +0.000 A 
BRANCH   9  14
ATOM     14  O   UNL     1       7.910   8.770  17.302  0.00  0.00    +0.000 OA
ATOM     15  H   UNL     1       7.915   9.070  18.230  0.00  0.00    +0.000 HD
ENDBRANCH   9  14
ENDBRANCH   1   4
BRANCH   1  17
ATOM     16  C   UNL     1       0.810   3.678  20.192  0.00  0.00    +0.000 C 
ATOM     17  N   UNL     1       1.993   4.177  19.456  0.00  0.00    +0.000 NA
BRANCH  17  18
ATOM     18  C   UNL     1       2.688   5.303  20.144  0.00  0.00    +0.000 C 
BRANCH  18  19
ATOM     19  C   UNL     1       2.268   6.662  19.630  0.00  0.00    +0.000 A 
ATOM     20  C   UNL     1       2.518   7.031  18.301  0.00  0.00    +0.000 A 
ATOM     21  C   UNL     1       2.169   8.301  17.847  0.00  0.00    +0.000 A 
ATOM     22  C   UNL     1       1.566   9.212  18.712  0.00  0.00    +0.000 A 
ATOM     23  C   UNL     1       1.300   8.851  20.032  0.00  0.00    +0.000 A 
ATOM     24  C   UNL     1       1.644   7.580  20.488  0.00  0.00    +0.000 A 
ENDBRANCH  18  19
ENDBRANCH  17  18
ENDBRANCH   1  17
TORSDOF 5
ENDMDL
MODEL 2
REMARK VINA RESULT:      -8.4      0.408      1.086
REMARK  Name = 
REMARK  6 active torsions:
REMARK  status: ('A' for Active; 'I' for Inactive)
REMARK    1  A    between atoms: C_1  and  N_2
REMARK    2  A    between atoms: N_2  and  C_3
REMARK    3  A    between atoms: N_2  and  S_10
REMARK    4  A    between atoms: C_3  and  C_4
REMARK    5  A    between atoms: S_10  and  C_13
REMARK    6  A    between atoms: C_18  and  O_19
REMARK                            x       y       z     vdW  Elec       q    Type
REMARK                         _______ _______ _______ _____ _____    ______ ____
ROOT
ATOM      1  S   UNL     1       3.394   2.847  18.552  0.00  0.00    +0.000 S 
ATOM      2  O   UNL     1       3.994   2.210  19.708  0.00  0.00    +0.000 OA
ATOM      3  O   UNL     1       2.836   2.070  17.471  0.00  0.00    +0.000 OA
ENDROOT
BRANCH   1   4
ATOM      4  C   UNL     1       4.635   3.917  17.863  0.00  0.00    +0.000 A 
ATOM      5  C   UNL     1       4.445   4.448  16.577  0.00  0.00    +0.000 A 
ATOM      6  C   UNL     1       5.222   5.536  16.169  0.00  0.00    +0.000 A 
ATOM      7  C   UNL     1       6.184   6.094  17.003  0.00  0.00    +0.000 A 
ATOM      8  N   UNL     1       6.740   7.278  16.700  0.00  0.00    +0.000 NA
ATOM      9  C   UNL     1       7.685   7.739  17.533  0.00  0.00    +0.000 A 
ATOM     10  C   UNL     1       8.208   7.058  18.608  0.00  0.00    +0.000 A 
ATOM     11  C   UNL     1       7.577   5.881  18.966  0.00  0.00    +0.000 A 
ATOM     12  C   UNL     1       6.493   5.425  18.207  0.00  0.00    +0.000 A 
ATOM     13  C   UNL     1       5.677   4.377  18.658  0.00  0.00    +0.000 A 
BRANCH   9  14
ATOM     14  O   UNL     1       7.876   9.092  17.518  0.00  0.00    +0.000 OA
ATOM     15  H   UNL     1       7.286   9.346  16.784  0.00  0.00    +0.000 HD
ENDBRANCH   9  14
ENDBRANCH   1   4
BRANCH   1  17
ATOM     16  C   UNL     1       0.972   3.296  19.581  0.00  0.00    +0.000 C 
ATOM     17  N   UNL     1       2.211   3.945  19.100  0.00  0.00    +0.000 NA
BRANCH  17  18
ATOM     18  C   UNL     1       2.756   4.960  20.047  0.00  0.00    +0.000 C 
BRANCH  18  19
ATOM     19  C   UNL     1       2.391   6.378  19.672  0.00  0.00    +0.000 A 
ATOM     20  C   UNL     1       1.827   7.245  20.619  0.00  0.00    +0.000 A 
ATOM     21  C   UNL     1       1.451   8.536  20.255  0.00  0.00    +0.000 A 
ATOM     22  C   UNL     1       1.635   8.975  18.945  0.00  0.00    +0.000 A 
ATOM     23  C   UNL     1       2.207   8.127  17.998  0.00  0.00    +0.000 A 
ATOM     24  C   UNL     1       2.588   6.836  18.361  0.00  0.00    +0.000 A 
ENDBRANCH  18  19
ENDBRANCH  17  18
ENDBRANCH   1  17
TORSDOF 5
ENDMDL
MODEL 3
REMARK VINA RESULT:      -7.7      1.716      2.480
REMARK  Name = 
REMARK  6 active torsions:
REMARK  status: ('A' for Active; 'I' for Inactive)
REMARK    1  A    between atoms: C_1  and  N_2
REMARK    2  A    between atoms: N_2  and  C_3
REMARK    3  A    between atoms: N_2  and  S_10
REMARK    4  A    between atoms: C_3  and  C_4
REMARK    5  A    between atoms: S_10  and  C_13
REMARK    6  A    between atoms: C_18  and  O_19
REMARK                            x       y       z     vdW  Elec       q    Type
REMARK                         _______ _______ _______ _____ _____    ______ ____
ROOT
ATOM      1  S   UNL     1       3.942   2.671  19.137  0.00  0.00    +0.000 S 
ATOM      2  O   UNL     1       4.714   2.637  20.362  0.00  0.00    +0.000 OA
ATOM      3  O   UNL     1       3.676   1.469  18.382  0.00  0.00    +0.000 OA
ENDROOT
BRANCH   1   4
ATOM      4  C   UNL     1       4.761   3.818  18.054  0.00  0.00    +0.000 A 
ATOM      5  C   UNL     1       5.681   4.733  18.593  0.00  0.00    +0.000 A 
ATOM      6  C   UNL     1       6.567   5.391  17.735  0.00  0.00    +0.000 A 
ATOM      7  C   UNL     1       6.548   5.169  16.363  0.00  0.00    +0.000 A 
ATOM      8  N   UNL     1       7.554   5.610  15.591  0.00  0.00    +0.000 NA
ATOM      9  C   UNL     1       7.453   5.389  14.271  0.00  0.00    +0.000 A 
ATOM     10  C   UNL     1       6.363   4.847  13.630  0.00  0.00    +0.000 A 
ATOM     11  C   UNL     1       5.369   4.319  14.433  0.00  0.00    +0.000 A 
ATOM     12  C   UNL     1       5.492   4.401  15.825  0.00  0.00    +0.000 A 
ATOM     13  C   UNL     1       4.641   3.683  16.677  0.00  0.00    +0.000 A 
BRANCH   9  14
ATOM     14  O   UNL     1       8.633   5.375  13.583  0.00  0.00    +0.000 OA
ATOM     15  H   UNL     1       9.262   5.217  14.312  0.00  0.00    +0.000 HD
ENDBRANCH   9  14
ENDBRANCH   1   4
BRANCH   1  17
ATOM     16  C   UNL     1       1.339   2.518  19.711  0.00  0.00    +0.000 C 
ATOM     17  N   UNL     1       2.460   3.450  19.459  0.00  0.00    +0.000 NA
BRANCH  17  18
ATOM     18  C   UNL     1       2.581   4.525  20.485  0.00  0.00    +0.000 C 
BRANCH  18  19
ATOM     19  C   UNL     1       2.284   5.903  19.939  0.00  0.00    +0.000 A 
ATOM     20  C   UNL     1       2.528   6.205  18.591  0.00  0.00    +0.000 A 
ATOM     21  C   UNL     1       2.294   7.489  18.106  0.00  0.00    +0.000 A 
ATOM     22  C   UNL     1       1.814   8.483  18.957  0.00  0.00    +0.000 A 
ATOM     23  C   UNL     1       1.555   8.191  20.295  0.00  0.00    +0.000 A 
ATOM     24  C   UNL     1       1.784   6.906  20.783  0.00  0.00    +0.000 A 
ENDBRANCH  18  19
ENDBRANCH  17  18
ENDBRANCH   1  17
TORSDOF 5
ENDMDL
MODEL 4
REMARK VINA RESULT:      -7.7      2.815      5.668
REMARK  Name = 
REMARK  6 active torsions:
REMARK  status: ('A' for Active; 'I' for Inactive)
REMARK    1  A    between atoms: C_1  and  N_2
REMARK    2  A    between atoms: N_2  and  C_3
REMARK    3  A    between atoms: N_2  and  S_10
REMARK    4  A    between atoms: C_3  and  C_4
REMARK    5  A    between atoms: S_10  and  C_13
REMARK    6  A    between atoms: C_18  and  O_19
REMARK                            x       y       z     vdW  Elec       q    Type
REMARK                         _______ _______ _______ _____ _____    ______ ____
ROOT
ATOM      1  S   UNL     1       4.869   5.721  18.114  0.00  0.00    +0.000 S 
ATOM      2  O   UNL     1       5.557   5.288  19.313  0.00  0.00    +0.000 OA
ATOM      3  O   UNL     1       5.522   6.552  17.131  0.00  0.00    +0.000 OA
ENDROOT
BRANCH   1   4
ATOM      4  C   UNL     1       3.404   6.572  18.651  0.00  0.00    +0.000 A 
ATOM      5  C   UNL     1       2.819   6.222  19.880  0.00  0.00    +0.000 A 
ATOM      6  C   UNL     1       1.893   7.091  20.464  0.00  0.00    +0.000 A 
ATOM      7  C   UNL     1       1.532   8.285  19.851  0.00  0.00    +0.000 A 
ATOM      8  N   UNL     1       0.843   9.215  20.531  0.00  0.00    +0.000 NA
ATOM      9  C   UNL     1       0.500  10.329  19.865  0.00  0.00    +0.000 A 
ATOM     10  C   UNL     1       0.698  10.554  18.522  0.00  0.00    +0.000 A 
ATOM     11  C   UNL     1       1.479   9.634  17.847  0.00  0.00    +0.000 A 
ATOM     12  C   UNL     1       1.978   8.521  18.532  0.00  0.00    +0.000 A 
ATOM     13  C   UNL     1       2.958   7.694  17.964  0.00  0.00    +0.000 A 
BRANCH   9  14
ATOM     14  O   UNL     1       0.265  11.431  20.639  0.00  0.00    +0.000 OA
ATOM     15  H   UNL     1       1.141  11.547  21.051  0.00  0.00    +0.000 HD
ENDBRANCH   9  14
ENDBRANCH   1   4
BRANCH   1  17
ATOM     16  C   UNL     1       4.745   4.158  15.953  0.00  0.00    +0.000 C 
ATOM     17  N   UNL     1       4.239   4.344  17.331  0.00  0.00    +0.000 NA
BRANCH  17  18
ATOM     18  C   UNL     1       4.325   3.112  18.166  0.00  0.00    +0.000 C 
BRANCH  18  19
ATOM     19  C   UNL     1       3.181   2.978  19.146  0.00  0.00    +0.000 A 
ATOM     20  C   UNL     1       1.853   3.093  18.712  0.00  0.00    +0.000 A 
ATOM     21  C   UNL     1       0.805   3.014  19.627  0.00  0.00    +0.000 A 
ATOM     22  C   UNL     1       1.072   2.816  20.981  0.00  0.00    +0.000 A 
ATOM     23  C   UNL     1       2.388   2.686  21.422  0.00  0.00    +0.000 A 
ATOM     24  C   UNL     1       3.438   2.761  20.508  0.00  0.00    +0.000 A 
ENDBRANCH  18  19
ENDBRANCH  17  18
ENDBRANCH   1  17
TORSDOF 5
ENDMDL
MODEL 5
REMARK VINA RESULT:      -7.6      1.706      2.671
REMARK  Name = 
REMARK  6 active torsions:
REMARK  status: ('A' for Active; 'I' for Inactive)
REMARK    1  A    between atoms: C_1  and  N_2
REMARK    2  A    between atoms: N_2  and  C_3
REMARK    3  A    between atoms: N_2  and  S_10
REMARK    4  A    between atoms: C_3  and  C_4
REMARK    5  A    between atoms: S_10  and  C_13
REMARK    6  A    between atoms: C_18  and  O_19
REMARK                            x       y       z     vdW  Elec       q    Type
REMARK                         _______ _______ _______ _____ _____    ______ ____
ROOT
ATOM      1  S   UNL     1       3.908   2.686  19.135  0.00  0.00    +0.000 S 
ATOM      2  O   UNL     1       4.674   2.636  20.365  0.00  0.00    +0.000 OA
ATOM      3  O   UNL     1       3.630   1.492  18.374  0.00  0.00    +0.000 OA
ENDROOT
BRANCH   1   4
ATOM      4  C   UNL     1       4.748   3.827  18.062  0.00  0.00    +0.000 A 
ATOM      5  C   UNL     1       5.698   4.708  18.606  0.00  0.00    +0.000 A 
ATOM      6  C   UNL     1       6.593   5.355  17.750  0.00  0.00    +0.000 A 
ATOM      7  C   UNL     1       6.556   5.155  16.375  0.00  0.00    +0.000 A 
ATOM      8  N   UNL     1       7.567   5.580  15.601  0.00  0.00    +0.000 NA
ATOM      9  C   UNL     1       7.448   5.382  14.278  0.00  0.00    +0.000 A 
ATOM     10  C   UNL     1       6.337   4.879  13.639  0.00  0.00    +0.000 A 
ATOM     11  C   UNL     1       5.336   4.366  14.444  0.00  0.00    +0.000 A 
ATOM     12  C   UNL     1       5.475   4.424  15.835  0.00  0.00    +0.000 A 
ATOM     13  C   UNL     1       4.612   3.716  16.684  0.00  0.00    +0.000 A 
BRANCH   9  14
ATOM     14  O   UNL     1       8.621   5.346  13.579  0.00  0.00    +0.000 OA
ATOM     15  H   UNL     1       9.118   6.054  14.030  0.00  0.00    +0.000 HD
ENDBRANCH   9  14
ENDBRANCH   1   4
BRANCH   1  17
ATOM     16  C   UNL     1       1.299   2.566  19.691  0.00  0.00    +0.000 C 
ATOM     17  N   UNL     1       2.436   3.484  19.454  0.00  0.00    +0.000 NA
BRANCH  17  18
ATOM     18  C   UNL     1       2.565   4.548  20.490  0.00  0.00    +0.000 C 
BRANCH  18  19
ATOM     19  C   UNL     1       2.316   5.937  19.947  0.00  0.00    +0.000 A 
ATOM     20  C   UNL     1       1.795   6.944  20.773  0.00  0.00    +0.000 A 
ATOM     21  C   UNL     1       1.526   8.209  20.255  0.00  0.00    +0.000 A 
ATOM     22  C   UNL     1       1.775   8.482  18.912  0.00  0.00    +0.000 A 
ATOM     23  C   UNL     1       2.305   7.494  18.084  0.00  0.00    +0.000 A 
ATOM     24  C   UNL     1       2.580   6.229  18.600  0.00  0.00    +0.000 A 
ENDBRANCH  18  19
ENDBRANCH  17  18
ENDBRANCH   1  17
TORSDOF 5
ENDMDL
MODEL 6
REMARK VINA RESULT:      -7.6      2.599      5.495
REMARK  Name = 
REMARK  6 active torsions:
REMARK  status: ('A' for Active; 'I' for Inactive)
REMARK    1  A    between atoms: C_1  and  N_2
REMARK    2  A    between atoms: N_2  and  C_3
REMARK    3  A    between atoms: N_2  and  S_10
REMARK    4  A    between atoms: C_3  and  C_4
REMARK    5  A    between atoms: S_10  and  C_13
REMARK    6  A    between atoms: C_18  and  O_19
REMARK                            x       y       z     vdW  Elec       q    Type
REMARK                         _______ _______ _______ _____ _____    ______ ____
ROOT
ATOM      1  S   UNL     1       2.353   4.295  18.879  0.00  0.00    +0.000 S 
ATOM      2  O   UNL     1       2.036   4.060  17.485  0.00  0.00    +0.000 OA
ATOM      3  O   UNL     1       1.574   3.698  19.938  0.00  0.00    +0.000 OA
ENDROOT
BRANCH   1   4
ATOM      4  C   UNL     1       2.325   6.056  19.115  0.00  0.00    +0.000 A 
ATOM      5  C   UNL     1       2.532   6.899  18.012  0.00  0.00    +0.000 A 
ATOM      6  C   UNL     1       2.181   8.248  18.111  0.00  0.00    +0.000 A 
ATOM      7  C   UNL     1       1.643   8.773  19.280  0.00  0.00    +0.000 A 
ATOM      8  N   UNL     1       1.083   9.994  19.280  0.00  0.00    +0.000 NA
ATOM      9  C   UNL     1       0.614  10.450  20.453  0.00  0.00    +0.000 A 
ATOM     10  C   UNL     1       0.751   9.823  21.670  0.00  0.00    +0.000 A 
ATOM     11  C   UNL     1       1.250   8.533  21.652  0.00  0.00    +0.000 A 
ATOM     12  C   UNL     1       1.627   7.959  20.433  0.00  0.00    +0.000 A 
ATOM     13  C   UNL     1       1.912   6.590  20.330  0.00  0.00    +0.000 A 
BRANCH   9  14
ATOM     14  O   UNL     1      -0.356  11.409  20.367  0.00  0.00    +0.000 OA
ATOM     15  H   UNL     1       0.181  12.181  20.108  0.00  0.00    +0.000 HD
ENDBRANCH   9  14
ENDBRANCH   1   4
BRANCH   1  17
ATOM     16  C   UNL     1       4.204   2.652  19.882  0.00  0.00    +0.000 C 
ATOM     17  N   UNL     1       3.995   3.908  19.127  0.00  0.00    +0.000 NA
BRANCH  17  18
ATOM     18  C   UNL     1       4.805   3.992  17.879  0.00  0.00    +0.000 C 
BRANCH  18  19
ATOM     19  C   UNL     1       5.845   5.089  17.919  0.00  0.00    +0.000 A 
ATOM     20  C   UNL     1       6.869   5.066  18.877  0.00  0.00    +0.000 A 
ATOM     21  C   UNL     1       7.797   6.104  18.937  0.00  0.00    +0.000 A 
ATOM     22  C   UNL     1       7.714   7.170  18.044  0.00  0.00    +0.000 A 
ATOM     23  C   UNL     1       6.709   7.196  17.079  0.00  0.00    +0.000 A 
ATOM     24  C   UNL     1       5.781   6.158  17.013  0.00  0.00    +0.000 A 
ENDBRANCH  18  19
ENDBRANCH  17  18
ENDBRANCH   1  17
TORSDOF 5
ENDMDL
MODEL 7
REMARK VINA RESULT:      -7.5      2.554      5.411
REMARK  Name = 
REMARK  6 active torsions:
REMARK  status: ('A' for Active; 'I' for Inactive)
REMARK    1  A    between atoms: C_1  and  N_2
REMARK    2  A    between atoms: N_2  and  C_3
REMARK    3  A    between atoms: N_2  and  S_10
REMARK    4  A    between atoms: C_3  and  C_4
REMARK    5  A    between atoms: S_10  and  C_13
REMARK    6  A    between atoms: C_18  and  O_19
REMARK                            x       y       z     vdW  Elec       q    Type
REMARK                         _______ _______ _______ _____ _____    ______ ____
ROOT
ATOM      1  S   UNL     1       2.238   4.161  18.975  0.00  0.00    +0.000 S 
ATOM      2  O   UNL     1       1.838   3.904  17.606  0.00  0.00    +0.000 OA
ATOM      3  O   UNL     1       1.503   3.610  20.089  0.00  0.00    +0.000 OA
ENDROOT
BRANCH   1   4
ATOM      4  C   UNL     1       2.271   5.927  19.170  0.00  0.00    +0.000 A 
ATOM      5  C   UNL     1       2.539   6.735  18.053  0.00  0.00    +0.000 A 
ATOM      6  C   UNL     1       2.236   8.099  18.113  0.00  0.00    +0.000 A 
ATOM      7  C   UNL     1       1.686   8.671  19.253  0.00  0.00    +0.000 A 
ATOM      8  N   UNL     1       1.174   9.911  19.210  0.00  0.00    +0.000 NA
ATOM      9  C   UNL     1       0.690  10.412  20.358  0.00  0.00    +0.000 A 
ATOM     10  C   UNL     1       0.771   9.810  21.593  0.00  0.00    +0.000 A 
ATOM     11  C   UNL     1       1.221   8.502  21.619  0.00  0.00    +0.000 A 
ATOM     12  C   UNL     1       1.609   7.885  20.424  0.00  0.00    +0.000 A 
ATOM     13  C   UNL     1       1.845   6.504  20.360  0.00  0.00    +0.000 A 
BRANCH   9  14
ATOM     14  O   UNL     1      -0.240  11.404  20.224  0.00  0.00    +0.000 OA
ATOM     15  H   UNL     1      -0.597  11.436  21.131  0.00  0.00    +0.000 HD
ENDBRANCH   9  14
ENDBRANCH   1   4
BRANCH   1  17
ATOM     16  C   UNL     1       4.091   2.413  19.777  0.00  0.00    +0.000 C 
ATOM     17  N   UNL     1       3.880   3.734  19.142  0.00  0.00    +0.000 NA
BRANCH  17  18
ATOM     18  C   UNL     1       4.658   3.918  17.884  0.00  0.00    +0.000 C 
BRANCH  18  19
ATOM     19  C   UNL     1       5.737   4.971  18.003  0.00  0.00    +0.000 A 
ATOM     20  C   UNL     1       5.916   5.927  16.992  0.00  0.00    +0.000 A 
ATOM     21  C   UNL     1       6.940   6.866  17.086  0.00  0.00    +0.000 A 
ATOM     22  C   UNL     1       7.793   6.863  18.188  0.00  0.00    +0.000 A 
ATOM     23  C   UNL     1       7.616   5.928  19.206  0.00  0.00    +0.000 A 
ATOM     24  C   UNL     1       6.589   4.989  19.117  0.00  0.00    +0.000 A 
ENDBRANCH  18  19
ENDBRANCH  17  18
ENDBRANCH   1  17
TORSDOF 5
ENDMDL
MODEL 8
REMARK VINA RESULT:      -7.5      2.809      5.757
REMARK  Name = 
REMARK  6 active torsions:
REMARK  status: ('A' for Active; 'I' for Inactive)
REMARK    1  A    between atoms: C_1  and  N_2
REMARK    2  A    between atoms: N_2  and  C_3
REMARK    3  A    between atoms: N_2  and  S_10
REMARK    4  A    between atoms: C_3  and  C_4
REMARK    5  A    between atoms: S_10  and  C_13
REMARK    6  A    between atoms: C_18  and  O_19
REMARK                            x       y       z     vdW  Elec       q    Type
REMARK                         _______ _______ _______ _____ _____    ______ ____
ROOT
ATOM      1  S   UNL     1       5.266   5.981  17.474  0.00  0.00    +0.000 S 
ATOM      2  O   UNL     1       6.002   5.378  18.567  0.00  0.00    +0.000 OA
ATOM      3  O   UNL     1       5.851   7.015  16.654  0.00  0.00    +0.000 OA
ENDROOT
BRANCH   1   4
ATOM      4  C   UNL     1       3.764   6.627  18.169  0.00  0.00    +0.000 A 
ATOM      5  C   UNL     1       3.284   6.098  19.378  0.00  0.00    +0.000 A 
ATOM      6  C   UNL     1       2.319   6.809  20.097  0.00  0.00    +0.000 A 
ATOM      7  C   UNL     1       1.818   8.020  19.636  0.00  0.00    +0.000 A 
ATOM      8  N   UNL     1       1.090   8.805  20.446  0.00  0.00    +0.000 NA
ATOM      9  C   UNL     1       0.610   9.944  19.922  0.00  0.00    +0.000 A 
ATOM     10  C   UNL     1       0.710  10.326  18.604  0.00  0.00    +0.000 A 
ATOM     11  C   UNL     1       1.530   9.560  17.795  0.00  0.00    +0.000 A 
ATOM     12  C   UNL     1       2.166   8.434  18.331  0.00  0.00    +0.000 A 
ATOM     13  C   UNL     1       3.181   7.767  17.630  0.00  0.00    +0.000 A 
BRANCH   9  14
ATOM     14  O   UNL     1       0.323  10.932  20.822  0.00  0.00    +0.000 OA
ATOM     15  H   UNL     1      -0.411  10.517  21.312  0.00  0.00    +0.000 HD
ENDBRANCH   9  14
ENDBRANCH   1   4
BRANCH   1  17
ATOM     16  C   UNL     1       5.289   4.763  15.097  0.00  0.00    +0.000 C 
ATOM     17  N   UNL     1       4.704   4.734  16.456  0.00  0.00    +0.000 NA
BRANCH  17  18
ATOM     18  C   UNL     1       4.762   3.390  17.099  0.00  0.00    +0.000 C 
BRANCH  18  19
ATOM     19  C   UNL     1       3.585   3.114  18.006  0.00  0.00    +0.000 A 
ATOM     20  C   UNL     1       3.785   2.670  19.321  0.00  0.00    +0.000 A 
ATOM     21  C   UNL     1       2.695   2.374  20.136  0.00  0.00    +0.000 A 
ATOM     22  C   UNL     1       1.397   2.522  19.651  0.00  0.00    +0.000 A 
ATOM     23  C   UNL     1       1.185   2.976  18.350  0.00  0.00    +0.000 A 
ATOM     24  C   UNL     1       2.274   3.276  17.532  0.00  0.00    +0.000 A 
ENDBRANCH  18  19
ENDBRANCH  17  18
ENDBRANCH   1  17
TORSDOF 5
ENDMDL
MODEL 9
REMARK VINA RESULT:      -7.3      2.746      6.703
REMARK  Name = 
REMARK  6 active torsions:
REMARK  status: ('A' for Active; 'I' for Inactive)
REMARK    1  A    between atoms: C_1  and  N_2
REMARK    2  A    between atoms: N_2  and  C_3
REMARK    3  A    between atoms: N_2  and  S_10
REMARK    4  A    between atoms: C_3  and  C_4
REMARK    5  A    between atoms: S_10  and  C_13
REMARK    6  A    between atoms: C_18  and  O_19
REMARK                            x       y       z     vdW  Elec       q    Type
REMARK                         _______ _______ _______ _____ _____    ______ ____
ROOT
ATOM      1  S   UNL     1       6.564   6.515  17.579  0.00  0.00    +0.000 S 
ATOM      2  O   UNL     1       7.366   6.721  18.769  0.00  0.00    +0.000 OA
ATOM      3  O   UNL     1       6.340   7.580  16.631  0.00  0.00    +0.000 OA
ENDROOT
BRANCH   1   4
ATOM      4  C   UNL     1       4.975   5.943  18.133  0.00  0.00    +0.000 A 
ATOM      5  C   UNL     1       3.816   6.604  17.694  0.00  0.00    +0.000 A 
ATOM      6  C   UNL     1       2.578   5.972  17.838  0.00  0.00    +0.000 A 
ATOM      7  C   UNL     1       2.468   4.713  18.416  0.00  0.00    +0.000 A 
ATOM      8  N   UNL     1       1.321   4.022  18.321  0.00  0.00    +0.000 NA
ATOM      9  C   UNL     1       1.277   2.827  18.931  0.00  0.00    +0.000 A 
ATOM     10  C   UNL     1       2.263   2.298  19.732  0.00  0.00    +0.000 A 
ATOM     11  C   UNL     1       3.470   2.972  19.758  0.00  0.00    +0.000 A 
ATOM     12  C   UNL     1       3.613   4.156  19.026  0.00  0.00    +0.000 A 
ATOM     13  C   UNL     1       4.870   4.745  18.829  0.00  0.00    +0.000 A 
BRANCH   9  14
ATOM     14  O   UNL     1       0.355   1.946  18.439  0.00  0.00    +0.000 OA
ATOM     15  H   UNL     1       0.087   2.408  17.623  0.00  0.00    +0.000 HD
ENDBRANCH   9  14
ENDBRANCH   1   4
BRANCH   1  17
ATOM     16  C   UNL     1       7.965   4.242  17.597  0.00  0.00    +0.000 C 
ATOM     17  N   UNL     1       7.181   5.163  16.744  0.00  0.00    +0.000 NA
BRANCH  17  18
ATOM     18  C   UNL     1       6.151   4.473  15.916  0.00  0.00    +0.000 C 
BRANCH  18  19
ATOM     19  C   UNL     1       6.523   4.392  14.453  0.00  0.00    +0.000 A 
ATOM     20  C   UNL     1       7.528   5.215  13.925  0.00  0.00    +0.000 A 
ATOM     21  C   UNL     1       7.834   5.168  12.567  0.00  0.00    +0.000 A 
ATOM     22  C   UNL     1       7.144   4.299  11.724  0.00  0.00    +0.000 A 
ATOM     23  C   UNL     1       6.153   3.466  12.240  0.00  0.00    +0.000 A 
ATOM     24  C   UNL     1       5.847   3.508  13.599  0.00  0.00    +0.000 A 
ENDBRANCH  18  19
ENDBRANCH  17  18
ENDBRANCH   1  17
TORSDOF 5
ENDMDL
