MODEL 1
REMARK VINA RESULT:      -7.6      0.000      0.000
REMARK  Name = 
REMARK  12 active torsions:
REMARK  status: ('A' for Active; 'I' for Inactive)
REMARK    1  A    between atoms: C_1  and  C_2
REMARK    2  A    between atoms: C_2  and  C_3
REMARK    3  A    between atoms: C_3  and  C_4
REMARK    4  A    between atoms: C_6  and  C_7
REMARK    5  A    between atoms: C_7  and  C_9
REMARK    6  A    between atoms: C_11  and  O_12
REMARK    7  A    between atoms: O_12  and  C_13
REMARK    8  A    between atoms: C_14  and  O_15
REMARK    9  A    between atoms: O_15  and  C_16
REMARK   10  A    between atoms: C_17  and  O_18
REMARK   11  A    between atoms: O_18  and  C_19
REMARK   12  A    between atoms: C_22  and  C_23
REMARK                            x       y       z     vdW  Elec       q    Type
REMARK                         _______ _______ _______ _____ _____    ______ ____
ROOT
ATOM      1  C   UNL     1       0.154   9.787  18.305  0.00  0.00    +0.000 A 
ATOM      2  N   UNL     1       1.063   9.213  17.451  0.00  0.00    +0.000 N 
ATOM      3  C   UNL     1       1.993   8.536  18.192  0.00  0.00    +0.000 A 
ATOM      4  N   UNL     1       1.760   8.687  19.481  0.00  0.00    +0.000 NA
ATOM      5  C   UNL     1       0.627   9.468  19.571  0.00  0.00    +0.000 A 
ATOM      6  H   UNL     1       1.059   9.237  16.440  0.00  0.00    +0.000 HD
ENDROOT
BRANCH   5   7
ATOM      7  C   UNL     1       0.073   9.891  20.850  0.00  0.00    +0.000 A 
ATOM      8  C   UNL     1      -0.497  11.168  20.976  0.00  0.00    +0.000 A 
ATOM      9  C   UNL     1      -1.045  11.589  22.189  0.00  0.00    +0.000 A 
ATOM     10  C   UNL     1      -1.032  10.740  23.294  0.00  0.00    +0.000 A 
ATOM     11  C   UNL     1      -0.457   9.476  23.189  0.00  0.00    +0.000 A 
ATOM     12  C   UNL     1       0.101   9.062  21.979  0.00  0.00    +0.000 A 
ENDBRANCH   5   7
BRANCH   3  13
ATOM     13  C   UNL     1       3.076   7.777  17.606  0.00  0.00    +0.000 C 
ATOM     14  O   UNL     1       3.746   8.206  16.667  0.00  0.00    +0.000 OA
BRANCH  13  15
ATOM     15  C   UNL     1       3.353   6.401  18.099  0.00  0.00    +0.000 A 
ATOM     16  C   UNL     1       4.678   5.992  18.248  0.00  0.00    +0.000 A 
ATOM     17  C   UNL     1       4.967   4.682  18.636  0.00  0.00    +0.000 A 
ATOM     18  C   UNL     1       3.915   3.755  18.840  0.00  0.00    +0.000 A 
ATOM     19  C   UNL     1       2.575   4.164  18.654  0.00  0.00    +0.000 A 
ATOM     20  C   UNL     1       2.311   5.491  18.306  0.00  0.00    +0.000 A 
BRANCH  17  21
ATOM     21  O   UNL     1       6.250   4.214  18.802  0.00  0.00    +0.000 OA
ATOM     22  C   UNL     1       7.225   4.693  17.881  0.00  0.00    +0.000 C 
ENDBRANCH  17  21
BRANCH  18  23
ATOM     23  O   UNL     1       4.312   2.472  19.143  0.00  0.00    +0.000 OA
ATOM     24  C   UNL     1       4.338   2.115  20.521  0.00  0.00    +0.000 C 
ENDBRANCH  18  23
BRANCH  19  25
ATOM     25  O   UNL     1       1.588   3.221  18.778  0.00  0.00    +0.000 OA
ATOM     26  C   UNL     1       0.825   3.199  19.979  0.00  0.00    +0.000 C 
ENDBRANCH  19  25
ENDBRANCH  13  15
ENDBRANCH   3  13
BRANCH   1  27
ATOM     27  C   UNL     1      -1.015  10.597  17.849  0.00  0.00    +0.000 C 
BRANCH  27  29
ATOM     28  C   UNL     1      -3.366   9.779  17.585  0.00  0.00    +0.000 C 
ATOM     29  C   UNL     1      -1.997   9.870  16.930  0.00  0.00    +0.000 C 
ENDBRANCH  27  29
ENDBRANCH   1  27
TORSDOF 8
ENDMDL
MODEL 2
REMARK VINA RESULT:      -7.5      0.662      1.148
REMARK  Name = 
REMARK  12 active torsions:
REMARK  status: ('A' for Active; 'I' for Inactive)
REMARK    1  A    between atoms: C_1  and  C_2
REMARK    2  A    between atoms: C_2  and  C_3
REMARK    3  A    between atoms: C_3  and  C_4
REMARK    4  A    between atoms: C_6  and  C_7
REMARK    5  A    between atoms: C_7  and  C_9
REMARK    6  A    between atoms: C_11  and  O_12
REMARK    7  A    between atoms: O_12  and  C_13
REMARK    8  A    between atoms: C_14  and  O_15
REMARK    9  A    between atoms: O_15  and  C_16
REMARK   10  A    between atoms: C_17  and  O_18
REMARK   11  A    between atoms: O_18  and  C_19
REMARK   12  A    between atoms: C_22  and  C_23
REMARK                            x       y       z     vdW  Elec       q    Type
REMARK                         _______ _______ _______ _____ _____    ______ ____
ROOT
ATOM      1  C   UNL     1      -0.032   9.893  18.301  0.00  0.00    +0.000 A 
ATOM      2  N   UNL     1       0.889   9.248  17.514  0.00  0.00    +0.000 N 
ATOM      3  C   UNL     1       1.800   8.626  18.324  0.00  0.00    +0.000 A 
ATOM      4  N   UNL     1       1.543   8.881  19.592  0.00  0.00    +0.000 NA
ATOM      5  C   UNL     1       0.414   9.673  19.598  0.00  0.00    +0.000 A 
ATOM      6  H   UNL     1       0.905   9.192  16.504  0.00  0.00    +0.000 HD
ENDROOT
BRANCH   5   7
ATOM      7  C   UNL     1      -0.161  10.199  20.828  0.00  0.00    +0.000 A 
ATOM      8  C   UNL     1      -0.201   9.396  21.979  0.00  0.00    +0.000 A 
ATOM      9  C   UNL     1      -0.736   9.885  23.173  0.00  0.00    +0.000 A 
ATOM     10  C   UNL     1      -1.239  11.183  23.233  0.00  0.00    +0.000 A 
ATOM     11  C   UNL     1      -1.220  11.986  22.096  0.00  0.00    +0.000 A 
ATOM     12  C   UNL     1      -0.696  11.492  20.901  0.00  0.00    +0.000 A 
ENDBRANCH   5   7
BRANCH   3  13
ATOM     13  C   UNL     1       2.888   7.817  17.822  0.00  0.00    +0.000 C 
ATOM     14  O   UNL     1       3.552   8.145  16.838  0.00  0.00    +0.000 OA
BRANCH  13  15
ATOM     15  C   UNL     1       3.180   6.507  18.464  0.00  0.00    +0.000 A 
ATOM     16  C   UNL     1       4.483   6.011  18.421  0.00  0.00    +0.000 A 
ATOM     17  C   UNL     1       4.769   4.749  18.948  0.00  0.00    +0.000 A 
ATOM     18  C   UNL     1       3.729   3.957  19.492  0.00  0.00    +0.000 A 
ATOM     19  C   UNL     1       2.404   4.449  19.502  0.00  0.00    +0.000 A 
ATOM     20  C   UNL     1       2.151   5.731  19.007  0.00  0.00    +0.000 A 
BRANCH  17  21
ATOM     21  O   UNL     1       6.031   4.201  18.939  0.00  0.00    +0.000 OA
ATOM     22  C   UNL     1       6.933   4.699  17.956  0.00  0.00    +0.000 C 
ENDBRANCH  17  21
BRANCH  18  23
ATOM     23  O   UNL     1       4.106   2.700  19.912  0.00  0.00    +0.000 OA
ATOM     24  C   UNL     1       3.981   1.643  18.968  0.00  0.00    +0.000 C 
ENDBRANCH  18  23
BRANCH  19  25
ATOM     25  O   UNL     1       1.411   3.623  19.958  0.00  0.00    +0.000 OA
ATOM     26  C   UNL     1       0.702   2.833  19.009  0.00  0.00    +0.000 C 
ENDBRANCH  19  25
ENDBRANCH  13  15
ENDBRANCH   3  13
BRANCH   1  27
ATOM     27  C   UNL     1      -1.186  10.671  17.759  0.00  0.00    +0.000 C 
BRANCH  27  29
ATOM     28  C   UNL     1      -2.766   9.913  15.972  0.00  0.00    +0.000 C 
ATOM     29  C   UNL     1      -2.442   9.854  17.457  0.00  0.00    +0.000 C 
ENDBRANCH  27  29
ENDBRANCH   1  27
TORSDOF 8
ENDMDL
MODEL 3
REMARK VINA RESULT:      -7.4      3.495      8.265
REMARK  Name = 
REMARK  12 active torsions:
REMARK  status: ('A' for Active; 'I' for Inactive)
REMARK    1  A    between atoms: C_1  and  C_2
REMARK    2  A    between atoms: C_2  and  C_3
REMARK    3  A    between atoms: C_3  and  C_4
REMARK    4  A    between atoms: C_6  and  C_7
REMARK    5  A    between atoms: C_7  and  C_9
REMARK    6  A    between atoms: C_11  and  O_12
REMARK    7  A    between atoms: O_12  and  C_13
REMARK    8  A    between atoms: C_14  and  O_15
REMARK    9  A    between atoms: O_15  and  C_16
REMARK   10  A    between atoms: C_17  and  O_18
REMARK   11  A    between atoms: O_18  and  C_19
REMARK   12  A    between atoms: C_22  and  C_23
REMARK                            x       y       z     vdW  Elec       q    Type
REMARK                         _______ _______ _______ _____ _____    ______ ____
ROOT
ATOM      1  C   UNL     1       2.135   7.023  19.667  0.00  0.00    +0.000 A 
ATOM      2  N   UNL     1       1.554   8.246  19.894  0.00  0.00    +0.000 N 
ATOM      3  C   UNL     1       1.701   9.017  18.773  0.00  0.00    +0.000 A 
ATOM      4  N   UNL     1       2.393   8.372  17.854  0.00  0.00    +0.000 NA
ATOM      5  C   UNL     1       2.678   7.135  18.394  0.00  0.00    +0.000 A 
ATOM      6  H   UNL     1       1.062   8.550  20.724  0.00  0.00    +0.000 HD
ENDROOT
BRANCH   5   7
ATOM      7  C   UNL     1       3.473   6.142  17.685  0.00  0.00    +0.000 A 
ATOM      8  C   UNL     1       4.606   6.542  16.959  0.00  0.00    +0.000 A 
ATOM      9  C   UNL     1       5.390   5.605  16.283  0.00  0.00    +0.000 A 
ATOM     10  C   UNL     1       5.053   4.253  16.324  0.00  0.00    +0.000 A 
ATOM     11  C   UNL     1       3.924   3.842  17.027  0.00  0.00    +0.000 A 
ATOM     12  C   UNL     1       3.135   4.782  17.692  0.00  0.00    +0.000 A 
ENDBRANCH   5   7
BRANCH   3  13
ATOM     13  C   UNL     1       1.166  10.355  18.652  0.00  0.00    +0.000 C 
ATOM     14  O   UNL     1       1.881  11.356  18.711  0.00  0.00    +0.000 OA
BRANCH  13  15
ATOM     15  C   UNL     1      -0.304  10.545  18.524  0.00  0.00    +0.000 A 
ATOM     16  C   UNL     1      -0.965   9.975  17.436  0.00  0.00    +0.000 A 
ATOM     17  C   UNL     1      -2.331  10.201  17.250  0.00  0.00    +0.000 A 
ATOM     18  C   UNL     1      -3.037  11.041  18.145  0.00  0.00    +0.000 A 
ATOM     19  C   UNL     1      -2.357  11.645  19.226  0.00  0.00    +0.000 A 
ATOM     20  C   UNL     1      -0.999  11.370  19.414  0.00  0.00    +0.000 A 
BRANCH  17  21
ATOM     21  O   UNL     1      -3.043   9.669  16.200  0.00  0.00    +0.000 OA
ATOM     22  C   UNL     1      -2.863  10.289  14.932  0.00  0.00    +0.000 C 
ENDBRANCH  17  21
BRANCH  18  23
ATOM     23  O   UNL     1      -4.360  11.259  17.826  0.00  0.00    +0.000 OA
ATOM     24  C   UNL     1      -5.329  10.529  18.569  0.00  0.00    +0.000 C 
ENDBRANCH  18  23
BRANCH  19  25
ATOM     25  O   UNL     1      -3.051  12.518  20.022  0.00  0.00    +0.000 OA
ATOM     26  C   UNL     1      -2.402  13.715  20.435  0.00  0.00    +0.000 C 
ENDBRANCH  19  25
ENDBRANCH  13  15
ENDBRANCH   3  13
BRANCH   1  27
ATOM     27  C   UNL     1       2.157   5.917  20.670  0.00  0.00    +0.000 C 
BRANCH  27  29
ATOM     28  C   UNL     1       1.574   3.506  21.009  0.00  0.00    +0.000 C 
ATOM     29  C   UNL     1       1.080   4.847  20.487  0.00  0.00    +0.000 C 
ENDBRANCH  27  29
ENDBRANCH   1  27
TORSDOF 8
ENDMDL
MODEL 4
REMARK VINA RESULT:      -7.4      2.951      7.747
REMARK  Name = 
REMARK  12 active torsions:
REMARK  status: ('A' for Active; 'I' for Inactive)
REMARK    1  A    between atoms: C_1  and  C_2
REMARK    2  A    between atoms: C_2  and  C_3
REMARK    3  A    between atoms: C_3  and  C_4
REMARK    4  A    between atoms: C_6  and  C_7
REMARK    5  A    between atoms: C_7  and  C_9
REMARK    6  A    between atoms: C_11  and  O_12
REMARK    7  A    between atoms: O_12  and  C_13
REMARK    8  A    between atoms: C_14  and  O_15
REMARK    9  A    between atoms: O_15  and  C_16
REMARK   10  A    between atoms: C_17  and  O_18
REMARK   11  A    between atoms: O_18  and  C_19
REMARK   12  A    between atoms: C_22  and  C_23
REMARK                            x       y       z     vdW  Elec       q    Type
REMARK                         _______ _______ _______ _____ _____    ______ ____
ROOT
ATOM      1  C   UNL     1       3.449   6.389  17.890  0.00  0.00    +0.000 A 
ATOM      2  N   UNL     1       3.337   7.702  17.504  0.00  0.00    +0.000 N 
ATOM      3  C   UNL     1       2.350   8.293  18.246  0.00  0.00    +0.000 A 
ATOM      4  N   UNL     1       1.786   7.416  19.052  0.00  0.00    +0.000 NA
ATOM      5  C   UNL     1       2.450   6.225  18.840  0.00  0.00    +0.000 A 
ATOM      6  H   UNL     1       3.893   8.192  16.816  0.00  0.00    +0.000 HD
ENDROOT
BRANCH   5   7
ATOM      7  C   UNL     1       2.081   4.995  19.527  0.00  0.00    +0.000 A 
ATOM      8  C   UNL     1       2.422   4.822  20.878  0.00  0.00    +0.000 A 
ATOM      9  C   UNL     1       2.067   3.656  21.560  0.00  0.00    +0.000 A 
ATOM     10  C   UNL     1       1.366   2.647  20.901  0.00  0.00    +0.000 A 
ATOM     11  C   UNL     1       1.035   2.798  19.558  0.00  0.00    +0.000 A 
ATOM     12  C   UNL     1       1.401   3.959  18.874  0.00  0.00    +0.000 A 
ENDBRANCH   5   7
BRANCH   3  13
ATOM     13  C   UNL     1       1.995   9.690  18.127  0.00  0.00    +0.000 C 
ATOM     14  O   UNL     1       2.689  10.494  17.503  0.00  0.00    +0.000 OA
BRANCH  13  15
ATOM     15  C   UNL     1       0.792  10.201  18.838  0.00  0.00    +0.000 A 
ATOM     16  C   UNL     1      -0.358  10.482  18.101  0.00  0.00    +0.000 A 
ATOM     17  C   UNL     1      -1.476  11.033  18.731  0.00  0.00    +0.000 A 
ATOM     18  C   UNL     1      -1.429  11.345  20.112  0.00  0.00    +0.000 A 
ATOM     19  C   UNL     1      -0.249  11.092  20.848  0.00  0.00    +0.000 A 
ATOM     20  C   UNL     1       0.841  10.500  20.203  0.00  0.00    +0.000 A 
BRANCH  17  21
ATOM     21  O   UNL     1      -2.641  11.333  18.064  0.00  0.00    +0.000 OA
ATOM     22  C   UNL     1      -2.619  11.186  16.648  0.00  0.00    +0.000 C 
ENDBRANCH  17  21
BRANCH  18  23
ATOM     23  O   UNL     1      -2.555  11.957  20.615  0.00  0.00    +0.000 OA
ATOM     24  C   UNL     1      -2.495  13.368  20.792  0.00  0.00    +0.000 C 
ENDBRANCH  18  23
BRANCH  19  25
ATOM     25  O   UNL     1      -0.210  11.482  22.160  0.00  0.00    +0.000 OA
ATOM     26  C   UNL     1      -0.695  10.578  23.147  0.00  0.00    +0.000 C 
ENDBRANCH  19  25
ENDBRANCH  13  15
ENDBRANCH   3  13
BRANCH   1  27
ATOM     27  C   UNL     1       4.436   5.435  17.301  0.00  0.00    +0.000 C 
BRANCH  27  29
ATOM     28  C   UNL     1       5.509   4.771  15.139  0.00  0.00    +0.000 C 
ATOM     29  C   UNL     1       5.169   5.936  16.057  0.00  0.00    +0.000 C 
ENDBRANCH  27  29
ENDBRANCH   1  27
TORSDOF 8
ENDMDL
MODEL 5
REMARK VINA RESULT:      -7.4      3.487      8.251
REMARK  Name = 
REMARK  12 active torsions:
REMARK  status: ('A' for Active; 'I' for Inactive)
REMARK    1  A    between atoms: C_1  and  C_2
REMARK    2  A    between atoms: C_2  and  C_3
REMARK    3  A    between atoms: C_3  and  C_4
REMARK    4  A    between atoms: C_6  and  C_7
REMARK    5  A    between atoms: C_7  and  C_9
REMARK    6  A    between atoms: C_11  and  O_12
REMARK    7  A    between atoms: O_12  and  C_13
REMARK    8  A    between atoms: C_14  and  O_15
REMARK    9  A    between atoms: O_15  and  C_16
REMARK   10  A    between atoms: C_17  and  O_18
REMARK   11  A    between atoms: O_18  and  C_19
REMARK   12  A    between atoms: C_22  and  C_23
REMARK                            x       y       z     vdW  Elec       q    Type
REMARK                         _______ _______ _______ _____ _____    ______ ____
ROOT
ATOM      1  C   UNL     1       2.109   7.138  19.637  0.00  0.00    +0.000 A 
ATOM      2  N   UNL     1       1.533   8.361  19.884  0.00  0.00    +0.000 N 
ATOM      3  C   UNL     1       1.687   9.149  18.776  0.00  0.00    +0.000 A 
ATOM      4  N   UNL     1       2.377   8.516  17.848  0.00  0.00    +0.000 NA
ATOM      5  C   UNL     1       2.655   7.269  18.367  0.00  0.00    +0.000 A 
ATOM      6  H   UNL     1       1.042   8.653  20.718  0.00  0.00    +0.000 HD
ENDROOT
BRANCH   5   7
ATOM      7  C   UNL     1       3.445   6.283  17.643  0.00  0.00    +0.000 A 
ATOM      8  C   UNL     1       4.575   6.692  16.916  0.00  0.00    +0.000 A 
ATOM      9  C   UNL     1       5.355   5.762  16.225  0.00  0.00    +0.000 A 
ATOM     10  C   UNL     1       5.017   4.410  16.253  0.00  0.00    +0.000 A 
ATOM     11  C   UNL     1       3.892   3.991  16.957  0.00  0.00    +0.000 A 
ATOM     12  C   UNL     1       3.107   4.923  17.637  0.00  0.00    +0.000 A 
ENDBRANCH   5   7
BRANCH   3  13
ATOM     13  C   UNL     1       1.160  10.492  18.677  0.00  0.00    +0.000 C 
ATOM     14  O   UNL     1       1.866  11.489  18.835  0.00  0.00    +0.000 OA
BRANCH  13  15
ATOM     15  C   UNL     1      -0.297  10.689  18.446  0.00  0.00    +0.000 A 
ATOM     16  C   UNL     1      -1.023  11.465  19.350  0.00  0.00    +0.000 A 
ATOM     17  C   UNL     1      -2.405  11.604  19.201  0.00  0.00    +0.000 A 
ATOM     18  C   UNL     1      -3.076  10.925  18.154  0.00  0.00    +0.000 A 
ATOM     19  C   UNL     1      -2.341  10.111  17.262  0.00  0.00    +0.000 A 
ATOM     20  C   UNL     1      -0.954  10.023  17.408  0.00  0.00    +0.000 A 
BRANCH  17  21
ATOM     21  O   UNL     1      -3.180  12.354  20.055  0.00  0.00    +0.000 OA
ATOM     22  C   UNL     1      -2.623  12.638  21.334  0.00  0.00    +0.000 C 
ENDBRANCH  17  21
BRANCH  18  23
ATOM     23  O   UNL     1      -4.446  11.066  18.145  0.00  0.00    +0.000 OA
ATOM     24  C   UNL     1      -4.993  11.956  17.178  0.00  0.00    +0.000 C 
ENDBRANCH  18  23
BRANCH  19  25
ATOM     25  O   UNL     1      -3.032   9.403  16.314  0.00  0.00    +0.000 OA
ATOM     26  C   UNL     1      -3.019   9.882  14.974  0.00  0.00    +0.000 C 
ENDBRANCH  19  25
ENDBRANCH  13  15
ENDBRANCH   3  13
BRANCH   1  27
ATOM     27  C   UNL     1       2.122   6.015  20.621  0.00  0.00    +0.000 C 
BRANCH  27  29
ATOM     28  C   UNL     1       1.502   3.606  20.901  0.00  0.00    +0.000 C 
ATOM     29  C   UNL     1       1.019   4.972  20.439  0.00  0.00    +0.000 C 
ENDBRANCH  27  29
ENDBRANCH   1  27
TORSDOF 8
ENDMDL
MODEL 6
REMARK VINA RESULT:      -7.4      2.957      7.720
REMARK  Name = 
REMARK  12 active torsions:
REMARK  status: ('A' for Active; 'I' for Inactive)
REMARK    1  A    between atoms: C_1  and  C_2
REMARK    2  A    between atoms: C_2  and  C_3
REMARK    3  A    between atoms: C_3  and  C_4
REMARK    4  A    between atoms: C_6  and  C_7
REMARK    5  A    between atoms: C_7  and  C_9
REMARK    6  A    between atoms: C_11  and  O_12
REMARK    7  A    between atoms: O_12  and  C_13
REMARK    8  A    between atoms: C_14  and  O_15
REMARK    9  A    between atoms: O_15  and  C_16
REMARK   10  A    between atoms: C_17  and  O_18
REMARK   11  A    between atoms: O_18  and  C_19
REMARK   12  A    between atoms: C_22  and  C_23
REMARK                            x       y       z     vdW  Elec       q    Type
REMARK                         _______ _______ _______ _____ _____    ______ ____
ROOT
ATOM      1  C   UNL     1       3.587   6.418  18.212  0.00  0.00    +0.000 A 
ATOM      2  N   UNL     1       3.418   7.715  17.792  0.00  0.00    +0.000 N 
ATOM      3  C   UNL     1       2.290   8.221  18.380  0.00  0.00    +0.000 A 
ATOM      4  N   UNL     1       1.696   7.301  19.114  0.00  0.00    +0.000 NA
ATOM      5  C   UNL     1       2.483   6.172  19.016  0.00  0.00    +0.000 A 
ATOM      6  H   UNL     1       4.021   8.248  17.180  0.00  0.00    +0.000 HD
ENDROOT
BRANCH   5   7
ATOM      7  C   UNL     1       2.128   4.918  19.666  0.00  0.00    +0.000 A 
ATOM      8  C   UNL     1       1.488   3.908  18.930  0.00  0.00    +0.000 A 
ATOM      9  C   UNL     1       1.150   2.692  19.529  0.00  0.00    +0.000 A 
ATOM     10  C   UNL     1       1.449   2.469  20.872  0.00  0.00    +0.000 A 
ATOM     11  C   UNL     1       2.070   3.466  21.618  0.00  0.00    +0.000 A 
ATOM     12  C   UNL     1       2.395   4.685  21.021  0.00  0.00    +0.000 A 
ENDBRANCH   5   7
BRANCH   3  13
ATOM     13  C   UNL     1       1.837   9.581  18.189  0.00  0.00    +0.000 C 
ATOM     14  O   UNL     1       2.340  10.330  17.351  0.00  0.00    +0.000 OA
BRANCH  13  15
ATOM     15  C   UNL     1       0.777  10.129  19.078  0.00  0.00    +0.000 A 
ATOM     16  C   UNL     1      -0.317  10.774  18.503  0.00  0.00    +0.000 A 
ATOM     17  C   UNL     1      -1.289  11.364  19.315  0.00  0.00    +0.000 A 
ATOM     18  C   UNL     1      -1.142  11.341  20.724  0.00  0.00    +0.000 A 
ATOM     19  C   UNL     1      -0.014  10.717  21.302  0.00  0.00    +0.000 A 
ATOM     20  C   UNL     1       0.922  10.097  20.469  0.00  0.00    +0.000 A 
BRANCH  17  21
ATOM     21  O   UNL     1      -2.392  12.015  18.814  0.00  0.00    +0.000 OA
ATOM     22  C   UNL     1      -2.972  11.466  17.635  0.00  0.00    +0.000 C 
ENDBRANCH  17  21
BRANCH  18  23
ATOM     23  O   UNL     1      -2.114  12.019  21.427  0.00  0.00    +0.000 OA
ATOM     24  C   UNL     1      -1.835  13.373  21.765  0.00  0.00    +0.000 C 
ENDBRANCH  18  23
BRANCH  19  25
ATOM     25  O   UNL     1       0.138  10.786  22.662  0.00  0.00    +0.000 OA
ATOM     26  C   UNL     1      -0.033   9.593  23.420  0.00  0.00    +0.000 C 
ENDBRANCH  19  25
ENDBRANCH  13  15
ENDBRANCH   3  13
BRANCH   1  27
ATOM     27  C   UNL     1       4.725   5.551  17.782  0.00  0.00    +0.000 C 
BRANCH  27  29
ATOM     28  C   UNL     1       5.366   4.763  15.494  0.00  0.00    +0.000 C 
ATOM     29  C   UNL     1       4.408   4.564  16.659  0.00  0.00    +0.000 C 
ENDBRANCH  27  29
ENDBRANCH   1  27
TORSDOF 8
ENDMDL
MODEL 7
REMARK VINA RESULT:      -7.4      2.922      7.762
REMARK  Name = 
REMARK  12 active torsions:
REMARK  status: ('A' for Active; 'I' for Inactive)
REMARK    1  A    between atoms: C_1  and  C_2
REMARK    2  A    between atoms: C_2  and  C_3
REMARK    3  A    between atoms: C_3  and  C_4
REMARK    4  A    between atoms: C_6  and  C_7
REMARK    5  A    between atoms: C_7  and  C_9
REMARK    6  A    between atoms: C_11  and  O_12
REMARK    7  A    between atoms: O_12  and  C_13
REMARK    8  A    between atoms: C_14  and  O_15
REMARK    9  A    between atoms: O_15  and  C_16
REMARK   10  A    between atoms: C_17  and  O_18
REMARK   11  A    between atoms: O_18  and  C_19
REMARK   12  A    between atoms: C_22  and  C_23
REMARK                            x       y       z     vdW  Elec       q    Type
REMARK                         _______ _______ _______ _____ _____    ______ ____
ROOT
ATOM      1  C   UNL     1       3.416   6.424  17.910  0.00  0.00    +0.000 A 
ATOM      2  N   UNL     1       3.276   7.745  17.559  0.00  0.00    +0.000 N 
ATOM      3  C   UNL     1       2.268   8.292  18.306  0.00  0.00    +0.000 A 
ATOM      4  N   UNL     1       1.717   7.380  19.082  0.00  0.00    +0.000 NA
ATOM      5  C   UNL     1       2.411   6.212  18.845  0.00  0.00    +0.000 A 
ATOM      6  H   UNL     1       3.828   8.266  16.891  0.00  0.00    +0.000 HD
ENDROOT
BRANCH   5   7
ATOM      7  C   UNL     1       2.065   4.955  19.494  0.00  0.00    +0.000 A 
ATOM      8  C   UNL     1       2.382   4.759  20.849  0.00  0.00    +0.000 A 
ATOM      9  C   UNL     1       2.048   3.567  21.495  0.00  0.00    +0.000 A 
ATOM     10  C   UNL     1       1.392   2.554  20.797  0.00  0.00    +0.000 A 
ATOM     11  C   UNL     1       1.084   2.728  19.451  0.00  0.00    +0.000 A 
ATOM     12  C   UNL     1       1.430   3.915  18.803  0.00  0.00    +0.000 A 
ENDBRANCH   5   7
BRANCH   3  13
ATOM     13  C   UNL     1       1.882   9.683  18.221  0.00  0.00    +0.000 C 
ATOM     14  O   UNL     1       2.448  10.478  17.470  0.00  0.00    +0.000 OA
BRANCH  13  15
ATOM     15  C   UNL     1       0.813  10.200  19.118  0.00  0.00    +0.000 A 
ATOM     16  C   UNL     1      -0.289  10.840  18.554  0.00  0.00    +0.000 A 
ATOM     17  C   UNL     1      -1.269  11.402  19.376  0.00  0.00    +0.000 A 
ATOM     18  C   UNL     1      -1.123  11.356  20.784  0.00  0.00    +0.000 A 
ATOM     19  C   UNL     1       0.013  10.738  21.352  0.00  0.00    +0.000 A 
ATOM     20  C   UNL     1       0.958  10.146  20.508  0.00  0.00    +0.000 A 
BRANCH  17  21
ATOM     21  O   UNL     1      -2.381  12.046  18.885  0.00  0.00    +0.000 OA
ATOM     22  C   UNL     1      -3.217  11.294  18.012  0.00  0.00    +0.000 C 
ENDBRANCH  17  21
BRANCH  18  23
ATOM     23  O   UNL     1      -2.104  12.008  21.498  0.00  0.00    +0.000 OA
ATOM     24  C   UNL     1      -1.821  13.340  21.911  0.00  0.00    +0.000 C 
ENDBRANCH  18  23
BRANCH  19  25
ATOM     25  O   UNL     1       0.164  10.785  22.713  0.00  0.00    +0.000 OA
ATOM     26  C   UNL     1      -0.215   9.642  23.473  0.00  0.00    +0.000 C 
ENDBRANCH  19  25
ENDBRANCH  13  15
ENDBRANCH   3  13
BRANCH   1  27
ATOM     27  C   UNL     1       4.432   5.510  17.307  0.00  0.00    +0.000 C 
BRANCH  27  29
ATOM     28  C   UNL     1       5.993   5.257  19.247  0.00  0.00    +0.000 C 
ATOM     29  C   UNL     1       5.865   5.707  17.800  0.00  0.00    +0.000 C 
ENDBRANCH  27  29
ENDBRANCH   1  27
TORSDOF 8
ENDMDL
MODEL 8
REMARK VINA RESULT:      -7.3      1.060      3.504
REMARK  Name = 
REMARK  12 active torsions:
REMARK  status: ('A' for Active; 'I' for Inactive)
REMARK    1  A    between atoms: C_1  and  C_2
REMARK    2  A    between atoms: C_2  and  C_3
REMARK    3  A    between atoms: C_3  and  C_4
REMARK    4  A    between atoms: C_6  and  C_7
REMARK    5  A    between atoms: C_7  and  C_9
REMARK    6  A    between atoms: C_11  and  O_12
REMARK    7  A    between atoms: O_12  and  C_13
REMARK    8  A    between atoms: C_14  and  O_15
REMARK    9  A    between atoms: O_15  and  C_16
REMARK   10  A    between atoms: C_17  and  O_18
REMARK   11  A    between atoms: O_18  and  C_19
REMARK   12  A    between atoms: C_22  and  C_23
REMARK                            x       y       z     vdW  Elec       q    Type
REMARK                         _______ _______ _______ _____ _____    ______ ____
ROOT
ATOM      1  C   UNL     1       1.269   8.904  20.569  0.00  0.00    +0.000 A 
ATOM      2  N   UNL     1       2.046   7.980  19.914  0.00  0.00    +0.000 N 
ATOM      3  C   UNL     1       2.146   8.345  18.599  0.00  0.00    +0.000 A 
ATOM      4  N   UNL     1       1.432   9.427  18.361  0.00  0.00    +0.000 NA
ATOM      5  C   UNL     1       0.873   9.785  19.571  0.00  0.00    +0.000 A 
ATOM      6  H   UNL     1       2.508   7.173  20.311  0.00  0.00    +0.000 HD
ENDROOT
BRANCH   5   7
ATOM      7  C   UNL     1      -0.026  10.922  19.707  0.00  0.00    +0.000 A 
ATOM      8  C   UNL     1       0.415  12.088  20.354  0.00  0.00    +0.000 A 
ATOM      9  C   UNL     1      -0.425  13.195  20.484  0.00  0.00    +0.000 A 
ATOM     10  C   UNL     1      -1.720  13.153  19.969  0.00  0.00    +0.000 A 
ATOM     11  C   UNL     1      -2.177  12.000  19.338  0.00  0.00    +0.000 A 
ATOM     12  C   UNL     1      -1.339  10.890  19.220  0.00  0.00    +0.000 A 
ENDBRANCH   5   7
BRANCH   3  13
ATOM     13  C   UNL     1       2.930   7.613  17.629  0.00  0.00    +0.000 C 
ATOM     14  O   UNL     1       3.241   8.093  16.539  0.00  0.00    +0.000 OA
BRANCH  13  15
ATOM     15  C   UNL     1       3.319   6.206  17.917  0.00  0.00    +0.000 A 
ATOM     16  C   UNL     1       2.316   5.252  18.091  0.00  0.00    +0.000 A 
ATOM     17  C   UNL     1       2.650   3.940  18.437  0.00  0.00    +0.000 A 
ATOM     18  C   UNL     1       4.006   3.588  18.650  0.00  0.00    +0.000 A 
ATOM     19  C   UNL     1       5.015   4.566  18.508  0.00  0.00    +0.000 A 
ATOM     20  C   UNL     1       4.659   5.860  18.120  0.00  0.00    +0.000 A 
BRANCH  17  21
ATOM     21  O   UNL     1       1.712   2.951  18.622  0.00  0.00    +0.000 OA
ATOM     22  C   UNL     1       0.824   3.117  19.723  0.00  0.00    +0.000 C 
ENDBRANCH  17  21
BRANCH  18  23
ATOM     23  O   UNL     1       4.217   2.291  19.064  0.00  0.00    +0.000 OA
ATOM     24  C   UNL     1       4.381   2.082  20.462  0.00  0.00    +0.000 C 
ENDBRANCH  18  23
BRANCH  19  25
ATOM     25  O   UNL     1       6.306   4.212  18.803  0.00  0.00    +0.000 OA
ATOM     26  C   UNL     1       7.354   5.082  18.392  0.00  0.00    +0.000 C 
ENDBRANCH  19  25
ENDBRANCH  13  15
ENDBRANCH   3  13
BRANCH   1  27
ATOM     27  C   UNL     1       0.951   8.835  22.027  0.00  0.00    +0.000 C 
BRANCH  27  29
ATOM     28  C   UNL     1      -0.821  10.138  23.223  0.00  0.00    +0.000 C 
ATOM     29  C   UNL     1      -0.535   8.907  22.377  0.00  0.00    +0.000 C 
ENDBRANCH  27  29
ENDBRANCH   1  27
TORSDOF 8
ENDMDL
MODEL 9
REMARK VINA RESULT:      -7.3      3.489      8.331
REMARK  Name = 
REMARK  12 active torsions:
REMARK  status: ('A' for Active; 'I' for Inactive)
REMARK    1  A    between atoms: C_1  and  C_2
REMARK    2  A    between atoms: C_2  and  C_3
REMARK    3  A    between atoms: C_3  and  C_4
REMARK    4  A    between atoms: C_6  and  C_7
REMARK    5  A    between atoms: C_7  and  C_9
REMARK    6  A    between atoms: C_11  and  O_12
REMARK    7  A    between atoms: O_12  and  C_13
REMARK    8  A    between atoms: C_14  and  O_15
REMARK    9  A    between atoms: O_15  and  C_16
REMARK   10  A    between atoms: C_17  and  O_18
REMARK   11  A    between atoms: O_18  and  C_19
REMARK   12  A    between atoms: C_22  and  C_23
REMARK                            x       y       z     vdW  Elec       q    Type
REMARK                         _______ _______ _______ _____ _____    ______ ____
ROOT
ATOM      1  C   UNL     1       2.239   7.076  19.663  0.00  0.00    +0.000 A 
ATOM      2  N   UNL     1       1.607   8.278  19.869  0.00  0.00    +0.000 N 
ATOM      3  C   UNL     1       1.667   9.008  18.713  0.00  0.00    +0.000 A 
ATOM      4  N   UNL     1       2.350   8.361  17.790  0.00  0.00    +0.000 NA
ATOM      5  C   UNL     1       2.720   7.162  18.363  0.00  0.00    +0.000 A 
ATOM      6  H   UNL     1       1.137   8.591  20.709  0.00  0.00    +0.000 HD
ENDROOT
BRANCH   5   7
ATOM      7  C   UNL     1       3.532   6.180  17.659  0.00  0.00    +0.000 A 
ATOM      8  C   UNL     1       3.127   4.836  17.622  0.00  0.00    +0.000 A 
ATOM      9  C   UNL     1       3.883   3.880  16.942  0.00  0.00    +0.000 A 
ATOM     10  C   UNL     1       5.055   4.254  16.287  0.00  0.00    +0.000 A 
ATOM     11  C   UNL     1       5.479   5.579  16.327  0.00  0.00    +0.000 A 
ATOM     12  C   UNL     1       4.728   6.531  17.018  0.00  0.00    +0.000 A 
ENDBRANCH   5   7
BRANCH   3  13
ATOM     13  C   UNL     1       1.061  10.313  18.566  0.00  0.00    +0.000 C 
ATOM     14  O   UNL     1       1.725  11.350  18.567  0.00  0.00    +0.000 OA
BRANCH  13  15
ATOM     15  C   UNL     1      -0.420  10.424  18.481  0.00  0.00    +0.000 A 
ATOM     16  C   UNL     1      -1.076   9.868  17.383  0.00  0.00    +0.000 A 
ATOM     17  C   UNL     1      -2.457  10.024  17.239  0.00  0.00    +0.000 A 
ATOM     18  C   UNL     1      -3.186  10.781  18.188  0.00  0.00    +0.000 A 
ATOM     19  C   UNL     1      -2.512  11.373  19.280  0.00  0.00    +0.000 A 
ATOM     20  C   UNL     1      -1.137  11.167  19.424  0.00  0.00    +0.000 A 
BRANCH  17  21
ATOM     21  O   UNL     1      -3.165   9.501  16.182  0.00  0.00    +0.000 OA
ATOM     22  C   UNL     1      -2.867  10.029  14.894  0.00  0.00    +0.000 C 
ENDBRANCH  17  21
BRANCH  18  23
ATOM     23  O   UNL     1      -4.526  10.939  17.910  0.00  0.00    +0.000 OA
ATOM     24  C   UNL     1      -4.882  12.022  17.059  0.00  0.00    +0.000 C 
ENDBRANCH  18  23
BRANCH  19  25
ATOM     25  O   UNL     1      -3.234  12.168  20.132  0.00  0.00    +0.000 OA
ATOM     26  C   UNL     1      -2.718  13.456  20.452  0.00  0.00    +0.000 C 
ENDBRANCH  19  25
ENDBRANCH  13  15
ENDBRANCH   3  13
BRANCH   1  27
ATOM     27  C   UNL     1       2.359   6.014  20.706  0.00  0.00    +0.000 C 
BRANCH  27  29
ATOM     28  C   UNL     1       1.923   3.560  20.943  0.00  0.00    +0.000 C 
ATOM     29  C   UNL     1       1.298   4.915  20.647  0.00  0.00    +0.000 C 
ENDBRANCH  27  29
ENDBRANCH   1  27
TORSDOF 8
ENDMDL
