MODEL 1
REMARK VINA RESULT:      -8.2      0.000      0.000
REMARK  Name = 
REMARK  7 active torsions:
REMARK  status: ('A' for Active; 'I' for Inactive)
REMARK    1  A    between atoms: C_1  and  O_2
REMARK    2  A    between atoms: O_2  and  C_3
REMARK    3  A    between atoms: C_9  and  C_10
REMARK    4  A    between atoms: N_19  and  C_20
REMARK    5  A    between atoms: C_20  and  C_21
REMARK    6  A    between atoms: C_24  and  S_25
REMARK    7  A    between atoms: N_26  and  N_27
REMARK                            x       y       z     vdW  Elec       q    Type
REMARK                         _______ _______ _______ _____ _____    ______ ____
ROOT
ATOM      1  C   UNL     1       1.974   3.525  17.979  0.00  0.00    +0.000 A 
ATOM      2  C   UNL     1       3.083   2.761  17.640  0.00  0.00    +0.000 A 
ATOM      3  C   UNL     1       4.317   3.378  17.410  0.00  0.00    +0.000 A 
ATOM      4  C   UNL     1       4.470   4.769  17.520  0.00  0.00    +0.000 A 
ATOM      5  C   UNL     1       3.350   5.540  17.884  0.00  0.00    +0.000 A 
ATOM      6  C   UNL     1       2.110   4.909  18.085  0.00  0.00    +0.000 A 
ATOM      7  C   UNL     1       3.478   7.001  18.063  0.00  0.00    +0.000 A 
ATOM      8  C   UNL     1       4.662   7.570  17.788  0.00  0.00    +0.000 A 
ATOM      9  C   UNL     1       5.824   6.803  17.298  0.00  0.00    +0.000 A 
ATOM     10  O   UNL     1       6.830   7.423  16.950  0.00  0.00    +0.000 OA
ATOM     11  N   UNL     1       5.716   5.423  17.249  0.00  0.00    +0.000 N 
ENDROOT
BRANCH   7  12
ATOM     12  C   UNL     1       2.421   7.914  18.546  0.00  0.00    +0.000 A 
ATOM     13  C   UNL     1       2.018   7.881  19.887  0.00  0.00    +0.000 A 
ATOM     14  C   UNL     1       1.023   8.747  20.345  0.00  0.00    +0.000 A 
ATOM     15  C   UNL     1       0.423   9.650  19.466  0.00  0.00    +0.000 A 
ATOM     16  C   UNL     1       0.818   9.687  18.129  0.00  0.00    +0.000 A 
ATOM     17  C   UNL     1       1.814   8.823  17.669  0.00  0.00    +0.000 A 
ENDBRANCH   7  12
BRANCH   1  19
ATOM     18  C   UNL     1       0.565   2.173  19.308  0.00  0.00    +0.000 C 
ATOM     19  O   UNL     1       0.713   3.041  18.191  0.00  0.00    +0.000 OA
ENDBRANCH   1  19
BRANCH  11  20
ATOM     20  C   UNL     1       6.899   4.670  16.820  0.00  0.00    +0.000 C 
BRANCH  20  21
ATOM     21  C   UNL     1       7.057   4.738  15.341  0.00  0.00    +0.000 A 
ATOM     22  N   UNL     1       7.773   5.622  14.665  0.00  0.00    +0.000 NA
ATOM     23  N   UNL     1       7.716   5.294  13.329  0.00  0.00    +0.000 NA
ATOM     24  C   UNL     1       6.951   4.234  13.221  0.00  0.00    +0.000 A 
ATOM     25  N   UNL     1       6.471   3.867  14.452  0.00  0.00    +0.000 N 
BRANCH  25  26
ATOM     26  N   UNL     1       5.544   2.816  14.751  0.00  0.00    +0.000 N 
ATOM     27  H   UNL     1       4.711   3.187  15.207  0.00  0.00    +0.000 HD
ATOM     28  H   UNL     1       5.196   2.368  13.893  0.00  0.00    +0.000 HD
ENDBRANCH  25  26
BRANCH  24  29
ATOM     29  S   UNL     1       6.614   3.373  11.764  0.00  0.00    +0.000 S 
ATOM     30  H   UNL     1       5.623   4.173  11.343  0.00  0.00    +0.000 HD
ENDBRANCH  24  29
ENDBRANCH  20  21
ENDBRANCH  11  20
TORSDOF 6
ENDMDL
MODEL 2
REMARK VINA RESULT:      -8.0      0.806      1.230
REMARK  Name = 
REMARK  7 active torsions:
REMARK  status: ('A' for Active; 'I' for Inactive)
REMARK    1  A    between atoms: C_1  and  O_2
REMARK    2  A    between atoms: O_2  and  C_3
REMARK    3  A    between atoms: C_9  and  C_10
REMARK    4  A    between atoms: N_19  and  C_20
REMARK    5  A    between atoms: C_20  and  C_21
REMARK    6  A    between atoms: C_24  and  S_25
REMARK    7  A    between atoms: N_26  and  N_27
REMARK                            x       y       z     vdW  Elec       q    Type
REMARK                         _______ _______ _______ _____ _____    ______ ____
ROOT
ATOM      1  C   UNL     1       2.343   3.561  19.349  0.00  0.00    +0.000 A 
ATOM      2  C   UNL     1       3.481   2.839  19.021  0.00  0.00    +0.000 A 
ATOM      3  C   UNL     1       4.581   3.484  18.444  0.00  0.00    +0.000 A 
ATOM      4  C   UNL     1       4.567   4.864  18.190  0.00  0.00    +0.000 A 
ATOM      5  C   UNL     1       3.420   5.600  18.543  0.00  0.00    +0.000 A 
ATOM      6  C   UNL     1       2.312   4.933  19.096  0.00  0.00    +0.000 A 
ATOM      7  C   UNL     1       3.382   7.063  18.343  0.00  0.00    +0.000 A 
ATOM      8  C   UNL     1       4.431   7.646  17.743  0.00  0.00    +0.000 A 
ATOM      9  C   UNL     1       5.602   6.886  17.262  0.00  0.00    +0.000 A 
ATOM     10  O   UNL     1       6.460   7.484  16.611  0.00  0.00    +0.000 OA
ATOM     11  N   UNL     1       5.667   5.536  17.564  0.00  0.00    +0.000 N 
ENDROOT
BRANCH   7  12
ATOM     12  C   UNL     1       2.294   7.971  18.765  0.00  0.00    +0.000 A 
ATOM     13  C   UNL     1       1.667   8.804  17.829  0.00  0.00    +0.000 A 
ATOM     14  C   UNL     1       0.636   9.658  18.227  0.00  0.00    +0.000 A 
ATOM     15  C   UNL     1       0.226   9.686  19.560  0.00  0.00    +0.000 A 
ATOM     16  C   UNL     1       0.847   8.860  20.497  0.00  0.00    +0.000 A 
ATOM     17  C   UNL     1       1.877   8.004  20.102  0.00  0.00    +0.000 A 
ENDBRANCH   7  12
BRANCH   1  19
ATOM     18  C   UNL     1       1.210   2.825  21.287  0.00  0.00    +0.000 C 
ATOM     19  O   UNL     1       1.197   3.037  19.880  0.00  0.00    +0.000 OA
ENDBRANCH   1  19
BRANCH  11  20
ATOM     20  C   UNL     1       6.865   4.808  17.134  0.00  0.00    +0.000 C 
BRANCH  20  21
ATOM     21  C   UNL     1       6.942   4.753  15.648  0.00  0.00    +0.000 A 
ATOM     22  N   UNL     1       7.617   5.578  14.864  0.00  0.00    +0.000 NA
ATOM     23  N   UNL     1       7.489   5.141  13.564  0.00  0.00    +0.000 NA
ATOM     24  C   UNL     1       6.722   4.076  13.586  0.00  0.00    +0.000 A 
ATOM     25  N   UNL     1       6.311   3.813  14.868  0.00  0.00    +0.000 N 
BRANCH  25  26
ATOM     26  N   UNL     1       5.405   2.792  15.302  0.00  0.00    +0.000 N 
ATOM     27  H   UNL     1       4.917   2.379  14.508  0.00  0.00    +0.000 HD
ATOM     28  H   UNL     1       5.906   2.006  15.739  0.00  0.00    +0.000 HD
ENDBRANCH  25  26
BRANCH  24  29
ATOM     29  S   UNL     1       6.309   3.099  12.225  0.00  0.00    +0.000 S 
ATOM     30  H   UNL     1       7.491   2.472  12.126  0.00  0.00    +0.000 HD
ENDBRANCH  24  29
ENDBRANCH  20  21
ENDBRANCH  11  20
TORSDOF 6
ENDMDL
MODEL 3
REMARK VINA RESULT:      -7.9      1.027      1.508
REMARK  Name = 
REMARK  7 active torsions:
REMARK  status: ('A' for Active; 'I' for Inactive)
REMARK    1  A    between atoms: C_1  and  O_2
REMARK    2  A    between atoms: O_2  and  C_3
REMARK    3  A    between atoms: C_9  and  C_10
REMARK    4  A    between atoms: N_19  and  C_20
REMARK    5  A    between atoms: C_20  and  C_21
REMARK    6  A    between atoms: C_24  and  S_25
REMARK    7  A    between atoms: N_26  and  N_27
REMARK                            x       y       z     vdW  Elec       q    Type
REMARK                         _______ _______ _______ _____ _____    ______ ____
ROOT
ATOM      1  C   UNL     1       2.283   3.628  19.687  0.00  0.00    +0.000 A 
ATOM      2  C   UNL     1       3.381   2.859  19.326  0.00  0.00    +0.000 A 
ATOM      3  C   UNL     1       4.435   3.434  18.607  0.00  0.00    +0.000 A 
ATOM      4  C   UNL     1       4.417   4.789  18.242  0.00  0.00    +0.000 A 
ATOM      5  C   UNL     1       3.313   5.572  18.627  0.00  0.00    +0.000 A 
ATOM      6  C   UNL     1       2.248   4.975  19.325  0.00  0.00    +0.000 A 
ATOM      7  C   UNL     1       3.277   7.015  18.310  0.00  0.00    +0.000 A 
ATOM      8  C   UNL     1       4.278   7.527  17.578  0.00  0.00    +0.000 A 
ATOM      9  C   UNL     1       5.394   6.707  17.065  0.00  0.00    +0.000 A 
ATOM     10  O   UNL     1       6.201   7.233  16.297  0.00  0.00    +0.000 OA
ATOM     11  N   UNL     1       5.468   5.386  17.472  0.00  0.00    +0.000 N 
ENDROOT
BRANCH   7  12
ATOM     12  C   UNL     1       2.240   7.975  18.744  0.00  0.00    +0.000 A 
ATOM     13  C   UNL     1       1.862   8.045  20.091  0.00  0.00    +0.000 A 
ATOM     14  C   UNL     1       0.887   8.956  20.502  0.00  0.00    +0.000 A 
ATOM     15  C   UNL     1       0.282   9.801  19.571  0.00  0.00    +0.000 A 
ATOM     16  C   UNL     1       0.652   9.736  18.228  0.00  0.00    +0.000 A 
ATOM     17  C   UNL     1       1.629   8.827  17.814  0.00  0.00    +0.000 A 
ENDBRANCH   7  12
BRANCH   1  19
ATOM     18  C   UNL     1       1.419   2.650  21.656  0.00  0.00    +0.000 C 
ATOM     19  O   UNL     1       1.181   3.172  20.354  0.00  0.00    +0.000 OA
ENDBRANCH   1  19
BRANCH  11  20
ATOM     20  C   UNL     1       6.616   4.601  17.006  0.00  0.00    +0.000 C 
BRANCH  20  21
ATOM     21  C   UNL     1       6.417   4.165  15.596  0.00  0.00    +0.000 A 
ATOM     22  N   UNL     1       5.564   3.249  15.168  0.00  0.00    +0.000 NA
ATOM     23  N   UNL     1       5.639   3.197  13.793  0.00  0.00    +0.000 NA
ATOM     24  C   UNL     1       6.549   4.066  13.421  0.00  0.00    +0.000 A 
ATOM     25  N   UNL     1       7.105   4.672  14.518  0.00  0.00    +0.000 N 
BRANCH  25  26
ATOM     26  N   UNL     1       8.182   5.616  14.542  0.00  0.00    +0.000 N 
ATOM     27  H   UNL     1       8.181   6.189  13.699  0.00  0.00    +0.000 HD
ATOM     28  H   UNL     1       8.077   6.287  15.315  0.00  0.00    +0.000 HD
ENDBRANCH  25  26
BRANCH  24  29
ATOM     29  S   UNL     1       6.977   4.447  11.793  0.00  0.00    +0.000 S 
ATOM     30  H   UNL     1       8.153   5.026  12.078  0.00  0.00    +0.000 HD
ENDBRANCH  24  29
ENDBRANCH  20  21
ENDBRANCH  11  20
TORSDOF 6
ENDMDL
MODEL 4
REMARK VINA RESULT:      -7.7      7.550     10.684
REMARK  Name = 
REMARK  7 active torsions:
REMARK  status: ('A' for Active; 'I' for Inactive)
REMARK    1  A    between atoms: C_1  and  O_2
REMARK    2  A    between atoms: O_2  and  C_3
REMARK    3  A    between atoms: C_9  and  C_10
REMARK    4  A    between atoms: N_19  and  C_20
REMARK    5  A    between atoms: C_20  and  C_21
REMARK    6  A    between atoms: C_24  and  S_25
REMARK    7  A    between atoms: N_26  and  N_27
REMARK                            x       y       z     vdW  Elec       q    Type
REMARK                         _______ _______ _______ _____ _____    ______ ____
ROOT
ATOM      1  C   UNL     1      -2.320  10.216  16.791  0.00  0.00    +0.000 A 
ATOM      2  C   UNL     1      -3.020  11.363  17.139  0.00  0.00    +0.000 A 
ATOM      3  C   UNL     1      -2.621  12.120  18.246  0.00  0.00    +0.000 A 
ATOM      4  C   UNL     1      -1.511  11.751  19.022  0.00  0.00    +0.000 A 
ATOM      5  C   UNL     1      -0.790  10.599  18.656  0.00  0.00    +0.000 A 
ATOM      6  C   UNL     1      -1.219   9.832  17.558  0.00  0.00    +0.000 A 
ATOM      7  C   UNL     1       0.416  10.203  19.412  0.00  0.00    +0.000 A 
ATOM      8  C   UNL     1       0.746  10.921  20.497  0.00  0.00    +0.000 A 
ATOM      9  C   UNL     1      -0.055  12.068  20.971  0.00  0.00    +0.000 A 
ATOM     10  O   UNL     1       0.249  12.589  22.046  0.00  0.00    +0.000 OA
ATOM     11  N   UNL     1      -1.111  12.491  20.182  0.00  0.00    +0.000 N 
ENDROOT
BRANCH   7  12
ATOM     12  C   UNL     1       1.327   9.088  19.076  0.00  0.00    +0.000 A 
ATOM     13  C   UNL     1       1.522   8.039  19.982  0.00  0.00    +0.000 A 
ATOM     14  C   UNL     1       2.379   6.983  19.662  0.00  0.00    +0.000 A 
ATOM     15  C   UNL     1       3.046   6.971  18.437  0.00  0.00    +0.000 A 
ATOM     16  C   UNL     1       2.857   8.013  17.530  0.00  0.00    +0.000 A 
ATOM     17  C   UNL     1       2.000   9.069  17.847  0.00  0.00    +0.000 A 
ENDBRANCH   7  12
BRANCH   1  19
ATOM     18  C   UNL     1      -3.058  10.011  14.557  0.00  0.00    +0.000 C 
ATOM     19  O   UNL     1      -2.635   9.378  15.758  0.00  0.00    +0.000 OA
ENDBRANCH   1  19
BRANCH  11  20
ATOM     20  C   UNL     1      -1.857  13.670  20.634  0.00  0.00    +0.000 C 
BRANCH  20  21
ATOM     21  C   UNL     1      -2.991  13.270  21.513  0.00  0.00    +0.000 A 
ATOM     22  N   UNL     1      -4.170  12.816  21.120  0.00  0.00    +0.000 NA
ATOM     23  N   UNL     1      -4.903  12.492  22.240  0.00  0.00    +0.000 NA
ATOM     24  C   UNL     1      -4.162  12.777  23.285  0.00  0.00    +0.000 A 
ATOM     25  N   UNL     1      -2.964  13.313  22.888  0.00  0.00    +0.000 N 
BRANCH  25  26
ATOM     26  N   UNL     1      -1.917  13.825  23.720  0.00  0.00    +0.000 N 
ATOM     27  H   UNL     1      -1.391  14.551  23.234  0.00  0.00    +0.000 HD
ATOM     28  H   UNL     1      -2.295  14.290  24.556  0.00  0.00    +0.000 HD
ENDBRANCH  25  26
BRANCH  24  29
ATOM     29  S   UNL     1      -4.585  12.488  24.933  0.00  0.00    +0.000 S 
ATOM     30  H   UNL     1      -4.388  13.744  25.361  0.00  0.00    +0.000 HD
ENDBRANCH  24  29
ENDBRANCH  20  21
ENDBRANCH  11  20
TORSDOF 6
ENDMDL
MODEL 5
REMARK VINA RESULT:      -7.6      7.907     11.072
REMARK  Name = 
REMARK  7 active torsions:
REMARK  status: ('A' for Active; 'I' for Inactive)
REMARK    1  A    between atoms: C_1  and  O_2
REMARK    2  A    between atoms: O_2  and  C_3
REMARK    3  A    between atoms: C_9  and  C_10
REMARK    4  A    between atoms: N_19  and  C_20
REMARK    5  A    between atoms: C_20  and  C_21
REMARK    6  A    between atoms: C_24  and  S_25
REMARK    7  A    between atoms: N_26  and  N_27
REMARK                            x       y       z     vdW  Elec       q    Type
REMARK                         _______ _______ _______ _____ _____    ______ ____
ROOT
ATOM      1  C   UNL     1      -2.731  10.408  17.396  0.00  0.00    +0.000 A 
ATOM      2  C   UNL     1      -3.461  11.491  17.868  0.00  0.00    +0.000 A 
ATOM      3  C   UNL     1      -3.040  12.176  19.013  0.00  0.00    +0.000 A 
ATOM      4  C   UNL     1      -1.880  11.797  19.706  0.00  0.00    +0.000 A 
ATOM      5  C   UNL     1      -1.130  10.711  19.215  0.00  0.00    +0.000 A 
ATOM      6  C   UNL     1      -1.580  10.015  18.079  0.00  0.00    +0.000 A 
ATOM      7  C   UNL     1       0.126  10.312  19.882  0.00  0.00    +0.000 A 
ATOM      8  C   UNL     1       0.478  10.955  21.005  0.00  0.00    +0.000 A 
ATOM      9  C   UNL     1      -0.345  12.024  21.606  0.00  0.00    +0.000 A 
ATOM     10  O   UNL     1      -0.011  12.471  22.705  0.00  0.00    +0.000 OA
ATOM     11  N   UNL     1      -1.455  12.460  20.902  0.00  0.00    +0.000 N 
ENDROOT
BRANCH   7  12
ATOM     12  C   UNL     1       1.065   9.269  19.415  0.00  0.00    +0.000 A 
ATOM     13  C   UNL     1       1.389   8.188  20.245  0.00  0.00    +0.000 A 
ATOM     14  C   UNL     1       2.272   7.201  19.803  0.00  0.00    +0.000 A 
ATOM     15  C   UNL     1       2.837   7.288  18.530  0.00  0.00    +0.000 A 
ATOM     16  C   UNL     1       2.521   8.362  17.699  0.00  0.00    +0.000 A 
ATOM     17  C   UNL     1       1.637   9.350  18.138  0.00  0.00    +0.000 A 
ENDBRANCH   7  12
BRANCH   1  19
ATOM     18  C   UNL     1      -3.078  10.315  15.061  0.00  0.00    +0.000 C 
ATOM     19  O   UNL     1      -3.062   9.641  16.314  0.00  0.00    +0.000 OA
ENDBRANCH   1  19
BRANCH  11  20
ATOM     20  C   UNL     1      -2.227  13.565  21.481  0.00  0.00    +0.000 C 
BRANCH  20  21
ATOM     21  C   UNL     1      -3.293  13.045  22.382  0.00  0.00    +0.000 A 
ATOM     22  N   UNL     1      -3.121  12.277  23.445  0.00  0.00    +0.000 NA
ATOM     23  N   UNL     1      -4.347  12.083  24.041  0.00  0.00    +0.000 NA
ATOM     24  C   UNL     1      -5.237  12.717  23.315  0.00  0.00    +0.000 A 
ATOM     25  N   UNL     1      -4.636  13.304  22.231  0.00  0.00    +0.000 N 
BRANCH  25  26
ATOM     26  N   UNL     1      -5.267  14.017  21.162  0.00  0.00    +0.000 N 
ATOM     27  H   UNL     1      -5.270  15.020  21.347  0.00  0.00    +0.000 HD
ATOM     28  H   UNL     1      -4.744  13.915  20.282  0.00  0.00    +0.000 HD
ENDBRANCH  25  26
BRANCH  24  29
ATOM     29  S   UNL     1      -6.920  12.853  23.670  0.00  0.00    +0.000 S 
ATOM     30  H   UNL     1      -7.133  11.547  23.889  0.00  0.00    +0.000 HD
ENDBRANCH  24  29
ENDBRANCH  20  21
ENDBRANCH  11  20
TORSDOF 6
ENDMDL
MODEL 6
REMARK VINA RESULT:      -7.5      7.825     10.989
REMARK  Name = 
REMARK  7 active torsions:
REMARK  status: ('A' for Active; 'I' for Inactive)
REMARK    1  A    between atoms: C_1  and  O_2
REMARK    2  A    between atoms: O_2  and  C_3
REMARK    3  A    between atoms: C_9  and  C_10
REMARK    4  A    between atoms: N_19  and  C_20
REMARK    5  A    between atoms: C_20  and  C_21
REMARK    6  A    between atoms: C_24  and  S_25
REMARK    7  A    between atoms: N_26  and  N_27
REMARK                            x       y       z     vdW  Elec       q    Type
REMARK                         _______ _______ _______ _____ _____    ______ ____
ROOT
ATOM      1  C   UNL     1      -2.480  10.373  17.098  0.00  0.00    +0.000 A 
ATOM      2  C   UNL     1      -3.196  11.499  17.481  0.00  0.00    +0.000 A 
ATOM      3  C   UNL     1      -2.834  12.202  18.635  0.00  0.00    +0.000 A 
ATOM      4  C   UNL     1      -1.746  11.798  19.425  0.00  0.00    +0.000 A 
ATOM      5  C   UNL     1      -1.008  10.669  19.024  0.00  0.00    +0.000 A 
ATOM      6  C   UNL     1      -1.401   9.956  17.876  0.00  0.00    +0.000 A 
ATOM      7  C   UNL     1       0.176  10.240  19.795  0.00  0.00    +0.000 A 
ATOM      8  C   UNL     1       0.470  10.903  20.924  0.00  0.00    +0.000 A 
ATOM      9  C   UNL     1      -0.349  12.023  21.430  0.00  0.00    +0.000 A 
ATOM     10  O   UNL     1      -0.080  12.491  22.538  0.00  0.00    +0.000 OA
ATOM     11  N   UNL     1      -1.384  12.481  20.631  0.00  0.00    +0.000 N 
ENDROOT
BRANCH   7  12
ATOM     12  C   UNL     1       1.102   9.146  19.431  0.00  0.00    +0.000 A 
ATOM     13  C   UNL     1       1.734   9.143  18.181  0.00  0.00    +0.000 A 
ATOM     14  C   UNL     1       2.613   8.112  17.840  0.00  0.00    +0.000 A 
ATOM     15  C   UNL     1       2.864   7.079  18.743  0.00  0.00    +0.000 A 
ATOM     16  C   UNL     1       2.237   7.076  19.989  0.00  0.00    +0.000 A 
ATOM     17  C   UNL     1       1.359   8.105  20.334  0.00  0.00    +0.000 A 
ENDBRANCH   7  12
BRANCH   1  19
ATOM     18  C   UNL     1      -3.105  10.279  14.821  0.00  0.00    +0.000 C 
ATOM     19  O   UNL     1      -2.761   9.587  16.015  0.00  0.00    +0.000 OA
ENDBRANCH   1  19
BRANCH  11  20
ATOM     20  C   UNL     1      -2.149  13.634  21.119  0.00  0.00    +0.000 C 
BRANCH  20  21
ATOM     21  C   UNL     1      -3.433  13.191  21.731  0.00  0.00    +0.000 A 
ATOM     22  N   UNL     1      -3.573  12.378  22.764  0.00  0.00    +0.000 NA
ATOM     23  N   UNL     1      -4.915  12.283  23.061  0.00  0.00    +0.000 NA
ATOM     24  C   UNL     1      -5.559  13.023  22.189  0.00  0.00    +0.000 A 
ATOM     25  N   UNL     1      -4.679  13.582  21.298  0.00  0.00    +0.000 N 
BRANCH  25  26
ATOM     26  N   UNL     1      -4.987  14.385  20.153  0.00  0.00    +0.000 N 
ATOM     27  H   UNL     1      -5.411  13.819  19.417  0.00  0.00    +0.000 HD
ATOM     28  H   UNL     1      -5.694  15.099  20.374  0.00  0.00    +0.000 HD
ENDBRANCH  25  26
BRANCH  24  29
ATOM     29  S   UNL     1      -7.260  13.308  22.165  0.00  0.00    +0.000 S 
ATOM     30  H   UNL     1      -7.603  12.126  21.630  0.00  0.00    +0.000 HD
ENDBRANCH  24  29
ENDBRANCH  20  21
ENDBRANCH  11  20
TORSDOF 6
ENDMDL
MODEL 7
REMARK VINA RESULT:      -7.2      7.554     10.634
REMARK  Name = 
REMARK  7 active torsions:
REMARK  status: ('A' for Active; 'I' for Inactive)
REMARK    1  A    between atoms: C_1  and  O_2
REMARK    2  A    between atoms: O_2  and  C_3
REMARK    3  A    between atoms: C_9  and  C_10
REMARK    4  A    between atoms: N_19  and  C_20
REMARK    5  A    between atoms: C_20  and  C_21
REMARK    6  A    between atoms: C_24  and  S_25
REMARK    7  A    between atoms: N_26  and  N_27
REMARK                            x       y       z     vdW  Elec       q    Type
REMARK                         _______ _______ _______ _____ _____    ______ ____
ROOT
ATOM      1  C   UNL     1      -2.218  10.486  17.004  0.00  0.00    +0.000 A 
ATOM      2  C   UNL     1      -3.015  11.489  17.539  0.00  0.00    +0.000 A 
ATOM      3  C   UNL     1      -2.781  11.953  18.838  0.00  0.00    +0.000 A 
ATOM      4  C   UNL     1      -1.743  11.431  19.625  0.00  0.00    +0.000 A 
ATOM      5  C   UNL     1      -0.923  10.429  19.074  0.00  0.00    +0.000 A 
ATOM      6  C   UNL     1      -1.187   9.952  17.777  0.00  0.00    +0.000 A 
ATOM      7  C   UNL     1       0.214   9.888  19.847  0.00  0.00    +0.000 A 
ATOM      8  C   UNL     1       0.384  10.318  21.106  0.00  0.00    +0.000 A 
ATOM      9  C   UNL     1      -0.526  11.286  21.750  0.00  0.00    +0.000 A 
ATOM     10  O   UNL     1      -0.370  11.528  22.949  0.00  0.00    +0.000 OA
ATOM     11  N   UNL     1      -1.513  11.866  20.970  0.00  0.00    +0.000 N 
ENDROOT
BRANCH   7  12
ATOM     12  C   UNL     1       1.217   8.919  19.356  0.00  0.00    +0.000 A 
ATOM     13  C   UNL     1       1.845   9.118  18.120  0.00  0.00    +0.000 A 
ATOM     14  C   UNL     1       2.796   8.205  17.658  0.00  0.00    +0.000 A 
ATOM     15  C   UNL     1       3.125   7.089  18.428  0.00  0.00    +0.000 A 
ATOM     16  C   UNL     1       2.503   6.884  19.660  0.00  0.00    +0.000 A 
ATOM     17  C   UNL     1       1.553   7.796  20.124  0.00  0.00    +0.000 A 
ENDBRANCH   7  12
BRANCH   1  19
ATOM     18  C   UNL     1      -3.469  10.413  15.001  0.00  0.00    +0.000 C 
ATOM     19  O   UNL     1      -2.372   9.927  15.766  0.00  0.00    +0.000 OA
ENDBRANCH   1  19
BRANCH  11  20
ATOM     20  C   UNL     1      -2.369  12.872  21.607  0.00  0.00    +0.000 C 
BRANCH  20  21
ATOM     21  C   UNL     1      -1.722  14.213  21.568  0.00  0.00    +0.000 A 
ATOM     22  N   UNL     1      -1.518  14.957  20.493  0.00  0.00    +0.000 NA
ATOM     23  N   UNL     1      -0.962  16.152  20.895  0.00  0.00    +0.000 NA
ATOM     24  C   UNL     1      -0.822  16.097  22.198  0.00  0.00    +0.000 A 
ATOM     25  N   UNL     1      -1.242  14.881  22.671  0.00  0.00    +0.000 N 
BRANCH  25  26
ATOM     26  N   UNL     1      -1.179  14.398  24.018  0.00  0.00    +0.000 N 
ATOM     27  H   UNL     1      -1.124  15.173  24.678  0.00  0.00    +0.000 HD
ATOM     28  H   UNL     1      -2.038  13.894  24.277  0.00  0.00    +0.000 HD
ENDBRANCH  25  26
BRANCH  24  29
ATOM     29  S   UNL     1      -0.240  17.370  23.207  0.00  0.00    +0.000 S 
ATOM     30  H   UNL     1       0.397  16.584  24.088  0.00  0.00    +0.000 HD
ENDBRANCH  24  29
ENDBRANCH  20  21
ENDBRANCH  11  20
TORSDOF 6
ENDMDL
MODEL 8
REMARK VINA RESULT:      -7.1      7.414     10.497
REMARK  Name = 
REMARK  7 active torsions:
REMARK  status: ('A' for Active; 'I' for Inactive)
REMARK    1  A    between atoms: C_1  and  O_2
REMARK    2  A    between atoms: O_2  and  C_3
REMARK    3  A    between atoms: C_9  and  C_10
REMARK    4  A    between atoms: N_19  and  C_20
REMARK    5  A    between atoms: C_20  and  C_21
REMARK    6  A    between atoms: C_24  and  S_25
REMARK    7  A    between atoms: N_26  and  N_27
REMARK                            x       y       z     vdW  Elec       q    Type
REMARK                         _______ _______ _______ _____ _____    ______ ____
ROOT
ATOM      1  C   UNL     1      -1.679  11.004  17.920  0.00  0.00    +0.000 A 
ATOM      2  C   UNL     1      -2.380  11.843  18.776  0.00  0.00    +0.000 A 
ATOM      3  C   UNL     1      -2.109  11.831  20.148  0.00  0.00    +0.000 A 
ATOM      4  C   UNL     1      -1.129  10.987  20.692  0.00  0.00    +0.000 A 
ATOM      5  C   UNL     1      -0.404  10.152  19.821  0.00  0.00    +0.000 A 
ATOM      6  C   UNL     1      -0.707  10.155  18.447  0.00  0.00    +0.000 A 
ATOM      7  C   UNL     1       0.673   9.287  20.342  0.00  0.00    +0.000 A 
ATOM      8  C   UNL     1       0.877   9.260  21.668  0.00  0.00    +0.000 A 
ATOM      9  C   UNL     1       0.060  10.041  22.619  0.00  0.00    +0.000 A 
ATOM     10  O   UNL     1       0.233   9.860  23.825  0.00  0.00    +0.000 OA
ATOM     11  N   UNL     1      -0.864  10.932  22.099  0.00  0.00    +0.000 N 
ENDROOT
BRANCH   7  12
ATOM     12  C   UNL     1       1.582   8.446  19.534  0.00  0.00    +0.000 A 
ATOM     13  C   UNL     1       1.993   7.193  20.007  0.00  0.00    +0.000 A 
ATOM     14  C   UNL     1       2.848   6.398  19.241  0.00  0.00    +0.000 A 
ATOM     15  C   UNL     1       3.298   6.849  18.000  0.00  0.00    +0.000 A 
ATOM     16  C   UNL     1       2.894   8.096  17.523  0.00  0.00    +0.000 A 
ATOM     17  C   UNL     1       2.038   8.893  18.286  0.00  0.00    +0.000 A 
ENDBRANCH   7  12
BRANCH   1  19
ATOM     18  C   UNL     1      -2.878   9.971  16.166  0.00  0.00    +0.000 C 
ATOM     19  O   UNL     1      -1.880  10.900  16.572  0.00  0.00    +0.000 OA
ENDBRANCH   1  19
BRANCH  11  20
ATOM     20  C   UNL     1      -1.624  11.746  23.054  0.00  0.00    +0.000 C 
BRANCH  20  21
ATOM     21  C   UNL     1      -1.106  13.142  23.083  0.00  0.00    +0.000 A 
ATOM     22  N   UNL     1       0.118  13.534  22.773  0.00  0.00    +0.000 NA
ATOM     23  N   UNL     1       0.166  14.908  22.858  0.00  0.00    +0.000 NA
ATOM     24  C   UNL     1      -1.021  15.316  23.239  0.00  0.00    +0.000 A 
ATOM     25  N   UNL     1      -1.850  14.243  23.440  0.00  0.00    +0.000 N 
BRANCH  25  26
ATOM     26  N   UNL     1      -3.195  14.258  23.933  0.00  0.00    +0.000 N 
ATOM     27  H   UNL     1      -3.251  14.762  24.818  0.00  0.00    +0.000 HD
ATOM     28  H   UNL     1      -3.821  14.772  23.299  0.00  0.00    +0.000 HD
ENDBRANCH  25  26
BRANCH  24  29
ATOM     29  S   UNL     1      -1.514  16.959  23.426  0.00  0.00    +0.000 S 
ATOM     30  H   UNL     1      -0.319  17.506  23.158  0.00  0.00    +0.000 HD
ENDBRANCH  24  29
ENDBRANCH  20  21
ENDBRANCH  11  20
TORSDOF 6
ENDMDL
MODEL 9
REMARK VINA RESULT:      -7.1      7.445     10.462
REMARK  Name = 
REMARK  7 active torsions:
REMARK  status: ('A' for Active; 'I' for Inactive)
REMARK    1  A    between atoms: C_1  and  O_2
REMARK    2  A    between atoms: O_2  and  C_3
REMARK    3  A    between atoms: C_9  and  C_10
REMARK    4  A    between atoms: N_19  and  C_20
REMARK    5  A    between atoms: C_20  and  C_21
REMARK    6  A    between atoms: C_24  and  S_25
REMARK    7  A    between atoms: N_26  and  N_27
REMARK                            x       y       z     vdW  Elec       q    Type
REMARK                         _______ _______ _______ _____ _____    ______ ____
ROOT
ATOM      1  C   UNL     1      -2.216  10.349  16.956  0.00  0.00    +0.000 A 
ATOM      2  C   UNL     1      -3.000  11.375  17.467  0.00  0.00    +0.000 A 
ATOM      3  C   UNL     1      -2.728  11.902  18.734  0.00  0.00    +0.000 A 
ATOM      4  C   UNL     1      -1.664  11.422  19.512  0.00  0.00    +0.000 A 
ATOM      5  C   UNL     1      -0.857  10.396  18.985  0.00  0.00    +0.000 A 
ATOM      6  C   UNL     1      -1.159   9.856  17.722  0.00  0.00    +0.000 A 
ATOM      7  C   UNL     1       0.306   9.897  19.747  0.00  0.00    +0.000 A 
ATOM      8  C   UNL     1       0.513  10.387  20.978  0.00  0.00    +0.000 A 
ATOM      9  C   UNL     1      -0.380  11.384  21.603  0.00  0.00    +0.000 A 
ATOM     10  O   UNL     1      -0.188  11.684  22.783  0.00  0.00    +0.000 OA
ATOM     11  N   UNL     1      -1.393  11.922  20.827  0.00  0.00    +0.000 N 
ENDROOT
BRANCH   7  12
ATOM     12  C   UNL     1       1.298   8.908  19.272  0.00  0.00    +0.000 A 
ATOM     13  C   UNL     1       1.597   7.780  20.048  0.00  0.00    +0.000 A 
ATOM     14  C   UNL     1       2.530   6.844  19.598  0.00  0.00    +0.000 A 
ATOM     15  C   UNL     1       3.170   7.028  18.372  0.00  0.00    +0.000 A 
ATOM     16  C   UNL     1       2.877   8.149  17.594  0.00  0.00    +0.000 A 
ATOM     17  C   UNL     1       1.944   9.086  18.042  0.00  0.00    +0.000 A 
ENDBRANCH   7  12
BRANCH   1  19
ATOM     18  C   UNL     1      -3.267  10.404  14.841  0.00  0.00    +0.000 C 
ATOM     19  O   UNL     1      -2.406   9.730  15.752  0.00  0.00    +0.000 OA
ENDBRANCH   1  19
BRANCH  11  20
ATOM     20  C   UNL     1      -2.233  12.956  21.441  0.00  0.00    +0.000 C 
BRANCH  20  21
ATOM     21  C   UNL     1      -1.754  14.314  21.065  0.00  0.00    +0.000 A 
ATOM     22  N   UNL     1      -0.505  14.749  21.110  0.00  0.00    +0.000 NA
ATOM     23  N   UNL     1      -0.477  16.033  20.611  0.00  0.00    +0.000 NA
ATOM     24  C   UNL     1      -1.708  16.355  20.294  0.00  0.00    +0.000 A 
ATOM     25  N   UNL     1      -2.562  15.327  20.602  0.00  0.00    +0.000 N 
BRANCH  25  26
ATOM     26  N   UNL     1      -3.990  15.312  20.486  0.00  0.00    +0.000 N 
ATOM     27  H   UNL     1      -4.411  14.791  21.254  0.00  0.00    +0.000 HD
ATOM     28  H   UNL     1      -4.383  16.260  20.566  0.00  0.00    +0.000 HD
ENDBRANCH  25  26
BRANCH  24  29
ATOM     29  S   UNL     1      -2.210  17.831  19.555  0.00  0.00    +0.000 S 
ATOM     30  H   UNL     1      -3.312  18.005  20.299  0.00  0.00    +0.000 HD
ENDBRANCH  24  29
ENDBRANCH  20  21
ENDBRANCH  11  20
TORSDOF 6
ENDMDL
