MODEL 1
REMARK VINA RESULT:      -7.4      0.000      0.000
REMARK  Name = 
REMARK  7 active torsions:
REMARK  status: ('A' for Active; 'I' for Inactive)
REMARK    1  A    between atoms: C_1  and  C_2
REMARK    2  A    between atoms: C_2  and  C_3
REMARK    3  A    between atoms: N_13  and  C_14
REMARK    4  A    between atoms: C_28  and  O_29
REMARK    5  A    between atoms: O_29  and  C_30
REMARK    6  A    between atoms: C_34  and  C_35
REMARK    7  A    between atoms: C_35  and  O_36
REMARK                            x       y       z     vdW  Elec       q    Type
REMARK                         _______ _______ _______ _____ _____    ______ ____
ROOT
ATOM      1  C   UNL     1       8.544  18.039  19.723  0.00  0.00    +0.000 C 
ATOM      2  O   UNL     1       8.143  18.453  18.634  0.00  0.00    +0.000 OA
ATOM      3  N   UNL     1       9.509  17.033  19.843  0.00  0.00    +0.000 N 
ATOM      4  C   UNL     1       9.993  16.526  21.153  0.00  0.00    +0.000 C 
ATOM      5  C   UNL     1       9.432  15.094  21.452  0.00  0.00    +0.000 C 
ATOM      6  C   UNL     1       7.907  15.033  21.203  0.00  0.00    +0.000 C 
ATOM      7  C   UNL     1       7.014  15.337  22.352  0.00  0.00    +0.000 C 
ATOM      8  N   UNL     1       7.420  14.747  23.589  0.00  0.00    +0.000 N 
ATOM      9  C   UNL     1       6.366  14.223  24.311  0.00  0.00    +0.000 C 
ATOM     10  O   UNL     1       5.240  14.093  23.819  0.00  0.00    +0.000 OA
ATOM     11  N   UNL     1       6.626  13.828  25.593  0.00  0.00    +0.000 N 
ATOM     12  C   UNL     1       8.796  15.027  24.007  0.00  0.00    +0.000 C 
ATOM     13  C   UNL     1       9.817  14.666  22.898  0.00  0.00    +0.000 C 
ATOM     14  C   UNL     1       9.944  14.212  20.309  0.00  0.00    +0.000 A 
ATOM     15  C   UNL     1      10.087  14.780  19.041  0.00  0.00    +0.000 A 
ATOM     16  N   UNL     1      10.032  13.750  18.134  0.00  0.00    +0.000 N 
ATOM     17  C   UNL     1       9.815  12.547  18.771  0.00  0.00    +0.000 A 
ATOM     18  C   UNL     1       9.514  11.292  18.213  0.00  0.00    +0.000 A 
ATOM     19  C   UNL     1       9.260  10.225  19.079  0.00  0.00    +0.000 A 
ATOM     20  C   UNL     1       9.310  10.424  20.455  0.00  0.00    +0.000 A 
ATOM     21  C   UNL     1       9.578  11.689  20.998  0.00  0.00    +0.000 A 
ATOM     22  C   UNL     1       9.842  12.784  20.145  0.00  0.00    +0.000 A 
ATOM     23  C   UNL     1      10.040  16.270  18.654  0.00  0.00    +0.000 C 
ATOM     24  H   UNL     1       7.152  14.482  26.152  0.00  0.00    +0.000 HD
ATOM     25  H   UNL     1       9.942  13.859  17.134  0.00  0.00    +0.000 HD
ENDROOT
BRANCH  11  26
ATOM     26  C   UNL     1       5.762  12.959  26.310  0.00  0.00    +0.000 A 
ATOM     27  C   UNL     1       4.901  13.395  27.327  0.00  0.00    +0.000 A 
ATOM     28  C   UNL     1       4.030  12.493  27.950  0.00  0.00    +0.000 A 
ATOM     29  C   UNL     1       4.015  11.154  27.559  0.00  0.00    +0.000 A 
ATOM     30  C   UNL     1       4.875  10.715  26.553  0.00  0.00    +0.000 A 
ATOM     31  C   UNL     1       5.742  11.617  25.944  0.00  0.00    +0.000 A 
ATOM     32  F   UNL     1       6.584  11.181  24.994  0.00  0.00    +0.000 F 
ENDBRANCH  11  26
BRANCH   1  34
ATOM     33  C   UNL     1       6.328  18.631  20.893  0.00  0.00    +0.000 C 
ATOM     34  C   UNL     1       7.840  18.526  20.992  0.00  0.00    +0.000 C 
ENDBRANCH   1  34
BRANCH  19  35
ATOM     35  O   UNL     1       8.941   8.948  18.700  0.00  0.00    +0.000 OA
ATOM     36  C   UNL     1       7.934   8.804  17.707  0.00  0.00    +0.000 C 
ENDBRANCH  19  35
BRANCH  23  37
ATOM     37  C   UNL     1       9.342  16.479  17.278  0.00  0.00    +0.000 C 
BRANCH  37  38
ATOM     38  O   UNL     1      10.234  16.318  16.173  0.00  0.00    +0.000 OA
ATOM     39  H   UNL     1       9.661  16.038  15.429  0.00  0.00    +0.000 HD
ENDBRANCH  37  38
ENDBRANCH  23  37
TORSDOF 5
ENDMDL
MODEL 2
REMARK VINA RESULT:      -7.1      3.944      6.610
REMARK  Name = 
REMARK  7 active torsions:
REMARK  status: ('A' for Active; 'I' for Inactive)
REMARK    1  A    between atoms: C_1  and  C_2
REMARK    2  A    between atoms: C_2  and  C_3
REMARK    3  A    between atoms: N_13  and  C_14
REMARK    4  A    between atoms: C_28  and  O_29
REMARK    5  A    between atoms: O_29  and  C_30
REMARK    6  A    between atoms: C_34  and  C_35
REMARK    7  A    between atoms: C_35  and  O_36
REMARK                            x       y       z     vdW  Elec       q    Type
REMARK                         _______ _______ _______ _____ _____    ______ ____
ROOT
ATOM      1  C   UNL     1      10.677  14.309  18.187  0.00  0.00    +0.000 C 
ATOM      2  O   UNL     1      11.313  13.338  17.775  0.00  0.00    +0.000 OA
ATOM      3  N   UNL     1      10.466  14.554  19.549  0.00  0.00    +0.000 N 
ATOM      4  C   UNL     1       9.696  15.720  20.053  0.00  0.00    +0.000 C 
ATOM      5  C   UNL     1       8.294  15.283  20.602  0.00  0.00    +0.000 C 
ATOM      6  C   UNL     1       7.573  14.353  19.599  0.00  0.00    +0.000 C 
ATOM      7  C   UNL     1       6.687  14.991  18.591  0.00  0.00    +0.000 C 
ATOM      8  N   UNL     1       5.858  16.034  19.107  0.00  0.00    +0.000 N 
ATOM      9  C   UNL     1       4.567  15.995  18.619  0.00  0.00    +0.000 C 
ATOM     10  O   UNL     1       4.142  15.025  17.982  0.00  0.00    +0.000 OA
ATOM     11  N   UNL     1       3.766  17.067  18.890  0.00  0.00    +0.000 N 
ATOM     12  C   UNL     1       6.555  17.103  19.828  0.00  0.00    +0.000 C 
ATOM     13  C   UNL     1       7.451  16.540  20.961  0.00  0.00    +0.000 C 
ATOM     14  C   UNL     1       8.594  14.301  21.739  0.00  0.00    +0.000 A 
ATOM     15  C   UNL     1       9.717  13.477  21.630  0.00  0.00    +0.000 A 
ATOM     16  N   UNL     1       9.491  12.387  22.435  0.00  0.00    +0.000 N 
ATOM     17  C   UNL     1       8.245  12.459  23.019  0.00  0.00    +0.000 A 
ATOM     18  C   UNL     1       7.554  11.479  23.754  0.00  0.00    +0.000 A 
ATOM     19  C   UNL     1       6.256  11.766  24.186  0.00  0.00    +0.000 A 
ATOM     20  C   UNL     1       5.684  12.998  23.885  0.00  0.00    +0.000 A 
ATOM     21  C   UNL     1       6.372  13.953  23.123  0.00  0.00    +0.000 A 
ATOM     22  C   UNL     1       7.686  13.690  22.677  0.00  0.00    +0.000 A 
ATOM     23  C   UNL     1      10.878  13.578  20.624  0.00  0.00    +0.000 C 
ATOM     24  H   UNL     1       4.180  17.972  18.730  0.00  0.00    +0.000 HD
ATOM     25  H   UNL     1      10.045  11.542  22.440  0.00  0.00    +0.000 HD
ENDROOT
BRANCH  11  26
ATOM     26  C   UNL     1       2.352  17.007  18.775  0.00  0.00    +0.000 A 
ATOM     27  C   UNL     1       1.511  16.585  19.815  0.00  0.00    +0.000 A 
ATOM     28  C   UNL     1       0.121  16.611  19.654  0.00  0.00    +0.000 A 
ATOM     29  C   UNL     1      -0.435  17.059  18.455  0.00  0.00    +0.000 A 
ATOM     30  C   UNL     1       0.397  17.472  17.416  0.00  0.00    +0.000 A 
ATOM     31  C   UNL     1       1.779  17.437  17.583  0.00  0.00    +0.000 A 
ATOM     32  F   UNL     1       2.573  17.813  16.569  0.00  0.00    +0.000 F 
ENDBRANCH  11  26
BRANCH   1  34
ATOM     33  C   UNL     1      10.729  16.400  16.687  0.00  0.00    +0.000 C 
ATOM     34  C   UNL     1       9.949  15.189  17.169  0.00  0.00    +0.000 C 
ENDBRANCH   1  34
BRANCH  19  35
ATOM     35  O   UNL     1       5.447  10.921  24.897  0.00  0.00    +0.000 OA
ATOM     36  C   UNL     1       5.380  11.124  26.303  0.00  0.00    +0.000 C 
ENDBRANCH  19  35
BRANCH  23  37
ATOM     37  C   UNL     1      11.374  12.169  20.184  0.00  0.00    +0.000 C 
BRANCH  37  38
ATOM     38  O   UNL     1      10.306  11.297  19.808  0.00  0.00    +0.000 OA
ATOM     39  H   UNL     1      10.063  11.576  18.902  0.00  0.00    +0.000 HD
ENDBRANCH  37  38
ENDBRANCH  23  37
TORSDOF 5
ENDMDL
MODEL 3
REMARK VINA RESULT:      -7.0      8.693     11.570
REMARK  Name = 
REMARK  7 active torsions:
REMARK  status: ('A' for Active; 'I' for Inactive)
REMARK    1  A    between atoms: C_1  and  C_2
REMARK    2  A    between atoms: C_2  and  C_3
REMARK    3  A    between atoms: N_13  and  C_14
REMARK    4  A    between atoms: C_28  and  O_29
REMARK    5  A    between atoms: O_29  and  C_30
REMARK    6  A    between atoms: C_34  and  C_35
REMARK    7  A    between atoms: C_35  and  O_36
REMARK                            x       y       z     vdW  Elec       q    Type
REMARK                         _______ _______ _______ _____ _____    ______ ____
ROOT
ATOM      1  C   UNL     1      -5.402  14.566  21.878  0.00  0.00    +0.000 C 
ATOM      2  O   UNL     1      -6.380  15.096  21.351  0.00  0.00    +0.000 OA
ATOM      3  N   UNL     1      -4.228  15.266  22.175  0.00  0.00    +0.000 N 
ATOM      4  C   UNL     1      -3.042  14.632  22.806  0.00  0.00    +0.000 C 
ATOM      5  C   UNL     1      -1.877  14.450  21.775  0.00  0.00    +0.000 C 
ATOM      6  C   UNL     1      -2.392  13.811  20.464  0.00  0.00    +0.000 C 
ATOM      7  C   UNL     1      -2.359  12.329  20.367  0.00  0.00    +0.000 C 
ATOM      8  N   UNL     1      -1.162  11.730  20.867  0.00  0.00    +0.000 N 
ATOM      9  C   UNL     1      -0.692  10.706  20.069  0.00  0.00    +0.000 C 
ATOM     10  O   UNL     1      -1.149  10.500  18.939  0.00  0.00    +0.000 OA
ATOM     11  N   UNL     1       0.321   9.940  20.571  0.00  0.00    +0.000 N 
ATOM     12  C   UNL     1      -0.792  12.095  22.237  0.00  0.00    +0.000 C 
ATOM     13  C   UNL     1      -0.721  13.632  22.422  0.00  0.00    +0.000 C 
ATOM     14  C   UNL     1      -1.539  15.864  21.292  0.00  0.00    +0.000 A 
ATOM     15  C   UNL     1      -2.572  16.799  21.194  0.00  0.00    +0.000 A 
ATOM     16  N   UNL     1      -2.165  17.749  20.289  0.00  0.00    +0.000 N 
ATOM     17  C   UNL     1      -0.928  17.433  19.769  0.00  0.00    +0.000 A 
ATOM     18  C   UNL     1      -0.241  18.027  18.696  0.00  0.00    +0.000 A 
ATOM     19  C   UNL     1       0.982  17.475  18.304  0.00  0.00    +0.000 A 
ATOM     20  C   UNL     1       1.486  16.365  18.975  0.00  0.00    +0.000 A 
ATOM     21  C   UNL     1       0.774  15.762  20.022  0.00  0.00    +0.000 A 
ATOM     22  C   UNL     1      -0.462  16.302  20.440  0.00  0.00    +0.000 A 
ATOM     23  C   UNL     1      -4.005  16.697  21.748  0.00  0.00    +0.000 C 
ATOM     24  H   UNL     1       0.199   9.624  21.521  0.00  0.00    +0.000 HD
ATOM     25  H   UNL     1      -2.757  18.461  19.885  0.00  0.00    +0.000 HD
ENDROOT
BRANCH  11  26
ATOM     26  C   UNL     1       1.130   9.115  19.746  0.00  0.00    +0.000 A 
ATOM     27  C   UNL     1       1.536   9.478  18.454  0.00  0.00    +0.000 A 
ATOM     28  C   UNL     1       2.386   8.643  17.720  0.00  0.00    +0.000 A 
ATOM     29  C   UNL     1       2.834   7.443  18.273  0.00  0.00    +0.000 A 
ATOM     30  C   UNL     1       2.427   7.074  19.554  0.00  0.00    +0.000 A 
ATOM     31  C   UNL     1       1.577   7.907  20.274  0.00  0.00    +0.000 A 
ATOM     32  F   UNL     1       1.169   7.533  21.497  0.00  0.00    +0.000 F 
ENDBRANCH  11  26
BRANCH   1  34
ATOM     33  C   UNL     1      -6.016  12.257  20.918  0.00  0.00    +0.000 C 
ATOM     34  C   UNL     1      -5.409  13.047  22.065  0.00  0.00    +0.000 C 
ENDBRANCH   1  34
BRANCH  19  35
ATOM     35  O   UNL     1       1.767  17.923  17.276  0.00  0.00    +0.000 OA
ATOM     36  C   UNL     1       1.098  18.402  16.116  0.00  0.00    +0.000 C 
ENDBRANCH  19  35
BRANCH  23  37
ATOM     37  C   UNL     1      -5.038  17.341  20.777  0.00  0.00    +0.000 C 
BRANCH  37  38
ATOM     38  O   UNL     1      -4.836  16.955  19.416  0.00  0.00    +0.000 OA
ATOM     39  H   UNL     1      -4.888  15.978  19.423  0.00  0.00    +0.000 HD
ENDBRANCH  37  38
ENDBRANCH  23  37
TORSDOF 5
ENDMDL
MODEL 4
REMARK VINA RESULT:      -7.0      3.670      6.483
REMARK  Name = 
REMARK  7 active torsions:
REMARK  status: ('A' for Active; 'I' for Inactive)
REMARK    1  A    between atoms: C_1  and  C_2
REMARK    2  A    between atoms: C_2  and  C_3
REMARK    3  A    between atoms: N_13  and  C_14
REMARK    4  A    between atoms: C_28  and  O_29
REMARK    5  A    between atoms: O_29  and  C_30
REMARK    6  A    between atoms: C_34  and  C_35
REMARK    7  A    between atoms: C_35  and  O_36
REMARK                            x       y       z     vdW  Elec       q    Type
REMARK                         _______ _______ _______ _____ _____    ______ ____
ROOT
ATOM      1  C   UNL     1      10.755  14.172  18.080  0.00  0.00    +0.000 C 
ATOM      2  O   UNL     1      11.373  13.183  17.682  0.00  0.00    +0.000 OA
ATOM      3  N   UNL     1      10.542  14.435  19.438  0.00  0.00    +0.000 N 
ATOM      4  C   UNL     1       9.794  15.623  19.926  0.00  0.00    +0.000 C 
ATOM      5  C   UNL     1       8.381  15.223  20.469  0.00  0.00    +0.000 C 
ATOM      6  C   UNL     1       7.644  14.299  19.471  0.00  0.00    +0.000 C 
ATOM      7  C   UNL     1       6.779  14.946  18.452  0.00  0.00    +0.000 C 
ATOM      8  N   UNL     1       5.970  16.013  18.952  0.00  0.00    +0.000 N 
ATOM      9  C   UNL     1       4.682  15.997  18.455  0.00  0.00    +0.000 C 
ATOM     10  O   UNL     1       4.240  15.030  17.826  0.00  0.00    +0.000 OA
ATOM     11  N   UNL     1       3.903  17.089  18.711  0.00  0.00    +0.000 N 
ATOM     12  C   UNL     1       6.687  17.073  19.667  0.00  0.00    +0.000 C 
ATOM     13  C   UNL     1       7.563  16.502  20.811  0.00  0.00    +0.000 C 
ATOM     14  C   UNL     1       8.651  14.246  21.619  0.00  0.00    +0.000 A 
ATOM     15  C   UNL     1       9.756  13.396  21.525  0.00  0.00    +0.000 A 
ATOM     16  N   UNL     1       9.501  12.320  22.339  0.00  0.00    +0.000 N 
ATOM     17  C   UNL     1       8.254  12.425  22.915  0.00  0.00    +0.000 A 
ATOM     18  C   UNL     1       7.537  11.468  23.655  0.00  0.00    +0.000 A 
ATOM     19  C   UNL     1       6.243  11.788  24.075  0.00  0.00    +0.000 A 
ATOM     20  C   UNL     1       5.700  13.029  23.759  0.00  0.00    +0.000 A 
ATOM     21  C   UNL     1       6.413  13.961  22.991  0.00  0.00    +0.000 A 
ATOM     22  C   UNL     1       7.724  13.665  22.557  0.00  0.00    +0.000 A 
ATOM     23  C   UNL     1      10.926  13.462  20.525  0.00  0.00    +0.000 C 
ATOM     24  H   UNL     1       4.339  17.983  18.545  0.00  0.00    +0.000 HD
ATOM     25  H   UNL     1      10.037  11.463  22.356  0.00  0.00    +0.000 HD
ENDROOT
BRANCH  11  26
ATOM     26  C   UNL     1       2.490  17.059  18.588  0.00  0.00    +0.000 A 
ATOM     27  C   UNL     1       1.798  17.624  17.507  0.00  0.00    +0.000 A 
ATOM     28  C   UNL     1       0.406  17.503  17.417  0.00  0.00    +0.000 A 
ATOM     29  C   UNL     1      -0.300  16.818  18.406  0.00  0.00    +0.000 A 
ATOM     30  C   UNL     1       0.382  16.261  19.487  0.00  0.00    +0.000 A 
ATOM     31  C   UNL     1       1.765  16.392  19.571  0.00  0.00    +0.000 A 
ATOM     32  F   UNL     1       2.412  15.875  20.627  0.00  0.00    +0.000 F 
ENDBRANCH  11  26
BRANCH   1  34
ATOM     33  C   UNL     1      10.775  16.351  16.709  0.00  0.00    +0.000 C 
ATOM     34  C   UNL     1      10.054  15.058  17.049  0.00  0.00    +0.000 C 
ENDBRANCH   1  34
BRANCH  19  35
ATOM     35  O   UNL     1       5.411  10.968  24.790  0.00  0.00    +0.000 OA
ATOM     36  C   UNL     1       5.410  11.124  26.203  0.00  0.00    +0.000 C 
ENDBRANCH  19  35
BRANCH  23  37
ATOM     37  C   UNL     1      11.393  12.038  20.102  0.00  0.00    +0.000 C 
BRANCH  37  38
ATOM     38  O   UNL     1      10.310  11.192  19.709  0.00  0.00    +0.000 OA
ATOM     39  H   UNL     1      10.739  10.407  19.310  0.00  0.00    +0.000 HD
ENDBRANCH  37  38
ENDBRANCH  23  37
TORSDOF 5
ENDMDL
MODEL 5
REMARK VINA RESULT:      -7.0      5.254      8.182
REMARK  Name = 
REMARK  7 active torsions:
REMARK  status: ('A' for Active; 'I' for Inactive)
REMARK    1  A    between atoms: C_1  and  C_2
REMARK    2  A    between atoms: C_2  and  C_3
REMARK    3  A    between atoms: N_13  and  C_14
REMARK    4  A    between atoms: C_28  and  O_29
REMARK    5  A    between atoms: O_29  and  C_30
REMARK    6  A    between atoms: C_34  and  C_35
REMARK    7  A    between atoms: C_35  and  O_36
REMARK                            x       y       z     vdW  Elec       q    Type
REMARK                         _______ _______ _______ _____ _____    ______ ____
ROOT
ATOM      1  C   UNL     1       2.193  17.722  21.856  0.00  0.00    +0.000 C 
ATOM      2  O   UNL     1       1.570  17.743  22.918  0.00  0.00    +0.000 OA
ATOM      3  N   UNL     1       1.705  17.098  20.703  0.00  0.00    +0.000 N 
ATOM      4  C   UNL     1       2.452  17.065  19.420  0.00  0.00    +0.000 C 
ATOM      5  C   UNL     1       3.034  15.638  19.135  0.00  0.00    +0.000 C 
ATOM      6  C   UNL     1       3.761  15.078  20.380  0.00  0.00    +0.000 C 
ATOM      7  C   UNL     1       5.215  15.358  20.505  0.00  0.00    +0.000 C 
ATOM      8  N   UNL     1       5.954  15.208  19.290  0.00  0.00    +0.000 N 
ATOM      9  C   UNL     1       7.168  14.576  19.467  0.00  0.00    +0.000 C 
ATOM     10  O   UNL     1       7.460  14.013  20.529  0.00  0.00    +0.000 OA
ATOM     11  N   UNL     1       8.030  14.574  18.408  0.00  0.00    +0.000 N 
ATOM     12  C   UNL     1       5.450  15.966  18.142  0.00  0.00    +0.000 C 
ATOM     13  C   UNL     1       3.950  15.680  17.879  0.00  0.00    +0.000 C 
ATOM     14  C   UNL     1       1.815  14.710  19.074  0.00  0.00    +0.000 A 
ATOM     15  C   UNL     1       0.720  14.993  19.894  0.00  0.00    +0.000 A 
ATOM     16  N   UNL     1       0.034  13.815  20.063  0.00  0.00    +0.000 N 
ATOM     17  C   UNL     1       0.675  12.778  19.420  0.00  0.00    +0.000 A 
ATOM     18  C   UNL     1       0.416  11.398  19.491  0.00  0.00    +0.000 A 
ATOM     19  C   UNL     1       1.260  10.528  18.796  0.00  0.00    +0.000 A 
ATOM     20  C   UNL     1       2.324  11.039  18.058  0.00  0.00    +0.000 A 
ATOM     21  C   UNL     1       2.590  12.415  18.023  0.00  0.00    +0.000 A 
ATOM     22  C   UNL     1       1.750  13.316  18.713  0.00  0.00    +0.000 A 
ATOM     23  C   UNL     1       0.439  16.276  20.697  0.00  0.00    +0.000 C 
ATOM     24  H   UNL     1       8.154  15.463  17.946  0.00  0.00    +0.000 HD
ATOM     25  H   UNL     1      -0.707  13.664  20.733  0.00  0.00    +0.000 HD
ENDROOT
BRANCH  11  26
ATOM     26  C   UNL     1       9.125  13.676  18.320  0.00  0.00    +0.000 A 
ATOM     27  C   UNL     1       8.986  12.320  17.990  0.00  0.00    +0.000 A 
ATOM     28  C   UNL     1      10.116  11.505  17.860  0.00  0.00    +0.000 A 
ATOM     29  C   UNL     1      11.389  12.040  18.058  0.00  0.00    +0.000 A 
ATOM     30  C   UNL     1      11.532  13.385  18.394  0.00  0.00    +0.000 A 
ATOM     31  C   UNL     1      10.403  14.187  18.527  0.00  0.00    +0.000 A 
ATOM     32  F   UNL     1      10.548  15.475  18.875  0.00  0.00    +0.000 F 
ENDBRANCH  11  26
BRANCH   1  34
ATOM     33  C   UNL     1       4.442  17.953  23.088  0.00  0.00    +0.000 C 
ATOM     34  C   UNL     1       3.628  18.255  21.842  0.00  0.00    +0.000 C 
ENDBRANCH   1  34
BRANCH  19  35
ATOM     35  O   UNL     1       1.155   9.163  18.772  0.00  0.00    +0.000 OA
ATOM     36  C   UNL     1       2.100   8.457  17.978  0.00  0.00    +0.000 C 
ENDBRANCH  19  35
BRANCH  23  37
ATOM     37  C   UNL     1      -0.232  15.955  22.066  0.00  0.00    +0.000 C 
BRANCH  37  38
ATOM     38  O   UNL     1       0.418  14.894  22.768  0.00  0.00    +0.000 OA
ATOM     39  H   UNL     1      -0.307  14.403  23.207  0.00  0.00    +0.000 HD
ENDBRANCH  37  38
ENDBRANCH  23  37
TORSDOF 5
ENDMDL
MODEL 6
REMARK VINA RESULT:      -6.8      6.085      9.021
REMARK  Name = 
REMARK  7 active torsions:
REMARK  status: ('A' for Active; 'I' for Inactive)
REMARK    1  A    between atoms: C_1  and  C_2
REMARK    2  A    between atoms: C_2  and  C_3
REMARK    3  A    between atoms: N_13  and  C_14
REMARK    4  A    between atoms: C_28  and  O_29
REMARK    5  A    between atoms: O_29  and  C_30
REMARK    6  A    between atoms: C_34  and  C_35
REMARK    7  A    between atoms: C_35  and  O_36
REMARK                            x       y       z     vdW  Elec       q    Type
REMARK                         _______ _______ _______ _____ _____    ______ ____
ROOT
ATOM      1  C   UNL     1      -0.334  15.157  22.905  0.00  0.00    +0.000 C 
ATOM      2  O   UNL     1      -0.809  14.714  23.951  0.00  0.00    +0.000 OA
ATOM      3  N   UNL     1      -0.591  14.586  21.654  0.00  0.00    +0.000 N 
ATOM      4  C   UNL     1      -0.019  15.113  20.389  0.00  0.00    +0.000 C 
ATOM      5  C   UNL     1       1.109  14.174  19.839  0.00  0.00    +0.000 C 
ATOM      6  C   UNL     1       2.113  13.803  20.954  0.00  0.00    +0.000 C 
ATOM      7  C   UNL     1       3.296  14.684  21.131  0.00  0.00    +0.000 C 
ATOM      8  N   UNL     1       3.917  15.093  19.910  0.00  0.00    +0.000 N 
ATOM      9  C   UNL     1       5.296  15.059  19.965  0.00  0.00    +0.000 C 
ATOM     10  O   UNL     1       5.897  14.519  20.900  0.00  0.00    +0.000 OA
ATOM     11  N   UNL     1       5.974  15.628  18.925  0.00  0.00    +0.000 N 
ATOM     12  C   UNL     1       3.033  15.724  18.927  0.00  0.00    +0.000 C 
ATOM     13  C   UNL     1       1.800  14.839  18.613  0.00  0.00    +0.000 C 
ATOM     14  C   UNL     1       0.429  12.821  19.602  0.00  0.00    +0.000 A 
ATOM     15  C   UNL     1      -0.603  12.435  20.460  0.00  0.00    +0.000 A 
ATOM     16  N   UNL     1      -0.677  11.064  20.402  0.00  0.00    +0.000 N 
ATOM     17  C   UNL     1       0.300  10.555  19.574  0.00  0.00    +0.000 A 
ATOM     18  C   UNL     1       0.688   9.217  19.382  0.00  0.00    +0.000 A 
ATOM     19  C   UNL     1       1.769   8.956  18.535  0.00  0.00    +0.000 A 
ATOM     20  C   UNL     1       2.427  10.009  17.907  0.00  0.00    +0.000 A 
ATOM     21  C   UNL     1       2.050  11.341  18.134  0.00  0.00    +0.000 A 
ATOM     22  C   UNL     1       0.959  11.633  18.982  0.00  0.00    +0.000 A 
ATOM     23  C   UNL     1      -1.356  13.294  21.492  0.00  0.00    +0.000 C 
ATOM     24  H   UNL     1       5.651  16.540  18.641  0.00  0.00    +0.000 HD
ATOM     25  H   UNL     1      -1.213  10.483  21.031  0.00  0.00    +0.000 HD
ENDROOT
BRANCH  11  26
ATOM     26  C   UNL     1       7.343  15.351  18.669  0.00  0.00    +0.000 A 
ATOM     27  C   UNL     1       8.395  16.119  19.188  0.00  0.00    +0.000 A 
ATOM     28  C   UNL     1       9.724  15.753  18.946  0.00  0.00    +0.000 A 
ATOM     29  C   UNL     1      10.007  14.618  18.187  0.00  0.00    +0.000 A 
ATOM     30  C   UNL     1       8.965  13.855  17.662  0.00  0.00    +0.000 A 
ATOM     31  C   UNL     1       7.647  14.231  17.902  0.00  0.00    +0.000 A 
ATOM     32  F   UNL     1       6.650  13.506  17.372  0.00  0.00    +0.000 F 
ENDBRANCH  11  26
BRANCH   1  34
ATOM     33  C   UNL     1       0.139  17.676  23.154  0.00  0.00    +0.000 C 
ATOM     34  C   UNL     1       0.707  16.276  22.993  0.00  0.00    +0.000 C 
ENDBRANCH   1  34
BRANCH  19  35
ATOM     35  O   UNL     1       2.279   7.717  18.252  0.00  0.00    +0.000 OA
ATOM     36  C   UNL     1       2.447   6.824  19.346  0.00  0.00    +0.000 C 
ENDBRANCH  19  35
BRANCH  23  37
ATOM     37  C   UNL     1      -1.694  12.477  22.774  0.00  0.00    +0.000 C 
BRANCH  37  38
ATOM     38  O   UNL     1      -0.594  11.693  23.239  0.00  0.00    +0.000 OA
ATOM     39  H   UNL     1      -0.593  11.816  24.211  0.00  0.00    +0.000 HD
ENDBRANCH  37  38
ENDBRANCH  23  37
TORSDOF 5
ENDMDL
MODEL 7
REMARK VINA RESULT:      -6.7      5.770      8.645
REMARK  Name = 
REMARK  7 active torsions:
REMARK  status: ('A' for Active; 'I' for Inactive)
REMARK    1  A    between atoms: C_1  and  C_2
REMARK    2  A    between atoms: C_2  and  C_3
REMARK    3  A    between atoms: N_13  and  C_14
REMARK    4  A    between atoms: C_28  and  O_29
REMARK    5  A    between atoms: O_29  and  C_30
REMARK    6  A    between atoms: C_34  and  C_35
REMARK    7  A    between atoms: C_35  and  O_36
REMARK                            x       y       z     vdW  Elec       q    Type
REMARK                         _______ _______ _______ _____ _____    ______ ____
ROOT
ATOM      1  C   UNL     1       0.587  16.964  22.283  0.00  0.00    +0.000 C 
ATOM      2  O   UNL     1       0.000  16.775  23.349  0.00  0.00    +0.000 OA
ATOM      3  N   UNL     1       0.229  16.314  21.096  0.00  0.00    +0.000 N 
ATOM      4  C   UNL     1       0.934  16.534  19.807  0.00  0.00    +0.000 C 
ATOM      5  C   UNL     1       1.823  15.301  19.427  0.00  0.00    +0.000 C 
ATOM      6  C   UNL     1       2.689  14.851  20.627  0.00  0.00    +0.000 C 
ATOM      7  C   UNL     1       4.041  15.453  20.757  0.00  0.00    +0.000 C 
ATOM      8  N   UNL     1       4.766  15.553  19.529  0.00  0.00    +0.000 N 
ATOM      9  C   UNL     1       6.098  15.211  19.655  0.00  0.00    +0.000 C 
ATOM     10  O   UNL     1       6.536  14.668  20.675  0.00  0.00    +0.000 OA
ATOM     11  N   UNL     1       6.911  15.474  18.590  0.00  0.00    +0.000 N 
ATOM     12  C   UNL     1       4.074  16.241  18.436  0.00  0.00    +0.000 C 
ATOM     13  C   UNL     1       2.675  15.631  18.168  0.00  0.00    +0.000 C 
ATOM     14  C   UNL     1       0.852  14.121  19.317  0.00  0.00    +0.000 A 
ATOM     15  C   UNL     1      -0.260  14.091  20.163  0.00  0.00    +0.000 A 
ATOM     16  N   UNL     1      -0.651  12.778  20.262  0.00  0.00    +0.000 N 
ATOM     17  C   UNL     1       0.197  11.959  19.548  0.00  0.00    +0.000 A 
ATOM     18  C   UNL     1       0.267  10.555  19.533  0.00  0.00    +0.000 A 
ATOM     19  C   UNL     1       1.273   9.948  18.776  0.00  0.00    +0.000 A 
ATOM     20  C   UNL     1       2.172  10.736  18.063  0.00  0.00    +0.000 A 
ATOM     21  C   UNL     1       2.112  12.136  18.114  0.00  0.00    +0.000 A 
ATOM     22  C   UNL     1       1.102  12.774  18.868  0.00  0.00    +0.000 A 
ATOM     23  C   UNL     1      -0.812  15.223  21.049  0.00  0.00    +0.000 C 
ATOM     24  H   UNL     1       6.816  16.393  18.185  0.00  0.00    +0.000 HD
ATOM     25  H   UNL     1      -1.321  12.418  20.927  0.00  0.00    +0.000 HD
ENDROOT
BRANCH  11  26
ATOM     26  C   UNL     1       8.182  14.862  18.435  0.00  0.00    +0.000 A 
ATOM     27  C   UNL     1       9.370  15.412  18.939  0.00  0.00    +0.000 A 
ATOM     28  C   UNL     1      10.581  14.722  18.805  0.00  0.00    +0.000 A 
ATOM     29  C   UNL     1      10.611  13.481  18.169  0.00  0.00    +0.000 A 
ATOM     30  C   UNL     1       9.434  12.934  17.659  0.00  0.00    +0.000 A 
ATOM     31  C   UNL     1       8.236  13.629  17.792  0.00  0.00    +0.000 A 
ATOM     32  F   UNL     1       7.112  13.107  17.276  0.00  0.00    +0.000 F 
ENDBRANCH  11  26
BRANCH   1  34
ATOM     33  C   UNL     1       2.747  17.639  23.509  0.00  0.00    +0.000 C 
ATOM     34  C   UNL     1       1.858  17.816  22.291  0.00  0.00    +0.000 C 
ENDBRANCH   1  34
BRANCH  19  35
ATOM     35  O   UNL     1       1.486   8.600  18.666  0.00  0.00    +0.000 OA
ATOM     36  C   UNL     1       2.601   8.186  17.887  0.00  0.00    +0.000 C 
ENDBRANCH  19  35
BRANCH  23  37
ATOM     37  C   UNL     1      -1.358  14.672  22.399  0.00  0.00    +0.000 C 
BRANCH  37  38
ATOM     38  O   UNL     1      -0.423  13.829  23.075  0.00  0.00    +0.000 OA
ATOM     39  H   UNL     1       0.048  13.356  22.359  0.00  0.00    +0.000 HD
ENDBRANCH  37  38
ENDBRANCH  23  37
TORSDOF 5
ENDMDL
MODEL 8
REMARK VINA RESULT:      -6.7      6.193      9.214
REMARK  Name = 
REMARK  7 active torsions:
REMARK  status: ('A' for Active; 'I' for Inactive)
REMARK    1  A    between atoms: C_1  and  C_2
REMARK    2  A    between atoms: C_2  and  C_3
REMARK    3  A    between atoms: N_13  and  C_14
REMARK    4  A    between atoms: C_28  and  O_29
REMARK    5  A    between atoms: O_29  and  C_30
REMARK    6  A    between atoms: C_34  and  C_35
REMARK    7  A    between atoms: C_35  and  O_36
REMARK                            x       y       z     vdW  Elec       q    Type
REMARK                         _______ _______ _______ _____ _____    ______ ____
ROOT
ATOM      1  C   UNL     1      -0.453  14.921  22.911  0.00  0.00    +0.000 C 
ATOM      2  O   UNL     1      -0.878  14.471  23.976  0.00  0.00    +0.000 OA
ATOM      3  N   UNL     1      -0.712  14.318  21.676  0.00  0.00    +0.000 N 
ATOM      4  C   UNL     1      -0.199  14.853  20.388  0.00  0.00    +0.000 C 
ATOM      5  C   UNL     1       0.960  13.963  19.823  0.00  0.00    +0.000 C 
ATOM      6  C   UNL     1       2.009  13.658  20.918  0.00  0.00    +0.000 C 
ATOM      7  C   UNL     1       3.151  14.599  21.052  0.00  0.00    +0.000 C 
ATOM      8  N   UNL     1       3.721  15.019  19.810  0.00  0.00    +0.000 N 
ATOM      9  C   UNL     1       5.101  15.053  19.830  0.00  0.00    +0.000 C 
ATOM     10  O   UNL     1       5.751  14.557  20.757  0.00  0.00    +0.000 OA
ATOM     11  N   UNL     1       5.724  15.638  18.765  0.00  0.00    +0.000 N 
ATOM     12  C   UNL     1       2.783  15.590  18.841  0.00  0.00    +0.000 C 
ATOM     13  C   UNL     1       1.587  14.641  18.571  0.00  0.00    +0.000 C 
ATOM     14  C   UNL     1       0.343  12.574  19.623  0.00  0.00    +0.000 A 
ATOM     15  C   UNL     1      -0.648  12.151  20.513  0.00  0.00    +0.000 A 
ATOM     16  N   UNL     1      -0.655  10.778  20.476  0.00  0.00    +0.000 N 
ATOM     17  C   UNL     1       0.325  10.305  19.631  0.00  0.00    +0.000 A 
ATOM     18  C   UNL     1       0.774   8.984  19.448  0.00  0.00    +0.000 A 
ATOM     19  C   UNL     1       1.845   8.763  18.577  0.00  0.00    +0.000 A 
ATOM     20  C   UNL     1       2.434   9.838  17.918  0.00  0.00    +0.000 A 
ATOM     21  C   UNL     1       1.998  11.153  18.136  0.00  0.00    +0.000 A 
ATOM     22  C   UNL     1       0.915  11.404  19.008  0.00  0.00    +0.000 A 
ATOM     23  C   UNL     1      -1.416  12.989  21.552  0.00  0.00    +0.000 C 
ATOM     24  H   UNL     1       5.349  16.529  18.476  0.00  0.00    +0.000 HD
ATOM     25  H   UNL     1      -1.146  10.181  21.127  0.00  0.00    +0.000 HD
ENDROOT
BRANCH  11  26
ATOM     26  C   UNL     1       7.098  15.425  18.478  0.00  0.00    +0.000 A 
ATOM     27  C   UNL     1       7.633  14.169  18.160  0.00  0.00    +0.000 A 
ATOM     28  C   UNL     1       8.987  14.042  17.826  0.00  0.00    +0.000 A 
ATOM     29  C   UNL     1       9.810  15.168  17.807  0.00  0.00    +0.000 A 
ATOM     30  C   UNL     1       9.284  16.418  18.130  0.00  0.00    +0.000 A 
ATOM     31  C   UNL     1       7.939  16.534  18.467  0.00  0.00    +0.000 A 
ATOM     32  F   UNL     1       7.446  17.737  18.801  0.00  0.00    +0.000 F 
ENDBRANCH  11  26
BRANCH   1  34
ATOM     33  C   UNL     1      -0.084  17.446  23.255  0.00  0.00    +0.000 C 
ATOM     34  C   UNL     1       0.534  16.090  22.957  0.00  0.00    +0.000 C 
ENDBRANCH   1  34
BRANCH  19  35
ATOM     35  O   UNL     1       2.408   7.546  18.299  0.00  0.00    +0.000 OA
ATOM     36  C   UNL     1       2.599   6.659  19.394  0.00  0.00    +0.000 C 
ENDBRANCH  19  35
BRANCH  23  37
ATOM     37  C   UNL     1      -1.681  12.176  22.853  0.00  0.00    +0.000 C 
BRANCH  37  38
ATOM     38  O   UNL     1      -0.550  11.409  23.270  0.00  0.00    +0.000 OA
ATOM     39  H   UNL     1      -0.692  11.254  24.226  0.00  0.00    +0.000 HD
ENDBRANCH  37  38
ENDBRANCH  23  37
TORSDOF 5
ENDMDL
MODEL 9
REMARK VINA RESULT:      -6.6      5.779      8.755
REMARK  Name = 
REMARK  7 active torsions:
REMARK  status: ('A' for Active; 'I' for Inactive)
REMARK    1  A    between atoms: C_1  and  C_2
REMARK    2  A    between atoms: C_2  and  C_3
REMARK    3  A    between atoms: N_13  and  C_14
REMARK    4  A    between atoms: C_28  and  O_29
REMARK    5  A    between atoms: O_29  and  C_30
REMARK    6  A    between atoms: C_34  and  C_35
REMARK    7  A    between atoms: C_35  and  O_36
REMARK                            x       y       z     vdW  Elec       q    Type
REMARK                         _______ _______ _______ _____ _____    ______ ____
ROOT
ATOM      1  C   UNL     1       0.784  17.014  22.142  0.00  0.00    +0.000 C 
ATOM      2  O   UNL     1       0.245  16.860  23.238  0.00  0.00    +0.000 OA
ATOM      3  N   UNL     1       0.377  16.326  20.994  0.00  0.00    +0.000 N 
ATOM      4  C   UNL     1       1.025  16.503  19.669  0.00  0.00    +0.000 C 
ATOM      5  C   UNL     1       1.899  15.259  19.291  0.00  0.00    +0.000 C 
ATOM      6  C   UNL     1       2.817  14.849  20.466  0.00  0.00    +0.000 C 
ATOM      7  C   UNL     1       4.172  15.456  20.517  0.00  0.00    +0.000 C 
ATOM      8  N   UNL     1       4.843  15.516  19.257  0.00  0.00    +0.000 N 
ATOM      9  C   UNL     1       6.179  15.179  19.336  0.00  0.00    +0.000 C 
ATOM     10  O   UNL     1       6.663  14.670  20.353  0.00  0.00    +0.000 OA
ATOM     11  N   UNL     1       6.946  15.408  18.228  0.00  0.00    +0.000 N 
ATOM     12  C   UNL     1       4.103  16.168  18.173  0.00  0.00    +0.000 C 
ATOM     13  C   UNL     1       2.695  15.548  17.986  0.00  0.00    +0.000 C 
ATOM     14  C   UNL     1       0.926  14.075  19.262  0.00  0.00    +0.000 A 
ATOM     15  C   UNL     1      -0.148  14.073  20.155  0.00  0.00    +0.000 A 
ATOM     16  N   UNL     1      -0.532  12.763  20.314  0.00  0.00    +0.000 N 
ATOM     17  C   UNL     1       0.287  11.922  19.591  0.00  0.00    +0.000 A 
ATOM     18  C   UNL     1       0.358  10.518  19.619  0.00  0.00    +0.000 A 
ATOM     19  C   UNL     1       1.332   9.888  18.840  0.00  0.00    +0.000 A 
ATOM     20  C   UNL     1       2.197  10.652  18.063  0.00  0.00    +0.000 A 
ATOM     21  C   UNL     1       2.137  12.053  18.071  0.00  0.00    +0.000 A 
ATOM     22  C   UNL     1       1.159  12.715  18.846  0.00  0.00    +0.000 A 
ATOM     23  C   UNL     1      -0.664  15.233  21.027  0.00  0.00    +0.000 C 
ATOM     24  H   UNL     1       6.831  16.313  17.799  0.00  0.00    +0.000 HD
ATOM     25  H   UNL     1      -1.171  12.425  21.019  0.00  0.00    +0.000 HD
ENDROOT
BRANCH  11  26
ATOM     26  C   UNL     1       8.210  14.791  18.039  0.00  0.00    +0.000 A 
ATOM     27  C   UNL     1       8.377  13.409  17.871  0.00  0.00    +0.000 A 
ATOM     28  C   UNL     1       9.647  12.875  17.626  0.00  0.00    +0.000 A 
ATOM     29  C   UNL     1      10.755  13.719  17.547  0.00  0.00    +0.000 A 
ATOM     30  C   UNL     1      10.596  15.093  17.720  0.00  0.00    +0.000 A 
ATOM     31  C   UNL     1       9.330  15.614  17.970  0.00  0.00    +0.000 A 
ATOM     32  F   UNL     1       9.189  16.935  18.161  0.00  0.00    +0.000 F 
ENDBRANCH  11  26
BRANCH   1  34
ATOM     33  C   UNL     1       2.990  17.737  23.255  0.00  0.00    +0.000 C 
ATOM     34  C   UNL     1       2.052  17.866  22.066  0.00  0.00    +0.000 C 
ENDBRANCH   1  34
BRANCH  19  35
ATOM     35  O   UNL     1       1.543   8.537  18.764  0.00  0.00    +0.000 OA
ATOM     36  C   UNL     1       2.642   8.099  17.976  0.00  0.00    +0.000 C 
ENDBRANCH  19  35
BRANCH  23  37
ATOM     37  C   UNL     1      -1.150  14.726  22.417  0.00  0.00    +0.000 C 
BRANCH  37  38
ATOM     38  O   UNL     1      -0.211  13.854  23.050  0.00  0.00    +0.000 OA
ATOM     39  H   UNL     1       0.656  14.295  22.937  0.00  0.00    +0.000 HD
ENDBRANCH  37  38
ENDBRANCH  23  37
TORSDOF 5
ENDMDL
