MODEL 1
REMARK VINA RESULT:      -7.7      0.000      0.000
REMARK  Name = 
REMARK  11 active torsions:
REMARK  status: ('A' for Active; 'I' for Inactive)
REMARK    1  A    between atoms: C_1  and  C_2
REMARK    2  A    between atoms: C_2  and  O_3
REMARK    3  A    between atoms: O_3  and  C_4
REMARK    4  A    between atoms: C_4  and  C_6
REMARK    5  A    between atoms: C_6  and  C_7
REMARK    6  A    between atoms: N_9  and  N_10
REMARK    7  A    between atoms: N_10  and  C_11
REMARK    8  A    between atoms: C_14  and  S_15
REMARK    9  A    between atoms: S_15  and  N_18
REMARK   10  A    between atoms: C_21  and  C_22
REMARK   11  A    between atoms: C_24  and  C_25
REMARK                            x       y       z     vdW  Elec       q    Type
REMARK                         _______ _______ _______ _____ _____    ______ ____
ROOT
ATOM      1  C   UNL     1       2.903   6.611  18.489  0.00  0.00    +0.000 A 
ATOM      2  C   UNL     1       2.644   7.823  17.840  0.00  0.00    +0.000 A 
ATOM      3  C   UNL     1       1.902   8.830  18.463  0.00  0.00    +0.000 A 
ATOM      4  C   UNL     1       1.434   8.637  19.764  0.00  0.00    +0.000 A 
ATOM      5  C   UNL     1       1.747   7.468  20.459  0.00  0.00    +0.000 A 
ATOM      6  C   UNL     1       2.473   6.458  19.817  0.00  0.00    +0.000 A 
ENDROOT
BRANCH   4   7
ATOM      7  S   UNL     1       0.552   9.953  20.573  0.00  0.00    +0.000 S 
ATOM      8  O   UNL     1      -0.740   9.412  20.953  0.00  0.00    +0.000 OA
ATOM      9  O   UNL     1       1.415  10.536  21.574  0.00  0.00    +0.000 OA
BRANCH   7  10
ATOM     10  N   UNL     1       0.240  11.049  19.355  0.00  0.00    +0.000 N 
ATOM     11  C   UNL     1      -1.083  11.084  18.927  0.00  0.00    +0.000 A 
ATOM     12  N   UNL     1      -1.952  11.798  19.645  0.00  0.00    +0.000 NA
ATOM     13  C   UNL     1      -3.193  11.893  19.124  0.00  0.00    +0.000 A 
ATOM     14  C   UNL     1      -4.188  12.753  19.846  0.00  0.00    +0.000 C 
ATOM     15  C   UNL     1      -3.557  11.260  17.947  0.00  0.00    +0.000 A 
ATOM     16  C   UNL     1      -2.573  10.536  17.300  0.00  0.00    +0.000 A 
ATOM     17  C   UNL     1      -2.872   9.797  16.030  0.00  0.00    +0.000 C 
ATOM     18  N   UNL     1      -1.310  10.461  17.768  0.00  0.00    +0.000 NA
ATOM     19  H   UNL     1       0.872  10.882  18.581  0.00  0.00    +0.000 HD
ENDBRANCH   7  10
ENDBRANCH   4   7
BRANCH   1  20
ATOM     20  N   UNL     1       3.667   5.592  17.898  0.00  0.00    +0.000 N 
ATOM     21  H   UNL     1       3.941   5.769  16.923  0.00  0.00    +0.000 HD
BRANCH  20  23
ATOM     22  C   UNL     1       3.824   3.466  18.699  0.00  0.00    +0.000 C 
ATOM     23  N   UNL     1       4.302   4.678  18.678  0.00  0.00    +0.000 NA
BRANCH  22  24
ATOM     24  C   UNL     1       2.670   2.963  17.863  0.00  0.00    +0.000 C 
ATOM     25  O   UNL     1       2.421   3.409  16.752  0.00  0.00    +0.000 OA
BRANCH  24  26
ATOM     26  O   UNL     1       1.948   2.054  18.547  0.00  0.00    +0.000 OA
BRANCH  26  28
ATOM     27  C   UNL     1       0.753   3.261  20.221  0.00  0.00    +0.000 C 
ATOM     28  C   UNL     1       0.633   2.485  18.925  0.00  0.00    +0.000 C 
ENDBRANCH  26  28
ENDBRANCH  24  26
ENDBRANCH  22  24
BRANCH  22  29
ATOM     29  C   UNL     1       4.494   2.637  19.674  0.00  0.00    +0.000 C 
ATOM     30  N   UNL     1       5.039   1.938  20.428  0.00  0.00    +0.000 NA
ENDBRANCH  22  29
ENDBRANCH  20  23
ENDBRANCH   1  20
TORSDOF 8
ENDMDL
MODEL 2
REMARK VINA RESULT:      -7.6      1.843      2.403
REMARK  Name = 
REMARK  11 active torsions:
REMARK  status: ('A' for Active; 'I' for Inactive)
REMARK    1  A    between atoms: C_1  and  C_2
REMARK    2  A    between atoms: C_2  and  O_3
REMARK    3  A    between atoms: O_3  and  C_4
REMARK    4  A    between atoms: C_4  and  C_6
REMARK    5  A    between atoms: C_6  and  C_7
REMARK    6  A    between atoms: N_9  and  N_10
REMARK    7  A    between atoms: N_10  and  C_11
REMARK    8  A    between atoms: C_14  and  S_15
REMARK    9  A    between atoms: S_15  and  N_18
REMARK   10  A    between atoms: C_21  and  C_22
REMARK   11  A    between atoms: C_24  and  C_25
REMARK                            x       y       z     vdW  Elec       q    Type
REMARK                         _______ _______ _______ _____ _____    ______ ____
ROOT
ATOM      1  C   UNL     1       2.554   7.171  18.565  0.00  0.00    +0.000 A 
ATOM      2  C   UNL     1       2.313   8.364  17.875  0.00  0.00    +0.000 A 
ATOM      3  C   UNL     1       1.627   9.421  18.481  0.00  0.00    +0.000 A 
ATOM      4  C   UNL     1       1.200   9.297  19.805  0.00  0.00    +0.000 A 
ATOM      5  C   UNL     1       1.500   8.147  20.537  0.00  0.00    +0.000 A 
ATOM      6  C   UNL     1       2.168   7.088  19.912  0.00  0.00    +0.000 A 
ENDROOT
BRANCH   4   7
ATOM      7  S   UNL     1       0.393  10.675  20.589  0.00  0.00    +0.000 S 
ATOM      8  O   UNL     1      -0.836  10.160  21.164  0.00  0.00    +0.000 OA
ATOM      9  O   UNL     1       1.355  11.355  21.425  0.00  0.00    +0.000 OA
BRANCH   7  10
ATOM     10  N   UNL     1      -0.078  11.651  19.321  0.00  0.00    +0.000 N 
ATOM     11  C   UNL     1      -1.397  11.480  18.911  0.00  0.00    +0.000 A 
ATOM     12  N   UNL     1      -2.351  12.102  19.605  0.00  0.00    +0.000 NA
ATOM     13  C   UNL     1      -3.598  11.997  19.099  0.00  0.00    +0.000 A 
ATOM     14  C   UNL     1      -4.697  12.747  19.791  0.00  0.00    +0.000 C 
ATOM     15  C   UNL     1      -3.878  11.258  17.961  0.00  0.00    +0.000 A 
ATOM     16  C   UNL     1      -2.808  10.644  17.338  0.00  0.00    +0.000 A 
ATOM     17  C   UNL     1      -3.011   9.805  16.111  0.00  0.00    +0.000 C 
ATOM     18  N   UNL     1      -1.543  10.770  17.790  0.00  0.00    +0.000 NA
ATOM     19  H   UNL     1       0.565  11.533  18.547  0.00  0.00    +0.000 HD
ENDBRANCH   7  10
ENDBRANCH   4   7
BRANCH   1  20
ATOM     20  N   UNL     1       3.262   6.104  17.990  0.00  0.00    +0.000 N 
ATOM     21  H   UNL     1       2.722   5.236  17.883  0.00  0.00    +0.000 HD
BRANCH  20  23
ATOM     22  C   UNL     1       5.497   5.766  17.706  0.00  0.00    +0.000 C 
ATOM     23  N   UNL     1       4.403   6.342  17.291  0.00  0.00    +0.000 NA
BRANCH  22  24
ATOM     24  C   UNL     1       5.592   4.785  18.852  0.00  0.00    +0.000 C 
ATOM     25  O   UNL     1       6.257   5.010  19.854  0.00  0.00    +0.000 OA
BRANCH  24  26
ATOM     26  O   UNL     1       4.933   3.648  18.560  0.00  0.00    +0.000 OA
BRANCH  26  28
ATOM     27  C   UNL     1       2.974   2.397  19.096  0.00  0.00    +0.000 C 
ATOM     28  C   UNL     1       4.212   3.067  19.657  0.00  0.00    +0.000 C 
ENDBRANCH  26  28
ENDBRANCH  24  26
ENDBRANCH  22  24
BRANCH  22  29
ATOM     29  C   UNL     1       6.656   6.217  16.972  0.00  0.00    +0.000 C 
ATOM     30  N   UNL     1       7.575   6.555  16.344  0.00  0.00    +0.000 NA
ENDBRANCH  22  29
ENDBRANCH  20  23
ENDBRANCH   1  20
TORSDOF 8
ENDMDL
MODEL 3
REMARK VINA RESULT:      -7.6      2.423      3.114
REMARK  Name = 
REMARK  11 active torsions:
REMARK  status: ('A' for Active; 'I' for Inactive)
REMARK    1  A    between atoms: C_1  and  C_2
REMARK    2  A    between atoms: C_2  and  O_3
REMARK    3  A    between atoms: O_3  and  C_4
REMARK    4  A    between atoms: C_4  and  C_6
REMARK    5  A    between atoms: C_6  and  C_7
REMARK    6  A    between atoms: N_9  and  N_10
REMARK    7  A    between atoms: N_10  and  C_11
REMARK    8  A    between atoms: C_14  and  S_15
REMARK    9  A    between atoms: S_15  and  N_18
REMARK   10  A    between atoms: C_21  and  C_22
REMARK   11  A    between atoms: C_24  and  C_25
REMARK                            x       y       z     vdW  Elec       q    Type
REMARK                         _______ _______ _______ _____ _____    ______ ____
ROOT
ATOM      1  C   UNL     1       2.884   7.185  18.247  0.00  0.00    +0.000 A 
ATOM      2  C   UNL     1       2.577   8.396  17.618  0.00  0.00    +0.000 A 
ATOM      3  C   UNL     1       1.787   9.357  18.254  0.00  0.00    +0.000 A 
ATOM      4  C   UNL     1       1.319   9.120  19.548  0.00  0.00    +0.000 A 
ATOM      5  C   UNL     1       1.679   7.953  20.223  0.00  0.00    +0.000 A 
ATOM      6  C   UNL     1       2.454   6.989  19.568  0.00  0.00    +0.000 A 
ENDROOT
BRANCH   4   7
ATOM      7  S   UNL     1       0.375  10.381  20.374  0.00  0.00    +0.000 S 
ATOM      8  O   UNL     1      -0.859   9.754  20.810  0.00  0.00    +0.000 OA
ATOM      9  O   UNL     1       1.231  11.039  21.334  0.00  0.00    +0.000 OA
BRANCH   7  10
ATOM     10  N   UNL     1      -0.061  11.434  19.156  0.00  0.00    +0.000 N 
ATOM     11  C   UNL     1      -1.370  11.293  18.705  0.00  0.00    +0.000 A 
ATOM     12  N   UNL     1      -2.339  11.878  19.411  0.00  0.00    +0.000 NA
ATOM     13  C   UNL     1      -3.573  11.809  18.869  0.00  0.00    +0.000 A 
ATOM     14  C   UNL     1      -4.686  12.521  19.578  0.00  0.00    +0.000 C 
ATOM     15  C   UNL     1      -3.828  11.140  17.683  0.00  0.00    +0.000 A 
ATOM     16  C   UNL     1      -2.744  10.560  17.050  0.00  0.00    +0.000 A 
ATOM     17  C   UNL     1      -2.920   9.796  15.771  0.00  0.00    +0.000 C 
ATOM     18  N   UNL     1      -1.491  10.652  17.539  0.00  0.00    +0.000 NA
ATOM     19  H   UNL     1       0.600  11.358  18.392  0.00  0.00    +0.000 HD
ENDBRANCH   7  10
ENDBRANCH   4   7
BRANCH   1  20
ATOM     20  N   UNL     1       3.697   6.212  17.643  0.00  0.00    +0.000 N 
ATOM     21  H   UNL     1       3.477   6.016  16.658  0.00  0.00    +0.000 HD
BRANCH  20  23
ATOM     22  C   UNL     1       5.867   5.564  17.396  0.00  0.00    +0.000 C 
ATOM     23  N   UNL     1       4.892   5.881  18.201  0.00  0.00    +0.000 NA
BRANCH  22  24
ATOM     24  C   UNL     1       5.811   5.614  15.886  0.00  0.00    +0.000 C 
ATOM     25  O   UNL     1       5.251   6.518  15.280  0.00  0.00    +0.000 OA
BRANCH  24  26
ATOM     26  O   UNL     1       6.371   4.511  15.353  0.00  0.00    +0.000 OA
BRANCH  26  28
ATOM     27  C   UNL     1       5.925   3.699  13.155  0.00  0.00    +0.000 C 
ATOM     28  C   UNL     1       6.777   4.640  13.983  0.00  0.00    +0.000 C 
ENDBRANCH  26  28
ENDBRANCH  24  26
ENDBRANCH  22  24
BRANCH  22  29
ATOM     29  C   UNL     1       7.028   5.092  18.113  0.00  0.00    +0.000 C 
ATOM     30  N   UNL     1       7.969   4.680  18.659  0.00  0.00    +0.000 NA
ENDBRANCH  22  29
ENDBRANCH  20  23
ENDBRANCH   1  20
TORSDOF 8
ENDMDL
MODEL 4
REMARK VINA RESULT:      -7.5      2.022      3.165
REMARK  Name = 
REMARK  11 active torsions:
REMARK  status: ('A' for Active; 'I' for Inactive)
REMARK    1  A    between atoms: C_1  and  C_2
REMARK    2  A    between atoms: C_2  and  O_3
REMARK    3  A    between atoms: O_3  and  C_4
REMARK    4  A    between atoms: C_4  and  C_6
REMARK    5  A    between atoms: C_6  and  C_7
REMARK    6  A    between atoms: N_9  and  N_10
REMARK    7  A    between atoms: N_10  and  C_11
REMARK    8  A    between atoms: C_14  and  S_15
REMARK    9  A    between atoms: S_15  and  N_18
REMARK   10  A    between atoms: C_21  and  C_22
REMARK   11  A    between atoms: C_24  and  C_25
REMARK                            x       y       z     vdW  Elec       q    Type
REMARK                         _______ _______ _______ _____ _____    ______ ____
ROOT
ATOM      1  C   UNL     1       2.642   7.474  18.931  0.00  0.00    +0.000 A 
ATOM      2  C   UNL     1       1.950   7.685  20.128  0.00  0.00    +0.000 A 
ATOM      3  C   UNL     1       1.023   8.723  20.251  0.00  0.00    +0.000 A 
ATOM      4  C   UNL     1       0.761   9.548  19.155  0.00  0.00    +0.000 A 
ATOM      5  C   UNL     1       1.382   9.306  17.928  0.00  0.00    +0.000 A 
ATOM      6  C   UNL     1       2.324   8.276  17.823  0.00  0.00    +0.000 A 
ENDROOT
BRANCH   4   7
ATOM      7  S   UNL     1      -0.472  10.821  19.301  0.00  0.00    +0.000 S 
ATOM      8  O   UNL     1      -0.485  11.226  20.695  0.00  0.00    +0.000 OA
ATOM      9  O   UNL     1      -0.244  11.801  18.264  0.00  0.00    +0.000 OA
BRANCH   7  10
ATOM     10  N   UNL     1      -1.917  10.025  19.049  0.00  0.00    +0.000 N 
ATOM     11  C   UNL     1      -2.660  10.493  17.971  0.00  0.00    +0.000 A 
ATOM     12  N   UNL     1      -2.333  10.059  16.752  0.00  0.00    +0.000 NA
ATOM     13  C   UNL     1      -3.155  10.451  15.757  0.00  0.00    +0.000 A 
ATOM     14  C   UNL     1      -2.882   9.924  14.379  0.00  0.00    +0.000 C 
ATOM     15  C   UNL     1      -4.241  11.283  15.974  0.00  0.00    +0.000 A 
ATOM     16  C   UNL     1      -4.470  11.680  17.278  0.00  0.00    +0.000 A 
ATOM     17  C   UNL     1      -5.609  12.597  17.613  0.00  0.00    +0.000 C 
ATOM     18  N   UNL     1      -3.697  11.267  18.302  0.00  0.00    +0.000 NA
ATOM     19  H   UNL     1      -2.461  10.037  19.903  0.00  0.00    +0.000 HD
ENDBRANCH   7  10
ENDBRANCH   4   7
BRANCH   1  20
ATOM     20  N   UNL     1       3.559   6.423  18.771  0.00  0.00    +0.000 N 
ATOM     21  H   UNL     1       3.241   5.514  19.129  0.00  0.00    +0.000 HD
BRANCH  20  23
ATOM     22  C   UNL     1       5.272   5.466  17.612  0.00  0.00    +0.000 C 
ATOM     23  N   UNL     1       4.575   6.536  17.873  0.00  0.00    +0.000 NA
BRANCH  22  24
ATOM     24  C   UNL     1       4.996   4.084  18.158  0.00  0.00    +0.000 C 
ATOM     25  O   UNL     1       5.476   3.686  19.210  0.00  0.00    +0.000 OA
BRANCH  24  26
ATOM     26  O   UNL     1       4.247   3.372  17.293  0.00  0.00    +0.000 OA
BRANCH  26  28
ATOM     27  C   UNL     1       1.965   3.263  17.978  0.00  0.00    +0.000 C 
ATOM     28  C   UNL     1       3.277   2.507  17.901  0.00  0.00    +0.000 C 
ENDBRANCH  26  28
ENDBRANCH  24  26
ENDBRANCH  22  24
BRANCH  22  29
ATOM     29  C   UNL     1       6.405   5.753  16.764  0.00  0.00    +0.000 C 
ATOM     30  N   UNL     1       7.295   6.022  16.065  0.00  0.00    +0.000 NA
ENDBRANCH  22  29
ENDBRANCH  20  23
ENDBRANCH   1  20
TORSDOF 8
ENDMDL
MODEL 5
REMARK VINA RESULT:      -7.5      1.842      2.730
REMARK  Name = 
REMARK  11 active torsions:
REMARK  status: ('A' for Active; 'I' for Inactive)
REMARK    1  A    between atoms: C_1  and  C_2
REMARK    2  A    between atoms: C_2  and  O_3
REMARK    3  A    between atoms: O_3  and  C_4
REMARK    4  A    between atoms: C_4  and  C_6
REMARK    5  A    between atoms: C_6  and  C_7
REMARK    6  A    between atoms: N_9  and  N_10
REMARK    7  A    between atoms: N_10  and  C_11
REMARK    8  A    between atoms: C_14  and  S_15
REMARK    9  A    between atoms: S_15  and  N_18
REMARK   10  A    between atoms: C_21  and  C_22
REMARK   11  A    between atoms: C_24  and  C_25
REMARK                            x       y       z     vdW  Elec       q    Type
REMARK                         _______ _______ _______ _____ _____    ______ ____
ROOT
ATOM      1  C   UNL     1       2.787   7.180  18.428  0.00  0.00    +0.000 A 
ATOM      2  C   UNL     1       2.312   7.042  19.736  0.00  0.00    +0.000 A 
ATOM      3  C   UNL     1       1.600   8.071  20.357  0.00  0.00    +0.000 A 
ATOM      4  C   UNL     1       1.332   9.247  19.653  0.00  0.00    +0.000 A 
ATOM      5  C   UNL     1       1.727   9.375  18.321  0.00  0.00    +0.000 A 
ATOM      6  C   UNL     1       2.458   8.345  17.717  0.00  0.00    +0.000 A 
ENDROOT
BRANCH   4   7
ATOM      7  S   UNL     1       0.363  10.521  20.428  0.00  0.00    +0.000 S 
ATOM      8  O   UNL     1      -0.862   9.889  20.884  0.00  0.00    +0.000 OA
ATOM      9  O   UNL     1       1.203  11.230  21.365  0.00  0.00    +0.000 OA
BRANCH   7  10
ATOM     10  N   UNL     1      -0.087  11.519  19.169  0.00  0.00    +0.000 N 
ATOM     11  C   UNL     1      -1.396  11.350  18.731  0.00  0.00    +0.000 A 
ATOM     12  N   UNL     1      -2.367  11.956  19.416  0.00  0.00    +0.000 NA
ATOM     13  C   UNL     1      -3.603  11.856  18.883  0.00  0.00    +0.000 A 
ATOM     14  C   UNL     1      -4.719  12.589  19.568  0.00  0.00    +0.000 C 
ATOM     15  C   UNL     1      -3.858  11.137  17.727  0.00  0.00    +0.000 A 
ATOM     16  C   UNL     1      -2.773  10.539  17.114  0.00  0.00    +0.000 A 
ATOM     17  C   UNL     1      -2.948   9.721  15.869  0.00  0.00    +0.000 C 
ATOM     18  N   UNL     1      -1.518  10.661  17.594  0.00  0.00    +0.000 NA
ATOM     19  H   UNL     1       0.572  11.417  18.407  0.00  0.00    +0.000 HD
ENDBRANCH   7  10
ENDBRANCH   4   7
BRANCH   1  20
ATOM     20  N   UNL     1       3.483   6.153  17.770  0.00  0.00    +0.000 N 
ATOM     21  H   UNL     1       4.357   6.446  17.316  0.00  0.00    +0.000 HD
BRANCH  20  23
ATOM     22  C   UNL     1       4.157   3.978  17.841  0.00  0.00    +0.000 C 
ATOM     23  N   UNL     1       3.217   4.853  18.066  0.00  0.00    +0.000 NA
BRANCH  22  24
ATOM     24  C   UNL     1       5.553   4.295  17.356  0.00  0.00    +0.000 C 
ATOM     25  O   UNL     1       5.826   4.402  16.168  0.00  0.00    +0.000 OA
BRANCH  24  26
ATOM     26  O   UNL     1       6.415   4.347  18.390  0.00  0.00    +0.000 OA
BRANCH  26  28
ATOM     27  C   UNL     1       7.678   6.368  18.462  0.00  0.00    +0.000 C 
ATOM     28  C   UNL     1       7.701   4.902  18.079  0.00  0.00    +0.000 C 
ENDBRANCH  26  28
ENDBRANCH  24  26
ENDBRANCH  22  24
BRANCH  22  29
ATOM     29  C   UNL     1       3.698   2.626  18.056  0.00  0.00    +0.000 C 
ATOM     30  N   UNL     1       3.289   1.547  18.208  0.00  0.00    +0.000 NA
ENDBRANCH  22  29
ENDBRANCH  20  23
ENDBRANCH   1  20
TORSDOF 8
ENDMDL
MODEL 6
REMARK VINA RESULT:      -7.4      2.834      3.743
REMARK  Name = 
REMARK  11 active torsions:
REMARK  status: ('A' for Active; 'I' for Inactive)
REMARK    1  A    between atoms: C_1  and  C_2
REMARK    2  A    between atoms: C_2  and  O_3
REMARK    3  A    between atoms: O_3  and  C_4
REMARK    4  A    between atoms: C_4  and  C_6
REMARK    5  A    between atoms: C_6  and  C_7
REMARK    6  A    between atoms: N_9  and  N_10
REMARK    7  A    between atoms: N_10  and  C_11
REMARK    8  A    between atoms: C_14  and  S_15
REMARK    9  A    between atoms: S_15  and  N_18
REMARK   10  A    between atoms: C_21  and  C_22
REMARK   11  A    between atoms: C_24  and  C_25
REMARK                            x       y       z     vdW  Elec       q    Type
REMARK                         _______ _______ _______ _____ _____    ______ ____
ROOT
ATOM      1  C   UNL     1       2.534   7.112  18.682  0.00  0.00    +0.000 A 
ATOM      2  C   UNL     1       2.372   8.174  17.787  0.00  0.00    +0.000 A 
ATOM      3  C   UNL     1       1.699   9.339  18.165  0.00  0.00    +0.000 A 
ATOM      4  C   UNL     1       1.205   9.458  19.466  0.00  0.00    +0.000 A 
ATOM      5  C   UNL     1       1.425   8.443  20.398  0.00  0.00    +0.000 A 
ATOM      6  C   UNL     1       2.081   7.273  20.001  0.00  0.00    +0.000 A 
ENDROOT
BRANCH   4   7
ATOM      7  S   UNL     1       0.413  10.973  19.958  0.00  0.00    +0.000 S 
ATOM      8  O   UNL     1      -0.959  10.634  20.288  0.00  0.00    +0.000 OA
ATOM      9  O   UNL     1       1.251  11.632  20.933  0.00  0.00    +0.000 OA
BRANCH   7  10
ATOM     10  N   UNL     1       0.330  11.869  18.553  0.00  0.00    +0.000 N 
ATOM     11  C   UNL     1       0.919  13.127  18.629  0.00  0.00    +0.000 A 
ATOM     12  N   UNL     1       2.242  13.207  18.474  0.00  0.00    +0.000 NA
ATOM     13  C   UNL     1       2.748  14.457  18.441  0.00  0.00    +0.000 A 
ATOM     14  C   UNL     1       4.218  14.608  18.185  0.00  0.00    +0.000 C 
ATOM     15  C   UNL     1       1.957  15.583  18.599  0.00  0.00    +0.000 A 
ATOM     16  C   UNL     1       0.601  15.373  18.768  0.00  0.00    +0.000 A 
ATOM     17  C   UNL     1      -0.336  16.527  18.968  0.00  0.00    +0.000 C 
ATOM     18  N   UNL     1       0.057  14.139  18.757  0.00  0.00    +0.000 NA
ATOM     19  H   UNL     1      -0.635  11.934  18.251  0.00  0.00    +0.000 HD
ENDBRANCH   7  10
ENDBRANCH   4   7
BRANCH   1  20
ATOM     20  N   UNL     1       3.228   5.941  18.338  0.00  0.00    +0.000 N 
ATOM     21  H   UNL     1       2.668   5.237  17.840  0.00  0.00    +0.000 HD
BRANCH  20  23
ATOM     22  C   UNL     1       5.193   4.810  18.565  0.00  0.00    +0.000 C 
ATOM     23  N   UNL     1       4.588   5.937  18.314  0.00  0.00    +0.000 NA
BRANCH  22  24
ATOM     24  C   UNL     1       4.513   3.481  18.799  0.00  0.00    +0.000 C 
ATOM     25  O   UNL     1       4.727   2.800  19.792  0.00  0.00    +0.000 OA
BRANCH  24  26
ATOM     26  O   UNL     1       3.742   3.150  17.745  0.00  0.00    +0.000 OA
BRANCH  26  28
ATOM     27  C   UNL     1       1.496   2.759  18.446  0.00  0.00    +0.000 C 
ATOM     28  C   UNL     1       2.788   2.107  17.995  0.00  0.00    +0.000 C 
ENDBRANCH  26  28
ENDBRANCH  24  26
ENDBRANCH  22  24
BRANCH  22  29
ATOM     29  C   UNL     1       6.625   4.975  18.655  0.00  0.00    +0.000 C 
ATOM     30  N   UNL     1       7.781   5.105  18.683  0.00  0.00    +0.000 NA
ENDBRANCH  22  29
ENDBRANCH  20  23
ENDBRANCH   1  20
TORSDOF 8
ENDMDL
MODEL 7
REMARK VINA RESULT:      -7.4      3.160      4.136
REMARK  Name = 
REMARK  11 active torsions:
REMARK  status: ('A' for Active; 'I' for Inactive)
REMARK    1  A    between atoms: C_1  and  C_2
REMARK    2  A    between atoms: C_2  and  O_3
REMARK    3  A    between atoms: O_3  and  C_4
REMARK    4  A    between atoms: C_4  and  C_6
REMARK    5  A    between atoms: C_6  and  C_7
REMARK    6  A    between atoms: N_9  and  N_10
REMARK    7  A    between atoms: N_10  and  C_11
REMARK    8  A    between atoms: C_14  and  S_15
REMARK    9  A    between atoms: S_15  and  N_18
REMARK   10  A    between atoms: C_21  and  C_22
REMARK   11  A    between atoms: C_24  and  C_25
REMARK                            x       y       z     vdW  Elec       q    Type
REMARK                         _______ _______ _______ _____ _____    ______ ____
ROOT
ATOM      1  C   UNL     1       2.550   7.351  18.556  0.00  0.00    +0.000 A 
ATOM      2  C   UNL     1       2.394   8.445  17.697  0.00  0.00    +0.000 A 
ATOM      3  C   UNL     1       1.697   9.585  18.104  0.00  0.00    +0.000 A 
ATOM      4  C   UNL     1       1.172   9.650  19.396  0.00  0.00    +0.000 A 
ATOM      5  C   UNL     1       1.385   8.604  20.295  0.00  0.00    +0.000 A 
ATOM      6  C   UNL     1       2.066   7.457  19.869  0.00  0.00    +0.000 A 
ENDROOT
BRANCH   4   7
ATOM      7  S   UNL     1       0.350  11.135  19.926  0.00  0.00    +0.000 S 
ATOM      8  O   UNL     1      -1.010  10.757  20.263  0.00  0.00    +0.000 OA
ATOM      9  O   UNL     1       1.181  11.794  20.907  0.00  0.00    +0.000 OA
BRANCH   7  10
ATOM     10  N   UNL     1       0.231  12.057  18.541  0.00  0.00    +0.000 N 
ATOM     11  C   UNL     1       0.844  13.304  18.616  0.00  0.00    +0.000 A 
ATOM     12  N   UNL     1       2.161  13.365  18.416  0.00  0.00    +0.000 NA
ATOM     13  C   UNL     1       2.686  14.608  18.385  0.00  0.00    +0.000 A 
ATOM     14  C   UNL     1       4.149  14.739  18.079  0.00  0.00    +0.000 C 
ATOM     15  C   UNL     1       1.921  15.743  18.591  0.00  0.00    +0.000 A 
ATOM     16  C   UNL     1       0.569  15.552  18.805  0.00  0.00    +0.000 A 
ATOM     17  C   UNL     1      -0.342  16.717  19.059  0.00  0.00    +0.000 C 
ATOM     18  N   UNL     1       0.004  14.327  18.793  0.00  0.00    +0.000 NA
ATOM     19  H   UNL     1      -0.742  12.142  18.275  0.00  0.00    +0.000 HD
ENDBRANCH   7  10
ENDBRANCH   4   7
BRANCH   1  20
ATOM     20  N   UNL     1       3.267   6.203  18.183  0.00  0.00    +0.000 N 
ATOM     21  H   UNL     1       2.768   5.316  18.328  0.00  0.00    +0.000 HD
BRANCH  20  23
ATOM     22  C   UNL     1       5.410   5.636  17.657  0.00  0.00    +0.000 C 
ATOM     23  N   UNL     1       4.336   6.308  17.350  0.00  0.00    +0.000 NA
BRANCH  22  24
ATOM     24  C   UNL     1       5.545   4.679  18.819  0.00  0.00    +0.000 C 
ATOM     25  O   UNL     1       6.294   4.893  19.762  0.00  0.00    +0.000 OA
BRANCH  24  26
ATOM     26  O   UNL     1       4.808   3.571  18.610  0.00  0.00    +0.000 OA
BRANCH  26  28
ATOM     27  C   UNL     1       2.854   2.952  19.828  0.00  0.00    +0.000 C 
ATOM     28  C   UNL     1       4.368   2.902  19.800  0.00  0.00    +0.000 C 
ENDBRANCH  26  28
ENDBRANCH  24  26
ENDBRANCH  22  24
BRANCH  22  29
ATOM     29  C   UNL     1       6.513   5.950  16.779  0.00  0.00    +0.000 C 
ATOM     30  N   UNL     1       7.411   6.158  16.070  0.00  0.00    +0.000 NA
ENDBRANCH  22  29
ENDBRANCH  20  23
ENDBRANCH   1  20
TORSDOF 8
ENDMDL
MODEL 8
REMARK VINA RESULT:      -7.4      1.337      1.830
REMARK  Name = 
REMARK  11 active torsions:
REMARK  status: ('A' for Active; 'I' for Inactive)
REMARK    1  A    between atoms: C_1  and  C_2
REMARK    2  A    between atoms: C_2  and  O_3
REMARK    3  A    between atoms: O_3  and  C_4
REMARK    4  A    between atoms: C_4  and  C_6
REMARK    5  A    between atoms: C_6  and  C_7
REMARK    6  A    between atoms: N_9  and  N_10
REMARK    7  A    between atoms: N_10  and  C_11
REMARK    8  A    between atoms: C_14  and  S_15
REMARK    9  A    between atoms: S_15  and  N_18
REMARK   10  A    between atoms: C_21  and  C_22
REMARK   11  A    between atoms: C_24  and  C_25
REMARK                            x       y       z     vdW  Elec       q    Type
REMARK                         _______ _______ _______ _____ _____    ______ ____
ROOT
ATOM      1  C   UNL     1       2.835   6.996  18.243  0.00  0.00    +0.000 A 
ATOM      2  C   UNL     1       2.423   6.751  19.557  0.00  0.00    +0.000 A 
ATOM      3  C   UNL     1       1.740   7.725  20.291  0.00  0.00    +0.000 A 
ATOM      4  C   UNL     1       1.439   8.952  19.696  0.00  0.00    +0.000 A 
ATOM      5  C   UNL     1       1.771   9.187  18.361  0.00  0.00    +0.000 A 
ATOM      6  C   UNL     1       2.473   8.212  17.644  0.00  0.00    +0.000 A 
ENDROOT
BRANCH   4   7
ATOM      7  S   UNL     1       0.507  10.157  20.615  0.00  0.00    +0.000 S 
ATOM      8  O   UNL     1      -0.759   9.532  20.951  0.00  0.00    +0.000 OA
ATOM      9  O   UNL     1       1.351  10.690  21.659  0.00  0.00    +0.000 OA
BRANCH   7  10
ATOM     10  N   UNL     1       0.143  11.337  19.494  0.00  0.00    +0.000 N 
ATOM     11  C   UNL     1      -1.189  11.370  19.094  0.00  0.00    +0.000 A 
ATOM     12  N   UNL     1      -2.062  12.001  19.882  0.00  0.00    +0.000 NA
ATOM     13  C   UNL     1      -3.315  12.104  19.393  0.00  0.00    +0.000 A 
ATOM     14  C   UNL     1      -4.317  12.876  20.200  0.00  0.00    +0.000 C 
ATOM     15  C   UNL     1      -3.686  11.555  18.176  0.00  0.00    +0.000 A 
ATOM     16  C   UNL     1      -2.697  10.912  17.456  0.00  0.00    +0.000 A 
ATOM     17  C   UNL     1      -3.003  10.267  16.137  0.00  0.00    +0.000 C 
ATOM     18  N   UNL     1      -1.424  10.834  17.893  0.00  0.00    +0.000 NA
ATOM     19  H   UNL     1       0.763  11.249  18.697  0.00  0.00    +0.000 HD
ENDBRANCH   7  10
ENDBRANCH   4   7
BRANCH   1  20
ATOM     20  N   UNL     1       3.500   6.027  17.474  0.00  0.00    +0.000 N 
ATOM     21  H   UNL     1       2.977   5.694  16.654  0.00  0.00    +0.000 HD
BRANCH  20  23
ATOM     22  C   UNL     1       5.278   4.747  18.100  0.00  0.00    +0.000 C 
ATOM     23  N   UNL     1       4.845   5.868  17.593  0.00  0.00    +0.000 NA
BRANCH  22  24
ATOM     24  C   UNL     1       4.415   3.569  18.490  0.00  0.00    +0.000 C 
ATOM     25  O   UNL     1       3.720   2.969  17.682  0.00  0.00    +0.000 OA
BRANCH  24  26
ATOM     26  O   UNL     1       4.469   3.360  19.820  0.00  0.00    +0.000 OA
BRANCH  26  28
ATOM     27  C   UNL     1       2.400   3.291  21.002  0.00  0.00    +0.000 C 
ATOM     28  C   UNL     1       3.476   2.461  20.333  0.00  0.00    +0.000 C 
ENDBRANCH  26  28
ENDBRANCH  24  26
ENDBRANCH  22  24
BRANCH  22  29
ATOM     29  C   UNL     1       6.707   4.766  18.309  0.00  0.00    +0.000 C 
ATOM     30  N   UNL     1       7.850   4.798  18.519  0.00  0.00    +0.000 NA
ENDBRANCH  22  29
ENDBRANCH  20  23
ENDBRANCH   1  20
TORSDOF 8
ENDMDL
MODEL 9
REMARK VINA RESULT:      -7.4      3.031      3.902
REMARK  Name = 
REMARK  11 active torsions:
REMARK  status: ('A' for Active; 'I' for Inactive)
REMARK    1  A    between atoms: C_1  and  C_2
REMARK    2  A    between atoms: C_2  and  O_3
REMARK    3  A    between atoms: O_3  and  C_4
REMARK    4  A    between atoms: C_4  and  C_6
REMARK    5  A    between atoms: C_6  and  C_7
REMARK    6  A    between atoms: N_9  and  N_10
REMARK    7  A    between atoms: N_10  and  C_11
REMARK    8  A    between atoms: C_14  and  S_15
REMARK    9  A    between atoms: S_15  and  N_18
REMARK   10  A    between atoms: C_21  and  C_22
REMARK   11  A    between atoms: C_24  and  C_25
REMARK                            x       y       z     vdW  Elec       q    Type
REMARK                         _______ _______ _______ _____ _____    ______ ____
ROOT
ATOM      1  C   UNL     1       2.372   7.434  18.604  0.00  0.00    +0.000 A 
ATOM      2  C   UNL     1       2.200   8.499  17.713  0.00  0.00    +0.000 A 
ATOM      3  C   UNL     1       1.554   9.673  18.110  0.00  0.00    +0.000 A 
ATOM      4  C   UNL     1       1.097   9.799  19.423  0.00  0.00    +0.000 A 
ATOM      5  C   UNL     1       1.327   8.780  20.349  0.00  0.00    +0.000 A 
ATOM      6  C   UNL     1       1.957   7.601  19.935  0.00  0.00    +0.000 A 
ENDROOT
BRANCH   4   7
ATOM      7  S   UNL     1       0.340  11.324  19.937  0.00  0.00    +0.000 S 
ATOM      8  O   UNL     1      -1.039  11.011  20.265  0.00  0.00    +0.000 OA
ATOM      9  O   UNL     1       1.194  11.952  20.919  0.00  0.00    +0.000 OA
BRANCH   7  10
ATOM     10  N   UNL     1       0.274  12.240  18.544  0.00  0.00    +0.000 N 
ATOM     11  C   UNL     1       0.967  13.445  18.605  0.00  0.00    +0.000 A 
ATOM     12  N   UNL     1       2.285  13.418  18.397  0.00  0.00    +0.000 NA
ATOM     13  C   UNL     1       2.889  14.623  18.353  0.00  0.00    +0.000 A 
ATOM     14  C   UNL     1       4.356  14.657  18.038  0.00  0.00    +0.000 C 
ATOM     15  C   UNL     1       2.201  15.808  18.553  0.00  0.00    +0.000 A 
ATOM     16  C   UNL     1       0.840  15.708  18.775  0.00  0.00    +0.000 A 
ATOM     17  C   UNL     1       0.009  16.932  19.023  0.00  0.00    +0.000 C 
ATOM     18  N   UNL     1       0.197  14.522  18.777  0.00  0.00    +0.000 NA
ATOM     19  H   UNL     1      -0.693  12.386  18.282  0.00  0.00    +0.000 HD
ENDBRANCH   7  10
ENDBRANCH   4   7
BRANCH   1  20
ATOM     20  N   UNL     1       3.040   6.253  18.241  0.00  0.00    +0.000 N 
ATOM     21  H   UNL     1       2.506   5.628  17.624  0.00  0.00    +0.000 HD
BRANCH  20  23
ATOM     22  C   UNL     1       4.870   5.143  19.020  0.00  0.00    +0.000 C 
ATOM     23  N   UNL     1       4.390   6.167  18.372  0.00  0.00    +0.000 NA
BRANCH  22  24
ATOM     24  C   UNL     1       4.057   3.991  19.567  0.00  0.00    +0.000 C 
ATOM     25  O   UNL     1       4.186   2.845  19.160  0.00  0.00    +0.000 OA
BRANCH  24  26
ATOM     26  O   UNL     1       3.155   4.431  20.466  0.00  0.00    +0.000 OA
BRANCH  26  28
ATOM     27  C   UNL     1       0.889   3.760  20.147  0.00  0.00    +0.000 C 
ATOM     28  C   UNL     1       2.184   3.458  20.875  0.00  0.00    +0.000 C 
ENDBRANCH  26  28
ENDBRANCH  24  26
ENDBRANCH  22  24
BRANCH  22  29
ATOM     29  C   UNL     1       6.297   5.248  19.216  0.00  0.00    +0.000 C 
ATOM     30  N   UNL     1       7.450   5.288  19.363  0.00  0.00    +0.000 NA
ENDBRANCH  22  29
ENDBRANCH  20  23
ENDBRANCH   1  20
TORSDOF 8
ENDMDL
