MODEL 1
REMARK VINA RESULT:      -8.8      0.000      0.000
REMARK  Name = 
REMARK  4 active torsions:
REMARK  status: ('A' for Active; 'I' for Inactive)
REMARK    1  A    between atoms: C_2  and  C_3
REMARK    2  A    between atoms: C_3  and  N_4
REMARK    3  A    between atoms: C_10  and  S_11
REMARK    4  A    between atoms: S_11  and  N_14
REMARK                            x       y       z     vdW  Elec       q    Type
REMARK                         _______ _______ _______ _____ _____    ______ ____
ROOT
ATOM      1  N   UNL     1       0.982  10.026  20.406  0.00  0.00    +0.000 N 
ATOM      2  C   UNL     1       0.882   9.477  21.676  0.00  0.00    +0.000 A 
ATOM      3  O   UNL     1       0.437  10.040  22.669  0.00  0.00    +0.000 OA
ATOM      4  O   UNL     1       1.390   8.172  21.710  0.00  0.00    +0.000 OA
ATOM      5  C   UNL     1       1.758   7.947  20.390  0.00  0.00    +0.000 A 
ATOM      6  C   UNL     1       2.388   6.796  19.940  0.00  0.00    +0.000 A 
ATOM      7  C   UNL     1       2.691   6.720  18.576  0.00  0.00    +0.000 A 
ATOM      8  C   UNL     1       2.318   7.763  17.707  0.00  0.00    +0.000 A 
ATOM      9  C   UNL     1       1.702   8.951  18.218  0.00  0.00    +0.000 A 
ATOM     10  C   UNL     1       1.470   9.026  19.570  0.00  0.00    +0.000 A 
ENDROOT
BRANCH   7  11
ATOM     11  S   UNL     1       3.773   5.410  17.995  0.00  0.00    +0.000 S 
ATOM     12  O   UNL     1       4.492   5.948  16.858  0.00  0.00    +0.000 OA
ATOM     13  O   UNL     1       4.485   4.889  19.135  0.00  0.00    +0.000 OA
BRANCH  11  14
ATOM     14  N   UNL     1       2.757   4.161  17.410  0.00  0.00    +0.000 NA
ATOM     15  C   UNL     1       1.336   4.200  17.836  0.00  0.00    +0.000 C 
ATOM     16  C   UNL     1       1.271   3.309  19.062  0.00  0.00    +0.000 C 
ATOM     17  C   UNL     1       2.230   2.181  18.736  0.00  0.00    +0.000 C 
ATOM     18  C   UNL     1       3.252   2.783  17.771  0.00  0.00    +0.000 C 
ENDBRANCH  11  14
ENDBRANCH   7  11
BRANCH   1  19
ATOM     19  C   UNL     1       0.697  11.442  20.135  0.00  0.00    +0.000 C 
BRANCH  19  21
ATOM     20  O   UNL     1      -0.802  11.738  18.348  0.00  0.00    +0.000 OA
ATOM     21  C   UNL     1      -0.702  11.687  19.590  0.00  0.00    +0.000 C 
ATOM     22  N   UNL     1      -1.842  11.972  20.389  0.00  0.00    +0.000 N 
ATOM     23  C   UNL     1      -2.935  12.356  19.522  0.00  0.00    +0.000 C 
ATOM     24  C   UNL     1      -4.322  12.484  20.054  0.00  0.00    +0.000 C 
ATOM     25  C   UNL     1      -4.455  12.838  21.482  0.00  0.00    +0.000 A 
ATOM     26  C   UNL     1      -5.718  13.360  21.856  0.00  0.00    +0.000 A 
ATOM     27  C   UNL     1      -6.027  13.605  23.180  0.00  0.00    +0.000 A 
ATOM     28  C   UNL     1      -5.083  13.268  24.131  0.00  0.00    +0.000 A 
ATOM     29  C   UNL     1      -3.811  12.733  23.758  0.00  0.00    +0.000 A 
ATOM     30  C   UNL     1      -3.449  12.537  22.401  0.00  0.00    +0.000 A 
ATOM     31  C   UNL     1      -2.076  11.974  21.897  0.00  0.00    +0.000 C 
ENDBRANCH  19  21
ENDBRANCH   1  19
TORSDOF 4
ENDMDL
MODEL 2
REMARK VINA RESULT:      -8.6      1.609      2.181
REMARK  Name = 
REMARK  4 active torsions:
REMARK  status: ('A' for Active; 'I' for Inactive)
REMARK    1  A    between atoms: C_2  and  C_3
REMARK    2  A    between atoms: C_3  and  N_4
REMARK    3  A    between atoms: C_10  and  S_11
REMARK    4  A    between atoms: S_11  and  N_14
REMARK                            x       y       z     vdW  Elec       q    Type
REMARK                         _______ _______ _______ _____ _____    ______ ____
ROOT
ATOM      1  N   UNL     1       0.945  10.095  20.468  0.00  0.00    +0.000 N 
ATOM      2  C   UNL     1       0.826   9.531  21.729  0.00  0.00    +0.000 A 
ATOM      3  O   UNL     1       0.374  10.086  22.724  0.00  0.00    +0.000 OA
ATOM      4  O   UNL     1       1.325   8.222  21.753  0.00  0.00    +0.000 OA
ATOM      5  C   UNL     1       1.706   8.012  20.434  0.00  0.00    +0.000 A 
ATOM      6  C   UNL     1       2.333   6.861  19.978  0.00  0.00    +0.000 A 
ATOM      7  C   UNL     1       2.652   6.800  18.616  0.00  0.00    +0.000 A 
ATOM      8  C   UNL     1       2.296   7.856  17.756  0.00  0.00    +0.000 A 
ATOM      9  C   UNL     1       1.683   9.043  18.275  0.00  0.00    +0.000 A 
ATOM     10  C   UNL     1       1.436   9.102  19.625  0.00  0.00    +0.000 A 
ENDROOT
BRANCH   7  11
ATOM     11  S   UNL     1       3.730   5.488  18.032  0.00  0.00    +0.000 S 
ATOM     12  O   UNL     1       4.593   5.144  19.144  0.00  0.00    +0.000 OA
ATOM     13  O   UNL     1       2.905   4.486  17.406  0.00  0.00    +0.000 OA
BRANCH  11  14
ATOM     14  N   UNL     1       4.717   6.175  16.813  0.00  0.00    +0.000 NA
ATOM     15  C   UNL     1       5.280   5.245  15.804  0.00  0.00    +0.000 C 
ATOM     16  C   UNL     1       6.654   4.878  16.333  0.00  0.00    +0.000 C 
ATOM     17  C   UNL     1       7.154   6.168  16.952  0.00  0.00    +0.000 C 
ATOM     18  C   UNL     1       5.897   6.932  17.370  0.00  0.00    +0.000 C 
ENDBRANCH  11  14
ENDBRANCH   7  11
BRANCH   1  19
ATOM     19  C   UNL     1       0.674  11.516  20.211  0.00  0.00    +0.000 C 
BRANCH  19  21
ATOM     20  O   UNL     1      -0.810  11.876  18.422  0.00  0.00    +0.000 OA
ATOM     21  C   UNL     1      -0.720  11.780  19.663  0.00  0.00    +0.000 C 
ATOM     22  N   UNL     1      -1.868  12.034  20.461  0.00  0.00    +0.000 N 
ATOM     23  C   UNL     1      -2.954  12.449  19.600  0.00  0.00    +0.000 C 
ATOM     24  C   UNL     1      -4.345  12.556  20.124  0.00  0.00    +0.000 C 
ATOM     25  C   UNL     1      -4.491  12.857  21.563  0.00  0.00    +0.000 A 
ATOM     26  C   UNL     1      -5.758  13.364  21.944  0.00  0.00    +0.000 A 
ATOM     27  C   UNL     1      -6.079  13.560  23.273  0.00  0.00    +0.000 A 
ATOM     28  C   UNL     1      -5.144  13.190  24.220  0.00  0.00    +0.000 A 
ATOM     29  C   UNL     1      -3.867  12.670  23.838  0.00  0.00    +0.000 A 
ATOM     30  C   UNL     1      -3.493  12.525  22.479  0.00  0.00    +0.000 A 
ATOM     31  C   UNL     1      -2.115  11.981  21.967  0.00  0.00    +0.000 C 
ENDBRANCH  19  21
ENDBRANCH   1  19
TORSDOF 4
ENDMDL
MODEL 3
REMARK VINA RESULT:      -8.4      1.075      1.166
REMARK  Name = 
REMARK  4 active torsions:
REMARK  status: ('A' for Active; 'I' for Inactive)
REMARK    1  A    between atoms: C_2  and  C_3
REMARK    2  A    between atoms: C_3  and  N_4
REMARK    3  A    between atoms: C_10  and  S_11
REMARK    4  A    between atoms: S_11  and  N_14
REMARK                            x       y       z     vdW  Elec       q    Type
REMARK                         _______ _______ _______ _____ _____    ______ ____
ROOT
ATOM      1  N   UNL     1       0.916  10.002  20.438  0.00  0.00    +0.000 N 
ATOM      2  C   UNL     1       0.822   9.438  21.702  0.00  0.00    +0.000 A 
ATOM      3  O   UNL     1       0.362   9.983  22.698  0.00  0.00    +0.000 OA
ATOM      4  O   UNL     1       1.357   8.144  21.726  0.00  0.00    +0.000 OA
ATOM      5  C   UNL     1       1.735   7.939  20.406  0.00  0.00    +0.000 A 
ATOM      6  C   UNL     1       2.390   6.805  19.949  0.00  0.00    +0.000 A 
ATOM      7  C   UNL     1       2.701   6.748  18.585  0.00  0.00    +0.000 A 
ATOM      8  C   UNL     1       2.311   7.792  17.725  0.00  0.00    +0.000 A 
ATOM      9  C   UNL     1       1.668   8.962  18.243  0.00  0.00    +0.000 A 
ATOM     10  C   UNL     1       1.429   9.020  19.595  0.00  0.00    +0.000 A 
ENDROOT
BRANCH   7  11
ATOM     11  S   UNL     1       3.811   5.465  17.997  0.00  0.00    +0.000 S 
ATOM     12  O   UNL     1       4.541   6.037  16.883  0.00  0.00    +0.000 OA
ATOM     13  O   UNL     1       4.513   4.933  19.138  0.00  0.00    +0.000 OA
BRANCH  11  14
ATOM     14  N   UNL     1       2.824   4.214  17.372  0.00  0.00    +0.000 NA
ATOM     15  C   UNL     1       1.395   4.225  17.771  0.00  0.00    +0.000 C 
ATOM     16  C   UNL     1       1.320   3.313  18.980  0.00  0.00    +0.000 C 
ATOM     17  C   UNL     1       2.300   2.204  18.653  0.00  0.00    +0.000 C 
ATOM     18  C   UNL     1       3.331   2.837  17.718  0.00  0.00    +0.000 C 
ENDBRANCH  11  14
ENDBRANCH   7  11
BRANCH   1  19
ATOM     19  C   UNL     1       0.605  11.414  20.179  0.00  0.00    +0.000 C 
BRANCH  19  21
ATOM     20  O   UNL     1      -1.441  11.350  19.020  0.00  0.00    +0.000 OA
ATOM     21  C   UNL     1      -0.887  11.699  20.082  0.00  0.00    +0.000 C 
ATOM     22  N   UNL     1      -1.635  12.423  21.048  0.00  0.00    +0.000 N 
ATOM     23  C   UNL     1      -2.958  12.678  20.520  0.00  0.00    +0.000 C 
ATOM     24  C   UNL     1      -4.040  13.211  21.395  0.00  0.00    +0.000 C 
ATOM     25  C   UNL     1      -3.618  14.036  22.545  0.00  0.00    +0.000 A 
ATOM     26  C   UNL     1      -4.630  14.861  23.095  0.00  0.00    +0.000 A 
ATOM     27  C   UNL     1      -4.414  15.581  24.255  0.00  0.00    +0.000 A 
ATOM     28  C   UNL     1      -3.197  15.424  24.890  0.00  0.00    +0.000 A 
ATOM     29  C   UNL     1      -2.176  14.585  24.340  0.00  0.00    +0.000 A 
ATOM     30  C   UNL     1      -2.354  13.891  23.117  0.00  0.00    +0.000 A 
ATOM     31  C   UNL     1      -1.290  12.967  22.433  0.00  0.00    +0.000 C 
ENDBRANCH  19  21
ENDBRANCH   1  19
TORSDOF 4
ENDMDL
MODEL 4
REMARK VINA RESULT:      -8.3      1.327      1.466
REMARK  Name = 
REMARK  4 active torsions:
REMARK  status: ('A' for Active; 'I' for Inactive)
REMARK    1  A    between atoms: C_2  and  C_3
REMARK    2  A    between atoms: C_3  and  N_4
REMARK    3  A    between atoms: C_10  and  S_11
REMARK    4  A    between atoms: S_11  and  N_14
REMARK                            x       y       z     vdW  Elec       q    Type
REMARK                         _______ _______ _______ _____ _____    ______ ____
ROOT
ATOM      1  N   UNL     1       1.330   8.952  19.769  0.00  0.00    +0.000 N 
ATOM      2  C   UNL     1       0.966   8.422  20.998  0.00  0.00    +0.000 A 
ATOM      3  O   UNL     1       0.267   8.975  21.839  0.00  0.00    +0.000 OA
ATOM      4  O   UNL     1       1.528   7.154  21.195  0.00  0.00    +0.000 OA
ATOM      5  C   UNL     1       2.210   6.929  20.007  0.00  0.00    +0.000 A 
ATOM      6  C   UNL     1       2.995   5.812  19.758  0.00  0.00    +0.000 A 
ATOM      7  C   UNL     1       3.616   5.730  18.506  0.00  0.00    +0.000 A 
ATOM      8  C   UNL     1       3.397   6.729  17.538  0.00  0.00    +0.000 A 
ATOM      9  C   UNL     1       2.609   7.884  17.849  0.00  0.00    +0.000 A 
ATOM     10  C   UNL     1       2.061   7.970  19.106  0.00  0.00    +0.000 A 
ENDROOT
BRANCH   7  11
ATOM     11  S   UNL     1       4.879   4.481  18.241  0.00  0.00    +0.000 S 
ATOM     12  O   UNL     1       5.628   4.901  17.073  0.00  0.00    +0.000 OA
ATOM     13  O   UNL     1       5.546   4.256  19.498  0.00  0.00    +0.000 OA
BRANCH  11  14
ATOM     14  N   UNL     1       4.058   3.036  17.828  0.00  0.00    +0.000 NA
ATOM     15  C   UNL     1       2.775   3.179  17.097  0.00  0.00    +0.000 C 
ATOM     16  C   UNL     1       1.707   3.160  18.174  0.00  0.00    +0.000 C 
ATOM     17  C   UNL     1       2.227   2.147  19.174  0.00  0.00    +0.000 C 
ATOM     18  C   UNL     1       3.749   2.174  19.026  0.00  0.00    +0.000 C 
ENDBRANCH  11  14
ENDBRANCH   7  11
BRANCH   1  19
ATOM     19  C   UNL     1       1.035  10.340  19.390  0.00  0.00    +0.000 C 
BRANCH  19  21
ATOM     20  O   UNL     1      -0.555  10.101  17.673  0.00  0.00    +0.000 OA
ATOM     21  C   UNL     1      -0.366  10.533  18.828  0.00  0.00    +0.000 C 
ATOM     22  N   UNL     1      -1.403  11.258  19.474  0.00  0.00    +0.000 N 
ATOM     23  C   UNL     1      -2.510  11.409  18.555  0.00  0.00    +0.000 C 
ATOM     24  C   UNL     1      -3.829  11.919  19.026  0.00  0.00    +0.000 C 
ATOM     25  C   UNL     1      -3.812  12.822  20.194  0.00  0.00    +0.000 A 
ATOM     26  C   UNL     1      -4.978  13.612  20.358  0.00  0.00    +0.000 A 
ATOM     27  C   UNL     1      -5.156  14.399  21.480  0.00  0.00    +0.000 A 
ATOM     28  C   UNL     1      -4.185  14.344  22.462  0.00  0.00    +0.000 A 
ATOM     29  C   UNL     1      -3.012  13.542  22.303  0.00  0.00    +0.000 A 
ATOM     30  C   UNL     1      -2.778  12.780  21.130  0.00  0.00    +0.000 A 
ATOM     31  C   UNL     1      -1.519  11.887  20.860  0.00  0.00    +0.000 C 
ENDBRANCH  19  21
ENDBRANCH   1  19
TORSDOF 4
ENDMDL
MODEL 5
REMARK VINA RESULT:      -8.3      0.682      1.033
REMARK  Name = 
REMARK  4 active torsions:
REMARK  status: ('A' for Active; 'I' for Inactive)
REMARK    1  A    between atoms: C_2  and  C_3
REMARK    2  A    between atoms: C_3  and  N_4
REMARK    3  A    between atoms: C_10  and  S_11
REMARK    4  A    between atoms: S_11  and  N_14
REMARK                            x       y       z     vdW  Elec       q    Type
REMARK                         _______ _______ _______ _____ _____    ______ ____
ROOT
ATOM      1  N   UNL     1       0.810  10.134  20.450  0.00  0.00    +0.000 N 
ATOM      2  C   UNL     1       0.667   9.711  21.763  0.00  0.00    +0.000 A 
ATOM      3  O   UNL     1       0.172  10.361  22.676  0.00  0.00    +0.000 OA
ATOM      4  O   UNL     1       1.194   8.426  21.947  0.00  0.00    +0.000 OA
ATOM      5  C   UNL     1       1.620   8.080  20.671  0.00  0.00    +0.000 A 
ATOM      6  C   UNL     1       2.286   6.902  20.364  0.00  0.00    +0.000 A 
ATOM      7  C   UNL     1       2.647   6.699  19.027  0.00  0.00    +0.000 A 
ATOM      8  C   UNL     1       2.293   7.643  18.045  0.00  0.00    +0.000 A 
ATOM      9  C   UNL     1       1.638   8.863  18.409  0.00  0.00    +0.000 A 
ATOM     10  C   UNL     1       1.349   9.067  19.738  0.00  0.00    +0.000 A 
ENDROOT
BRANCH   7  11
ATOM     11  S   UNL     1       3.772   5.359  18.623  0.00  0.00    +0.000 S 
ATOM     12  O   UNL     1       3.693   5.178  17.187  0.00  0.00    +0.000 OA
ATOM     13  O   UNL     1       5.036   5.638  19.258  0.00  0.00    +0.000 OA
BRANCH  11  14
ATOM     14  N   UNL     1       3.132   3.948  19.351  0.00  0.00    +0.000 NA
ATOM     15  C   UNL     1       3.980   2.731  19.313  0.00  0.00    +0.000 C 
ATOM     16  C   UNL     1       3.524   1.975  18.080  0.00  0.00    +0.000 C 
ATOM     17  C   UNL     1       2.025   2.200  18.056  0.00  0.00    +0.000 C 
ATOM     18  C   UNL     1       1.804   3.535  18.767  0.00  0.00    +0.000 C 
ENDBRANCH  11  14
ENDBRANCH   7  11
BRANCH   1  19
ATOM     19  C   UNL     1       0.515  11.510  20.028  0.00  0.00    +0.000 C 
BRANCH  19  21
ATOM     20  O   UNL     1      -0.978  11.603  18.213  0.00  0.00    +0.000 OA
ATOM     21  C   UNL     1      -0.883  11.683  19.454  0.00  0.00    +0.000 C 
ATOM     22  N   UNL     1      -2.031  12.038  20.213  0.00  0.00    +0.000 N 
ATOM     23  C   UNL     1      -3.123  12.318  19.307  0.00  0.00    +0.000 C 
ATOM     24  C   UNL     1      -4.513  12.487  19.816  0.00  0.00    +0.000 C 
ATOM     25  C   UNL     1      -4.658  12.987  21.199  0.00  0.00    +0.000 A 
ATOM     26  C   UNL     1      -5.928  13.532  21.510  0.00  0.00    +0.000 A 
ATOM     27  C   UNL     1      -6.247  13.911  22.800  0.00  0.00    +0.000 A 
ATOM     28  C   UNL     1      -5.305  13.685  23.786  0.00  0.00    +0.000 A 
ATOM     29  C   UNL     1      -4.025  13.126  23.475  0.00  0.00    +0.000 A 
ATOM     30  C   UNL     1      -3.654  12.794  22.148  0.00  0.00    +0.000 A 
ATOM     31  C   UNL     1      -2.273  12.195  21.713  0.00  0.00    +0.000 C 
ENDBRANCH  19  21
ENDBRANCH   1  19
TORSDOF 4
ENDMDL
MODEL 6
REMARK VINA RESULT:      -8.3      3.610     10.326
REMARK  Name = 
REMARK  4 active torsions:
REMARK  status: ('A' for Active; 'I' for Inactive)
REMARK    1  A    between atoms: C_2  and  C_3
REMARK    2  A    between atoms: C_3  and  N_4
REMARK    3  A    between atoms: C_10  and  S_11
REMARK    4  A    between atoms: S_11  and  N_14
REMARK                            x       y       z     vdW  Elec       q    Type
REMARK                         _______ _______ _______ _____ _____    ______ ____
ROOT
ATOM      1  N   UNL     1       2.632   5.798  19.423  0.00  0.00    +0.000 N 
ATOM      2  C   UNL     1       2.205   5.463  20.699  0.00  0.00    +0.000 A 
ATOM      3  O   UNL     1       2.382   4.386  21.256  0.00  0.00    +0.000 OA
ATOM      4  O   UNL     1       1.496   6.515  21.294  0.00  0.00    +0.000 OA
ATOM      5  C   UNL     1       1.558   7.514  20.331  0.00  0.00    +0.000 A 
ATOM      6  C   UNL     1       0.926   8.744  20.442  0.00  0.00    +0.000 A 
ATOM      7  C   UNL     1       1.089   9.647  19.384  0.00  0.00    +0.000 A 
ATOM      8  C   UNL     1       1.906   9.315  18.287  0.00  0.00    +0.000 A 
ATOM      9  C   UNL     1       2.511   8.020  18.195  0.00  0.00    +0.000 A 
ATOM     10  C   UNL     1       2.286   7.130  19.217  0.00  0.00    +0.000 A 
ENDROOT
BRANCH   7  11
ATOM     11  S   UNL     1       0.054  11.114  19.324  0.00  0.00    +0.000 S 
ATOM     12  O   UNL     1      -0.885  10.995  20.422  0.00  0.00    +0.000 OA
ATOM     13  O   UNL     1       0.922  12.261  19.222  0.00  0.00    +0.000 OA
BRANCH  11  14
ATOM     14  N   UNL     1      -0.845  11.018  17.871  0.00  0.00    +0.000 NA
ATOM     15  C   UNL     1      -1.925  12.018  17.684  0.00  0.00    +0.000 C 
ATOM     16  C   UNL     1      -3.182  11.333  18.189  0.00  0.00    +0.000 C 
ATOM     17  C   UNL     1      -3.008   9.895  17.747  0.00  0.00    +0.000 C 
ATOM     18  C   UNL     1      -1.497   9.673  17.670  0.00  0.00    +0.000 C 
ENDBRANCH  11  14
ENDBRANCH   7  11
BRANCH   1  19
ATOM     19  C   UNL     1       3.232   4.816  18.509  0.00  0.00    +0.000 C 
BRANCH  19  21
ATOM     20  O   UNL     1       5.321   5.799  18.955  0.00  0.00    +0.000 OA
ATOM     21  C   UNL     1       4.666   5.143  18.121  0.00  0.00    +0.000 C 
ATOM     22  N   UNL     1       5.246   4.856  16.856  0.00  0.00    +0.000 N 
ATOM     23  C   UNL     1       6.541   5.497  16.780  0.00  0.00    +0.000 C 
ATOM     24  C   UNL     1       7.484   5.183  15.669  0.00  0.00    +0.000 C 
ATOM     25  C   UNL     1       6.883   4.753  14.390  0.00  0.00    +0.000 A 
ATOM     26  C   UNL     1       7.730   4.870  13.260  0.00  0.00    +0.000 A 
ATOM     27  C   UNL     1       7.348   4.379  12.026  0.00  0.00    +0.000 A 
ATOM     28  C   UNL     1       6.137   3.719  11.946  0.00  0.00    +0.000 A 
ATOM     29  C   UNL     1       5.284   3.591  13.087  0.00  0.00    +0.000 A 
ATOM     30  C   UNL     1       5.627   4.147  14.346  0.00  0.00    +0.000 A 
ATOM     31  C   UNL     1       4.751   4.073  15.642  0.00  0.00    +0.000 C 
ENDBRANCH  19  21
ENDBRANCH   1  19
TORSDOF 4
ENDMDL
MODEL 7
REMARK VINA RESULT:      -8.2      3.487     10.528
REMARK  Name = 
REMARK  4 active torsions:
REMARK  status: ('A' for Active; 'I' for Inactive)
REMARK    1  A    between atoms: C_2  and  C_3
REMARK    2  A    between atoms: C_3  and  N_4
REMARK    3  A    between atoms: C_10  and  S_11
REMARK    4  A    between atoms: S_11  and  N_14
REMARK                            x       y       z     vdW  Elec       q    Type
REMARK                         _______ _______ _______ _____ _____    ______ ____
ROOT
ATOM      1  N   UNL     1       2.601   5.991  19.387  0.00  0.00    +0.000 N 
ATOM      2  C   UNL     1       2.159   5.756  20.681  0.00  0.00    +0.000 A 
ATOM      3  O   UNL     1       2.322   4.722  21.318  0.00  0.00    +0.000 OA
ATOM      4  O   UNL     1       1.453   6.855  21.187  0.00  0.00    +0.000 OA
ATOM      5  C   UNL     1       1.532   7.778  20.153  0.00  0.00    +0.000 A 
ATOM      6  C   UNL     1       0.908   9.017  20.164  0.00  0.00    +0.000 A 
ATOM      7  C   UNL     1       1.088   9.837  19.044  0.00  0.00    +0.000 A 
ATOM      8  C   UNL     1       1.913   9.418  17.983  0.00  0.00    +0.000 A 
ATOM      9  C   UNL     1       2.509   8.115  17.994  0.00  0.00    +0.000 A 
ATOM     10  C   UNL     1       2.267   7.306  19.078  0.00  0.00    +0.000 A 
ENDROOT
BRANCH   7  11
ATOM     11  S   UNL     1       0.066  11.302  18.863  0.00  0.00    +0.000 S 
ATOM     12  O   UNL     1       0.970  12.397  18.574  0.00  0.00    +0.000 OA
ATOM     13  O   UNL     1      -1.010  10.980  17.959  0.00  0.00    +0.000 OA
BRANCH  11  14
ATOM     14  N   UNL     1      -0.628  11.605  20.399  0.00  0.00    +0.000 NA
ATOM     15  C   UNL     1      -1.971  12.236  20.415  0.00  0.00    +0.000 C 
ATOM     16  C   UNL     1      -1.703  13.723  20.542  0.00  0.00    +0.000 C 
ATOM     17  C   UNL     1      -0.510  13.793  21.474  0.00  0.00    +0.000 C 
ATOM     18  C   UNL     1       0.239  12.475  21.274  0.00  0.00    +0.000 C 
ENDBRANCH  11  14
ENDBRANCH   7  11
BRANCH   1  19
ATOM     19  C   UNL     1       3.202   4.938  18.556  0.00  0.00    +0.000 C 
BRANCH  19  21
ATOM     20  O   UNL     1       5.320   5.861  18.997  0.00  0.00    +0.000 OA
ATOM     21  C   UNL     1       4.645   5.221  18.166  0.00  0.00    +0.000 C 
ATOM     22  N   UNL     1       5.216   4.912  16.902  0.00  0.00    +0.000 N 
ATOM     23  C   UNL     1       6.529   5.515  16.823  0.00  0.00    +0.000 C 
ATOM     24  C   UNL     1       7.462   5.168  15.713  0.00  0.00    +0.000 C 
ATOM     25  C   UNL     1       6.848   4.751  14.436  0.00  0.00    +0.000 A 
ATOM     26  C   UNL     1       7.698   4.838  13.305  0.00  0.00    +0.000 A 
ATOM     27  C   UNL     1       7.301   4.354  12.074  0.00  0.00    +0.000 A 
ATOM     28  C   UNL     1       6.071   3.729  11.997  0.00  0.00    +0.000 A 
ATOM     29  C   UNL     1       5.215   3.632  13.139  0.00  0.00    +0.000 A 
ATOM     30  C   UNL     1       5.575   4.182  14.395  0.00  0.00    +0.000 A 
ATOM     31  C   UNL     1       4.698   4.139  15.692  0.00  0.00    +0.000 C 
ENDBRANCH  19  21
ENDBRANCH   1  19
TORSDOF 4
ENDMDL
MODEL 8
REMARK VINA RESULT:      -8.2      1.913      3.298
REMARK  Name = 
REMARK  4 active torsions:
REMARK  status: ('A' for Active; 'I' for Inactive)
REMARK    1  A    between atoms: C_2  and  C_3
REMARK    2  A    between atoms: C_3  and  N_4
REMARK    3  A    between atoms: C_10  and  S_11
REMARK    4  A    between atoms: S_11  and  N_14
REMARK                            x       y       z     vdW  Elec       q    Type
REMARK                         _______ _______ _______ _____ _____    ______ ____
ROOT
ATOM      1  N   UNL     1       0.934  10.193  21.109  0.00  0.00    +0.000 N 
ATOM      2  C   UNL     1       0.722   9.495  22.288  0.00  0.00    +0.000 A 
ATOM      3  O   UNL     1       0.269   9.960  23.327  0.00  0.00    +0.000 OA
ATOM      4  O   UNL     1       1.126   8.158  22.170  0.00  0.00    +0.000 OA
ATOM      5  C   UNL     1       1.547   8.076  20.850  0.00  0.00    +0.000 A 
ATOM      6  C   UNL     1       2.110   6.943  20.279  0.00  0.00    +0.000 A 
ATOM      7  C   UNL     1       2.481   7.020  18.931  0.00  0.00    +0.000 A 
ATOM      8  C   UNL     1       2.238   8.194  18.194  0.00  0.00    +0.000 A 
ATOM      9  C   UNL     1       1.688   9.354  18.831  0.00  0.00    +0.000 A 
ATOM     10  C   UNL     1       1.389   9.272  20.169  0.00  0.00    +0.000 A 
ENDROOT
BRANCH   7  11
ATOM     11  S   UNL     1       3.487   5.709  18.230  0.00  0.00    +0.000 S 
ATOM     12  O   UNL     1       4.184   6.291  17.099  0.00  0.00    +0.000 OA
ATOM     13  O   UNL     1       4.222   5.094  19.306  0.00  0.00    +0.000 OA
BRANCH  11  14
ATOM     14  N   UNL     1       2.402   4.537  17.613  0.00  0.00    +0.000 NA
ATOM     15  C   UNL     1       1.363   4.031  18.543  0.00  0.00    +0.000 C 
ATOM     16  C   UNL     1       1.958   2.771  19.143  0.00  0.00    +0.000 C 
ATOM     17  C   UNL     1       2.714   2.146  17.988  0.00  0.00    +0.000 C 
ATOM     18  C   UNL     1       3.102   3.313  17.078  0.00  0.00    +0.000 C 
ENDBRANCH  11  14
ENDBRANCH   7  11
BRANCH   1  19
ATOM     19  C   UNL     1       0.776  11.651  21.017  0.00  0.00    +0.000 C 
BRANCH  19  21
ATOM     20  O   UNL     1      -1.201  12.575  21.894  0.00  0.00    +0.000 OA
ATOM     21  C   UNL     1      -0.672  12.097  20.871  0.00  0.00    +0.000 C 
ATOM     22  N   UNL     1      -1.466  11.897  19.710  0.00  0.00    +0.000 N 
ATOM     23  C   UNL     1      -2.835  12.254  20.013  0.00  0.00    +0.000 C 
ATOM     24  C   UNL     1      -3.850  12.372  18.928  0.00  0.00    +0.000 C 
ATOM     25  C   UNL     1      -3.634  11.546  17.723  0.00  0.00    +0.000 A 
ATOM     26  C   UNL     1      -4.783  11.347  16.918  0.00  0.00    +0.000 A 
ATOM     27  C   UNL     1      -4.697  10.712  15.694  0.00  0.00    +0.000 A 
ATOM     28  C   UNL     1      -3.444  10.328  15.257  0.00  0.00    +0.000 A 
ATOM     29  C   UNL     1      -2.281  10.535  16.065  0.00  0.00    +0.000 A 
ATOM     30  C   UNL     1      -2.357  11.124  17.352  0.00  0.00    +0.000 A 
ATOM     31  C   UNL     1      -1.144  11.374  18.312  0.00  0.00    +0.000 C 
ENDBRANCH  19  21
ENDBRANCH   1  19
TORSDOF 4
ENDMDL
MODEL 9
REMARK VINA RESULT:      -8.1      1.471      1.829
REMARK  Name = 
REMARK  4 active torsions:
REMARK  status: ('A' for Active; 'I' for Inactive)
REMARK    1  A    between atoms: C_2  and  C_3
REMARK    2  A    between atoms: C_3  and  N_4
REMARK    3  A    between atoms: C_10  and  S_11
REMARK    4  A    between atoms: S_11  and  N_14
REMARK                            x       y       z     vdW  Elec       q    Type
REMARK                         _______ _______ _______ _____ _____    ______ ____
ROOT
ATOM      1  N   UNL     1       0.262  10.681  21.086  0.00  0.00    +0.000 N 
ATOM      2  C   UNL     1       0.253  10.026  22.309  0.00  0.00    +0.000 A 
ATOM      3  O   UNL     1      -0.184  10.477  23.361  0.00  0.00    +0.000 OA
ATOM      4  O   UNL     1       0.847   8.761  22.215  0.00  0.00    +0.000 OA
ATOM      5  C   UNL     1       1.172   8.669  20.868  0.00  0.00    +0.000 A 
ATOM      6  C   UNL     1       1.856   7.603  20.302  0.00  0.00    +0.000 A 
ATOM      7  C   UNL     1       2.104   7.658  18.925  0.00  0.00    +0.000 A 
ATOM      8  C   UNL     1       1.626   8.739  18.160  0.00  0.00    +0.000 A 
ATOM      9  C   UNL     1       0.956   9.838  18.791  0.00  0.00    +0.000 A 
ATOM     10  C   UNL     1       0.779   9.788  20.152  0.00  0.00    +0.000 A 
ENDROOT
BRANCH   7  11
ATOM     11  S   UNL     1       3.242   6.476  18.197  0.00  0.00    +0.000 S 
ATOM     12  O   UNL     1       2.427   5.498  17.504  0.00  0.00    +0.000 OA
ATOM     13  O   UNL     1       4.257   7.218  17.491  0.00  0.00    +0.000 OA
BRANCH  11  14
ATOM     14  N   UNL     1       4.008   5.670  19.499  0.00  0.00    +0.000 NA
ATOM     15  C   UNL     1       5.423   5.272  19.302  0.00  0.00    +0.000 C 
ATOM     16  C   UNL     1       5.361   3.840  18.806  0.00  0.00    +0.000 C 
ATOM     17  C   UNL     1       4.211   3.240  19.590  0.00  0.00    +0.000 C 
ATOM     18  C   UNL     1       3.287   4.413  19.918  0.00  0.00    +0.000 C 
ENDBRANCH  11  14
ENDBRANCH   7  11
BRANCH   1  19
ATOM     19  C   UNL     1      -0.125  12.091  20.944  0.00  0.00    +0.000 C 
BRANCH  19  21
ATOM     20  O   UNL     1      -1.408  12.413  18.999  0.00  0.00    +0.000 OA
ATOM     21  C   UNL     1      -1.459  12.287  20.239  0.00  0.00    +0.000 C 
ATOM     22  N   UNL     1      -2.707  12.449  20.900  0.00  0.00    +0.000 N 
ATOM     23  C   UNL     1      -3.707  12.823  19.924  0.00  0.00    +0.000 C 
ATOM     24  C   UNL     1      -5.155  12.831  20.280  0.00  0.00    +0.000 C 
ATOM     25  C   UNL     1      -5.488  13.082  21.697  0.00  0.00    +0.000 A 
ATOM     26  C   UNL     1      -6.820  13.502  21.935  0.00  0.00    +0.000 A 
ATOM     27  C   UNL     1      -7.308  13.640  23.220  0.00  0.00    +0.000 A 
ATOM     28  C   UNL     1      -6.469  13.299  24.264  0.00  0.00    +0.000 A 
ATOM     29  C   UNL     1      -5.126  12.867  24.026  0.00  0.00    +0.000 A 
ATOM     30  C   UNL     1      -4.586  12.783  22.719  0.00  0.00    +0.000 A 
ATOM     31  C   UNL     1      -3.126  12.338  22.364  0.00  0.00    +0.000 C 
ENDBRANCH  19  21
ENDBRANCH   1  19
TORSDOF 4
ENDMDL
