MODEL 1
REMARK VINA RESULT:      -4.8      0.000      0.000
REMARK  Name = 
REMARK  2 active torsions:
REMARK  status: ('A' for Active; 'I' for Inactive)
REMARK    1  A    between atoms: C_1  and  C_2
REMARK    2  A    between atoms: C_6  and  O_7
REMARK                            x       y       z     vdW  Elec       q    Type
REMARK                         _______ _______ _______ _____ _____    ______ ____
ROOT
ATOM      1  C   UNL     1       1.473   4.367  17.658  0.00  0.00    +0.000 C 
ATOM      2  C   UNL     1       1.951   3.735  18.931  0.00  0.00    +0.000 A 
ATOM      3  C   UNL     1       1.144   3.705  20.075  0.00  0.00    +0.000 A 
ATOM      4  C   UNL     1       1.610   3.116  21.253  0.00  0.00    +0.000 A 
ATOM      5  C   UNL     1       2.885   2.552  21.299  0.00  0.00    +0.000 A 
ATOM      6  C   UNL     1       3.684   2.580  20.161  0.00  0.00    +0.000 A 
ATOM      7  C   UNL     1       3.230   3.166  18.984  0.00  0.00    +0.000 A 
ENDROOT
BRANCH   6   8
ATOM      8  O   UNL     1       4.935   2.038  20.157  0.00  0.00    +0.000 OA
ATOM      9  H   UNL     1       4.923   1.233  20.699  0.00  0.00    +0.000 HD
ENDBRANCH   6   8
TORSDOF 1
ENDMDL
MODEL 2
REMARK VINA RESULT:      -4.7      1.090      2.238
REMARK  Name = 
REMARK  2 active torsions:
REMARK  status: ('A' for Active; 'I' for Inactive)
REMARK    1  A    between atoms: C_1  and  C_2
REMARK    2  A    between atoms: C_6  and  O_7
REMARK                            x       y       z     vdW  Elec       q    Type
REMARK                         _______ _______ _______ _____ _____    ______ ____
ROOT
ATOM      1  C   UNL     1       1.036   4.325  20.535  0.00  0.00    +0.000 C 
ATOM      2  C   UNL     1       1.922   3.440  19.709  0.00  0.00    +0.000 A 
ATOM      3  C   UNL     1       1.562   3.062  18.410  0.00  0.00    +0.000 A 
ATOM      4  C   UNL     1       2.398   2.233  17.658  0.00  0.00    +0.000 A 
ATOM      5  C   UNL     1       3.601   1.775  18.197  0.00  0.00    +0.000 A 
ATOM      6  C   UNL     1       3.957   2.154  19.486  0.00  0.00    +0.000 A 
ATOM      7  C   UNL     1       3.131   2.977  20.243  0.00  0.00    +0.000 A 
ENDROOT
BRANCH   6   8
ATOM      8  O   UNL     1       5.124   1.734  20.054  0.00  0.00    +0.000 OA
ATOM      9  H   UNL     1       5.695   1.377  19.354  0.00  0.00    +0.000 HD
ENDBRANCH   6   8
TORSDOF 1
ENDMDL
MODEL 3
REMARK VINA RESULT:      -4.7      2.249      2.529
REMARK  Name = 
REMARK  2 active torsions:
REMARK  status: ('A' for Active; 'I' for Inactive)
REMARK    1  A    between atoms: C_1  and  C_2
REMARK    2  A    between atoms: C_6  and  O_7
REMARK                            x       y       z     vdW  Elec       q    Type
REMARK                         _______ _______ _______ _____ _____    ______ ____
ROOT
ATOM      1  C   UNL     1       2.688   6.173  18.130  0.00  0.00    +0.000 C 
ATOM      2  C   UNL     1       2.148   5.038  18.947  0.00  0.00    +0.000 A 
ATOM      3  C   UNL     1       2.285   5.016  20.341  0.00  0.00    +0.000 A 
ATOM      4  C   UNL     1       1.780   3.947  21.084  0.00  0.00    +0.000 A 
ATOM      5  C   UNL     1       1.132   2.890  20.443  0.00  0.00    +0.000 A 
ATOM      6  C   UNL     1       0.994   2.915  19.060  0.00  0.00    +0.000 A 
ATOM      7  C   UNL     1       1.496   3.974  18.311  0.00  0.00    +0.000 A 
ENDROOT
BRANCH   6   8
ATOM      8  O   UNL     1       0.366   1.908  18.389  0.00  0.00    +0.000 OA
ATOM      9  H   UNL     1       0.237   2.185  17.467  0.00  0.00    +0.000 HD
ENDBRANCH   6   8
TORSDOF 1
ENDMDL
MODEL 4
REMARK VINA RESULT:      -4.6      1.108      2.618
REMARK  Name = 
REMARK  2 active torsions:
REMARK  status: ('A' for Active; 'I' for Inactive)
REMARK    1  A    between atoms: C_1  and  C_2
REMARK    2  A    between atoms: C_6  and  O_7
REMARK                            x       y       z     vdW  Elec       q    Type
REMARK                         _______ _______ _______ _____ _____    ______ ____
ROOT
ATOM      1  C   UNL     1       1.302   2.852  21.246  0.00  0.00    +0.000 C 
ATOM      2  C   UNL     1       2.047   3.191  19.989  0.00  0.00    +0.000 A 
ATOM      3  C   UNL     1       1.369   3.560  18.821  0.00  0.00    +0.000 A 
ATOM      4  C   UNL     1       2.081   3.868  17.659  0.00  0.00    +0.000 A 
ATOM      5  C   UNL     1       3.475   3.811  17.653  0.00  0.00    +0.000 A 
ATOM      6  C   UNL     1       4.145   3.447  18.816  0.00  0.00    +0.000 A 
ATOM      7  C   UNL     1       3.446   3.137  19.977  0.00  0.00    +0.000 A 
ENDROOT
BRANCH   6   8
ATOM      8  O   UNL     1       5.507   3.381  18.860  0.00  0.00    +0.000 OA
ATOM      9  H   UNL     1       5.826   3.040  18.009  0.00  0.00    +0.000 HD
ENDBRANCH   6   8
TORSDOF 1
ENDMDL
MODEL 5
REMARK VINA RESULT:      -4.6      2.099      2.565
REMARK  Name = 
REMARK  2 active torsions:
REMARK  status: ('A' for Active; 'I' for Inactive)
REMARK    1  A    between atoms: C_1  and  C_2
REMARK    2  A    between atoms: C_6  and  O_7
REMARK                            x       y       z     vdW  Elec       q    Type
REMARK                         _______ _______ _______ _____ _____    ______ ____
ROOT
ATOM      1  C   UNL     1       4.356   5.476  17.026  0.00  0.00    +0.000 C 
ATOM      2  C   UNL     1       3.506   4.343  17.519  0.00  0.00    +0.000 A 
ATOM      3  C   UNL     1       2.150   4.529  17.817  0.00  0.00    +0.000 A 
ATOM      4  C   UNL     1       1.377   3.462  18.280  0.00  0.00    +0.000 A 
ATOM      5  C   UNL     1       1.948   2.200  18.448  0.00  0.00    +0.000 A 
ATOM      6  C   UNL     1       3.294   2.018  18.148  0.00  0.00    +0.000 A 
ATOM      7  C   UNL     1       4.073   3.074  17.689  0.00  0.00    +0.000 A 
ENDROOT
BRANCH   6   8
ATOM      8  O   UNL     1       3.896   0.803  18.293  0.00  0.00    +0.000 OA
ATOM      9  H   UNL     1       4.849   0.913  18.143  0.00  0.00    +0.000 HD
ENDBRANCH   6   8
TORSDOF 1
ENDMDL
MODEL 6
REMARK VINA RESULT:      -4.6      1.328      2.737
REMARK  Name = 
REMARK  2 active torsions:
REMARK  status: ('A' for Active; 'I' for Inactive)
REMARK    1  A    between atoms: C_1  and  C_2
REMARK    2  A    between atoms: C_6  and  O_7
REMARK                            x       y       z     vdW  Elec       q    Type
REMARK                         _______ _______ _______ _____ _____    ______ ____
ROOT
ATOM      1  C   UNL     1       1.448   2.865  21.520  0.00  0.00    +0.000 C 
ATOM      2  C   UNL     1       1.848   2.988  20.080  0.00  0.00    +0.000 A 
ATOM      3  C   UNL     1       1.248   3.932  19.237  0.00  0.00    +0.000 A 
ATOM      4  C   UNL     1       1.631   4.028  17.898  0.00  0.00    +0.000 A 
ATOM      5  C   UNL     1       2.617   3.183  17.387  0.00  0.00    +0.000 A 
ATOM      6  C   UNL     1       3.214   2.249  18.226  0.00  0.00    +0.000 A 
ATOM      7  C   UNL     1       2.839   2.145  19.561  0.00  0.00    +0.000 A 
ENDROOT
BRANCH   6   8
ATOM      8  O   UNL     1       4.186   1.405  17.774  0.00  0.00    +0.000 OA
ATOM      9  H   UNL     1       4.949   1.937  17.494  0.00  0.00    +0.000 HD
ENDBRANCH   6   8
TORSDOF 1
ENDMDL
MODEL 7
REMARK VINA RESULT:      -4.5      2.009      2.639
REMARK  Name = 
REMARK  2 active torsions:
REMARK  status: ('A' for Active; 'I' for Inactive)
REMARK    1  A    between atoms: C_1  and  C_2
REMARK    2  A    between atoms: C_6  and  O_7
REMARK                            x       y       z     vdW  Elec       q    Type
REMARK                         _______ _______ _______ _____ _____    ______ ____
ROOT
ATOM      1  C   UNL     1       2.599   6.557  19.551  0.00  0.00    +0.000 C 
ATOM      2  C   UNL     1       2.129   5.134  19.609  0.00  0.00    +0.000 A 
ATOM      3  C   UNL     1       1.765   4.441  18.447  0.00  0.00    +0.000 A 
ATOM      4  C   UNL     1       1.325   3.118  18.523  0.00  0.00    +0.000 A 
ATOM      5  C   UNL     1       1.245   2.473  19.758  0.00  0.00    +0.000 A 
ATOM      6  C   UNL     1       1.610   3.162  20.910  0.00  0.00    +0.000 A 
ATOM      7  C   UNL     1       2.048   4.481  20.845  0.00  0.00    +0.000 A 
ENDROOT
BRANCH   6   8
ATOM      8  O   UNL     1       1.552   2.574  22.139  0.00  0.00    +0.000 OA
ATOM      9  H   UNL     1       2.236   2.972  22.702  0.00  0.00    +0.000 HD
ENDBRANCH   6   8
TORSDOF 1
ENDMDL
MODEL 8
REMARK VINA RESULT:      -4.5      2.305      3.528
REMARK  Name = 
REMARK  2 active torsions:
REMARK  status: ('A' for Active; 'I' for Inactive)
REMARK    1  A    between atoms: C_1  and  C_2
REMARK    2  A    between atoms: C_6  and  O_7
REMARK                            x       y       z     vdW  Elec       q    Type
REMARK                         _______ _______ _______ _____ _____    ______ ____
ROOT
ATOM      1  C   UNL     1       1.373   2.644  21.609  0.00  0.00    +0.000 C 
ATOM      2  C   UNL     1       1.610   3.580  20.461  0.00  0.00    +0.000 A 
ATOM      3  C   UNL     1       1.384   3.178  19.138  0.00  0.00    +0.000 A 
ATOM      4  C   UNL     1       1.616   4.063  18.082  0.00  0.00    +0.000 A 
ATOM      5  C   UNL     1       2.074   5.356  18.337  0.00  0.00    +0.000 A 
ATOM      6  C   UNL     1       2.295   5.753  19.651  0.00  0.00    +0.000 A 
ATOM      7  C   UNL     1       2.069   4.879  20.709  0.00  0.00    +0.000 A 
ENDROOT
BRANCH   6   8
ATOM      8  O   UNL     1       2.740   7.007  19.949  0.00  0.00    +0.000 OA
ATOM      9  H   UNL     1       2.243   7.645  19.412  0.00  0.00    +0.000 HD
ENDBRANCH   6   8
TORSDOF 1
ENDMDL
MODEL 9
REMARK VINA RESULT:      -4.5      1.508      2.708
REMARK  Name = 
REMARK  2 active torsions:
REMARK  status: ('A' for Active; 'I' for Inactive)
REMARK    1  A    between atoms: C_1  and  C_2
REMARK    2  A    between atoms: C_6  and  O_7
REMARK                            x       y       z     vdW  Elec       q    Type
REMARK                         _______ _______ _______ _____ _____    ______ ____
ROOT
ATOM      1  C   UNL     1       0.720   3.615  20.318  0.00  0.00    +0.000 C 
ATOM      2  C   UNL     1       1.793   3.378  19.298  0.00  0.00    +0.000 A 
ATOM      3  C   UNL     1       2.152   4.370  18.377  0.00  0.00    +0.000 A 
ATOM      4  C   UNL     1       3.151   4.128  17.431  0.00  0.00    +0.000 A 
ATOM      5  C   UNL     1       3.800   2.893  17.396  0.00  0.00    +0.000 A 
ATOM      6  C   UNL     1       3.444   1.911  18.313  0.00  0.00    +0.000 A 
ATOM      7  C   UNL     1       2.450   2.142  19.258  0.00  0.00    +0.000 A 
ENDROOT
BRANCH   6   8
ATOM      8  O   UNL     1       4.053   0.690  18.320  0.00  0.00    +0.000 OA
ATOM      9  H   UNL     1       3.585   0.117  18.950  0.00  0.00    +0.000 HD
ENDBRANCH   6   8
TORSDOF 1
ENDMDL
