MODEL 1
REMARK VINA RESULT:      -7.9      0.000      0.000
REMARK  Name = 
REMARK  17 active torsions:
REMARK  status: ('A' for Active; 'I' for Inactive)
REMARK    1  A    between atoms: C_1  and  C_2
REMARK    2  A    between atoms: C_5  and  C_6
REMARK    3  A    between atoms: C_9  and  C_10
REMARK    4  A    between atoms: C_10  and  C_11
REMARK    5  A    between atoms: C_11  and  C_12
REMARK    6  A    between atoms: C_12  and  C_13
REMARK    7  A    between atoms: C_13  and  C_14
REMARK    8  A    between atoms: C_14  and  C_15
REMARK    9  A    between atoms: C_15  and  C_16
REMARK   10  A    between atoms: C_16  and  C_17
REMARK   11  A    between atoms: C_17  and  C_18
REMARK   12  A    between atoms: C_21  and  C_22
REMARK   13  A    between atoms: C_25  and  C_26
REMARK   14  A    between atoms: C_28  and  O_29
REMARK   15  A    between atoms: N_30  and  N_31
REMARK   16  A    between atoms: N_32  and  N_33
REMARK   17  A    between atoms: C_34  and  O_35
REMARK                            x       y       z     vdW  Elec       q    Type
REMARK                         _______ _______ _______ _____ _____    ______ ____
ROOT
ATOM      1  C   UNL     1       9.363  10.884  20.379  0.00  0.00    +0.000 C 
ENDROOT
BRANCH   1   2
ATOM      2  C   UNL     1      10.375  11.893  20.929  0.00  0.00    +0.000 C 
BRANCH   2   3
ATOM      3  C   UNL     1      10.966  12.718  19.790  0.00  0.00    +0.000 C 
BRANCH   3   4
ATOM      4  C   UNL     1      10.730  14.216  19.981  0.00  0.00    +0.000 C 
BRANCH   4   8
ATOM      5  C   UNL     1       7.520  15.287  18.634  0.00  0.00    +0.000 A 
ATOM      6  N   UNL     1       8.302  15.406  17.571  0.00  0.00    +0.000 NA
ATOM      7  N   UNL     1       9.576  15.043  17.922  0.00  0.00    +0.000 NA
ATOM      8  C   UNL     1       9.560  14.667  19.183  0.00  0.00    +0.000 A 
ATOM      9  N   UNL     1       8.278  14.768  19.667  0.00  0.00    +0.000 N 
BRANCH   5  14
ATOM     10  C   UNL     1       1.865  16.546  18.622  0.00  0.00    +0.000 C 
ATOM     11  C   UNL     1       3.329  16.219  18.625  0.00  0.00    +0.000 A 
ATOM     12  C   UNL     1       3.838  15.231  17.780  0.00  0.00    +0.000 A 
ATOM     13  C   UNL     1       5.195  14.900  17.814  0.00  0.00    +0.000 A 
ATOM     14  C   UNL     1       6.087  15.589  18.648  0.00  0.00    +0.000 A 
ATOM     15  C   UNL     1       5.562  16.558  19.517  0.00  0.00    +0.000 A 
ATOM     16  C   UNL     1       4.201  16.874  19.505  0.00  0.00    +0.000 A 
BRANCH  15  17
ATOM     17  O   UNL     1       6.338  17.244  20.418  0.00  0.00    +0.000 OA
ATOM     18  H   UNL     1       7.275  17.163  20.145  0.00  0.00    +0.000 HD
ENDBRANCH  15  17
ENDBRANCH   5  14
BRANCH   9  19
ATOM     19  N   UNL     1       7.858  14.328  20.963  0.00  0.00    +0.000 N 
ATOM     20  H   UNL     1       6.875  14.072  20.972  0.00  0.00    +0.000 HD
ATOM     21  H   UNL     1       8.376  13.519  21.296  0.00  0.00    +0.000 HD
ENDBRANCH   9  19
ENDBRANCH   4   8
ENDBRANCH   3   4
ENDBRANCH   2   3
ENDBRANCH   1   2
BRANCH   1  22
ATOM     22  C   UNL     1       9.743  10.334  19.008  0.00  0.00    +0.000 C 
BRANCH  22  23
ATOM     23  C   UNL     1       8.524   9.870  18.218  0.00  0.00    +0.000 C 
BRANCH  23  24
ATOM     24  C   UNL     1       8.219   8.407  18.488  0.00  0.00    +0.000 C 
BRANCH  24  25
ATOM     25  C   UNL     1       7.844   7.703  17.186  0.00  0.00    +0.000 C 
BRANCH  25  26
ATOM     26  C   UNL     1       7.170   6.422  17.468  0.00  0.00    +0.000 A 
ATOM     27  N   UNL     1       7.775   5.272  17.689  0.00  0.00    +0.000 NA
ATOM     28  N   UNL     1       6.807   4.333  17.918  0.00  0.00    +0.000 NA
ATOM     29  C   UNL     1       5.615   4.910  17.851  0.00  0.00    +0.000 A 
ATOM     30  N   UNL     1       5.813   6.238  17.527  0.00  0.00    +0.000 N 
BRANCH  29  31
ATOM     31  C   UNL     1       4.329   4.249  18.112  0.00  0.00    +0.000 A 
ATOM     32  C   UNL     1       3.175   4.595  17.394  0.00  0.00    +0.000 A 
ATOM     33  C   UNL     1       1.947   3.981  17.654  0.00  0.00    +0.000 A 
ATOM     34  C   UNL     1       1.855   2.965  18.606  0.00  0.00    +0.000 A 
ATOM     35  C   UNL     1       0.554   2.266  18.858  0.00  0.00    +0.000 C 
ATOM     36  C   UNL     1       3.002   2.588  19.312  0.00  0.00    +0.000 A 
ATOM     37  C   UNL     1       4.218   3.235  19.077  0.00  0.00    +0.000 A 
BRANCH  37  38
ATOM     38  O   UNL     1       5.301   2.883  19.835  0.00  0.00    +0.000 OA
ATOM     39  H   UNL     1       5.107   3.021  20.774  0.00  0.00    +0.000 HD
ENDBRANCH  37  38
ENDBRANCH  29  31
BRANCH  30  40
ATOM     40  N   UNL     1       4.819   7.263  17.299  0.00  0.00    +0.000 N 
ATOM     41  H   UNL     1       5.151   8.164  17.639  0.00  0.00    +0.000 HD
ATOM     42  H   UNL     1       4.656   7.411  16.306  0.00  0.00    +0.000 HD
ENDBRANCH  30  40
ENDBRANCH  25  26
ENDBRANCH  24  25
ENDBRANCH  23  24
ENDBRANCH  22  23
ENDBRANCH   1  22
TORSDOF 15
ENDMDL
MODEL 2
REMARK VINA RESULT:      -7.8      4.868     10.147
REMARK  Name = 
REMARK  17 active torsions:
REMARK  status: ('A' for Active; 'I' for Inactive)
REMARK    1  A    between atoms: C_1  and  C_2
REMARK    2  A    between atoms: C_5  and  C_6
REMARK    3  A    between atoms: C_9  and  C_10
REMARK    4  A    between atoms: C_10  and  C_11
REMARK    5  A    between atoms: C_11  and  C_12
REMARK    6  A    between atoms: C_12  and  C_13
REMARK    7  A    between atoms: C_13  and  C_14
REMARK    8  A    between atoms: C_14  and  C_15
REMARK    9  A    between atoms: C_15  and  C_16
REMARK   10  A    between atoms: C_16  and  C_17
REMARK   11  A    between atoms: C_17  and  C_18
REMARK   12  A    between atoms: C_21  and  C_22
REMARK   13  A    between atoms: C_25  and  C_26
REMARK   14  A    between atoms: C_28  and  O_29
REMARK   15  A    between atoms: N_30  and  N_31
REMARK   16  A    between atoms: N_32  and  N_33
REMARK   17  A    between atoms: C_34  and  O_35
REMARK                            x       y       z     vdW  Elec       q    Type
REMARK                         _______ _______ _______ _____ _____    ______ ____
ROOT
ATOM      1  C   UNL     1       0.618   3.424  19.633  0.00  0.00    +0.000 C 
ENDROOT
BRANCH   1   2
ATOM      2  C   UNL     1       1.586   3.401  18.447  0.00  0.00    +0.000 C 
BRANCH   2   3
ATOM      3  C   UNL     1       1.818   1.966  17.985  0.00  0.00    +0.000 C 
BRANCH   3   4
ATOM      4  C   UNL     1       3.273   1.718  17.585  0.00  0.00    +0.000 C 
BRANCH   4   8
ATOM      5  C   UNL     1       5.448   4.498  18.481  0.00  0.00    +0.000 A 
ATOM      6  N   UNL     1       5.310   3.887  19.649  0.00  0.00    +0.000 NA
ATOM      7  N   UNL     1       4.492   2.801  19.481  0.00  0.00    +0.000 NA
ATOM      8  C   UNL     1       4.166   2.729  18.208  0.00  0.00    +0.000 A 
ATOM      9  N   UNL     1       4.773   3.757  17.529  0.00  0.00    +0.000 N 
BRANCH   5  14
ATOM     10  C   UNL     1       8.582   9.308  17.704  0.00  0.00    +0.000 C 
ATOM     11  C   UNL     1       7.771   8.062  17.905  0.00  0.00    +0.000 A 
ATOM     12  C   UNL     1       8.271   7.005  18.667  0.00  0.00    +0.000 A 
ATOM     13  C   UNL     1       7.531   5.829  18.819  0.00  0.00    +0.000 A 
ATOM     14  C   UNL     1       6.249   5.704  18.265  0.00  0.00    +0.000 A 
ATOM     15  C   UNL     1       5.768   6.760  17.475  0.00  0.00    +0.000 A 
ATOM     16  C   UNL     1       6.516   7.927  17.298  0.00  0.00    +0.000 A 
BRANCH  15  17
ATOM     17  O   UNL     1       4.554   6.712  16.835  0.00  0.00    +0.000 OA
ATOM     18  H   UNL     1       4.710   6.526  15.887  0.00  0.00    +0.000 HD
ENDBRANCH  15  17
ENDBRANCH   5  14
BRANCH   9  19
ATOM     19  N   UNL     1       4.745   3.925  16.107  0.00  0.00    +0.000 N 
ATOM     20  H   UNL     1       4.185   3.208  15.655  0.00  0.00    +0.000 HD
ATOM     21  H   UNL     1       4.364   4.822  15.819  0.00  0.00    +0.000 HD
ENDBRANCH   9  19
ENDBRANCH   4   8
ENDBRANCH   3   4
ENDBRANCH   2   3
ENDBRANCH   1   2
BRANCH   1  22
ATOM     22  C   UNL     1       1.304   3.195  20.976  0.00  0.00    +0.000 C 
BRANCH  22  23
ATOM     23  C   UNL     1       2.115   4.408  21.420  0.00  0.00    +0.000 C 
BRANCH  23  24
ATOM     24  C   UNL     1       1.571   5.686  20.806  0.00  0.00    +0.000 C 
BRANCH  24  25
ATOM     25  C   UNL     1       2.682   6.419  20.058  0.00  0.00    +0.000 C 
BRANCH  25  26
ATOM     26  C   UNL     1       2.158   7.647  19.431  0.00  0.00    +0.000 A 
ATOM     27  N   UNL     1       2.052   7.858  18.134  0.00  0.00    +0.000 NA
ATOM     28  N   UNL     1       1.516   9.105  17.961  0.00  0.00    +0.000 NA
ATOM     29  C   UNL     1       1.284   9.648  19.148  0.00  0.00    +0.000 A 
ATOM     30  N   UNL     1       1.719   8.755  20.107  0.00  0.00    +0.000 N 
BRANCH  29  31
ATOM     31  C   UNL     1       0.644  10.950  19.381  0.00  0.00    +0.000 A 
ATOM     32  C   UNL     1       1.383  12.052  19.837  0.00  0.00    +0.000 A 
ATOM     33  C   UNL     1       0.774  13.286  20.079  0.00  0.00    +0.000 A 
ATOM     34  C   UNL     1      -0.585  13.463  19.817  0.00  0.00    +0.000 A 
ATOM     35  C   UNL     1      -1.239  14.795  20.025  0.00  0.00    +0.000 C 
ATOM     36  C   UNL     1      -1.332  12.383  19.336  0.00  0.00    +0.000 A 
ATOM     37  C   UNL     1      -0.726  11.140  19.137  0.00  0.00    +0.000 A 
BRANCH  37  38
ATOM     38  O   UNL     1      -1.504  10.092  18.728  0.00  0.00    +0.000 OA
ATOM     39  H   UNL     1      -2.086   9.810  19.450  0.00  0.00    +0.000 HD
ENDBRANCH  37  38
ENDBRANCH  29  31
BRANCH  30  40
ATOM     40  N   UNL     1       1.718   8.913  21.545  0.00  0.00    +0.000 N 
ATOM     41  H   UNL     1       0.765   8.899  21.905  0.00  0.00    +0.000 HD
ATOM     42  H   UNL     1       2.175   8.129  22.006  0.00  0.00    +0.000 HD
ENDBRANCH  30  40
ENDBRANCH  25  26
ENDBRANCH  24  25
ENDBRANCH  23  24
ENDBRANCH  22  23
ENDBRANCH   1  22
TORSDOF 15
ENDMDL
MODEL 3
REMARK VINA RESULT:      -7.8      5.553     10.558
REMARK  Name = 
REMARK  17 active torsions:
REMARK  status: ('A' for Active; 'I' for Inactive)
REMARK    1  A    between atoms: C_1  and  C_2
REMARK    2  A    between atoms: C_5  and  C_6
REMARK    3  A    between atoms: C_9  and  C_10
REMARK    4  A    between atoms: C_10  and  C_11
REMARK    5  A    between atoms: C_11  and  C_12
REMARK    6  A    between atoms: C_12  and  C_13
REMARK    7  A    between atoms: C_13  and  C_14
REMARK    8  A    between atoms: C_14  and  C_15
REMARK    9  A    between atoms: C_15  and  C_16
REMARK   10  A    between atoms: C_16  and  C_17
REMARK   11  A    between atoms: C_17  and  C_18
REMARK   12  A    between atoms: C_21  and  C_22
REMARK   13  A    between atoms: C_25  and  C_26
REMARK   14  A    between atoms: C_28  and  O_29
REMARK   15  A    between atoms: N_30  and  N_31
REMARK   16  A    between atoms: N_32  and  N_33
REMARK   17  A    between atoms: C_34  and  O_35
REMARK                            x       y       z     vdW  Elec       q    Type
REMARK                         _______ _______ _______ _____ _____    ______ ____
ROOT
ATOM      1  C   UNL     1       0.579   3.276  20.370  0.00  0.00    +0.000 C 
ENDROOT
BRANCH   1   2
ATOM      2  C   UNL     1       1.410   2.716  21.528  0.00  0.00    +0.000 C 
BRANCH   2   3
ATOM      3  C   UNL     1       2.856   3.187  21.413  0.00  0.00    +0.000 C 
BRANCH   3   4
ATOM      4  C   UNL     1       3.684   2.288  20.494  0.00  0.00    +0.000 C 
BRANCH   4   8
ATOM      5  C   UNL     1       5.615   3.975  17.907  0.00  0.00    +0.000 A 
ATOM      6  N   UNL     1       6.076   4.561  19.001  0.00  0.00    +0.000 NA
ATOM      7  N   UNL     1       5.427   4.035  20.088  0.00  0.00    +0.000 NA
ATOM      8  C   UNL     1       4.604   3.102  19.658  0.00  0.00    +0.000 A 
ATOM      9  N   UNL     1       4.711   3.001  18.292  0.00  0.00    +0.000 N 
BRANCH   5  14
ATOM     10  C   UNL     1       7.486   5.122  12.545  0.00  0.00    +0.000 C 
ATOM     11  C   UNL     1       7.000   4.825  13.934  0.00  0.00    +0.000 A 
ATOM     12  C   UNL     1       6.173   3.726  14.177  0.00  0.00    +0.000 A 
ATOM     13  C   UNL     1       5.689   3.476  15.463  0.00  0.00    +0.000 A 
ATOM     14  C   UNL     1       6.068   4.279  16.548  0.00  0.00    +0.000 A 
ATOM     15  C   UNL     1       6.874   5.398  16.289  0.00  0.00    +0.000 A 
ATOM     16  C   UNL     1       7.339   5.668  15.000  0.00  0.00    +0.000 A 
BRANCH  15  17
ATOM     17  O   UNL     1       7.248   6.284  17.269  0.00  0.00    +0.000 OA
ATOM     18  H   UNL     1       8.181   6.108  17.506  0.00  0.00    +0.000 HD
ENDBRANCH  15  17
ENDBRANCH   5  14
BRANCH   9  19
ATOM     19  N   UNL     1       4.057   2.009  17.493  0.00  0.00    +0.000 N 
ATOM     20  H   UNL     1       3.107   2.282  17.260  0.00  0.00    +0.000 HD
ATOM     21  H   UNL     1       4.535   1.828  16.614  0.00  0.00    +0.000 HD
ENDBRANCH   9  19
ENDBRANCH   4   8
ENDBRANCH   3   4
ENDBRANCH   2   3
ENDBRANCH   1   2
BRANCH   1  22
ATOM     22  C   UNL     1       1.160   4.554  19.773  0.00  0.00    +0.000 C 
BRANCH  22  23
ATOM     23  C   UNL     1       1.457   4.409  18.285  0.00  0.00    +0.000 C 
BRANCH  23  24
ATOM     24  C   UNL     1       2.362   5.527  17.795  0.00  0.00    +0.000 C 
BRANCH  24  25
ATOM     25  C   UNL     1       2.688   6.476  18.945  0.00  0.00    +0.000 C 
BRANCH  25  26
ATOM     26  C   UNL     1       2.345   7.863  18.583  0.00  0.00    +0.000 A 
ATOM     27  N   UNL     1       2.613   8.442  17.429  0.00  0.00    +0.000 NA
ATOM     28  N   UNL     1       2.127   9.719  17.484  0.00  0.00    +0.000 NA
ATOM     29  C   UNL     1       1.551   9.916  18.662  0.00  0.00    +0.000 A 
ATOM     30  N   UNL     1       1.708   8.760  19.401  0.00  0.00    +0.000 N 
BRANCH  29  31
ATOM     31  C   UNL     1       0.847  11.138  19.075  0.00  0.00    +0.000 A 
ATOM     32  C   UNL     1       1.540  12.337  19.296  0.00  0.00    +0.000 A 
ATOM     33  C   UNL     1       0.875  13.495  19.708  0.00  0.00    +0.000 A 
ATOM     34  C   UNL     1      -0.512  13.495  19.858  0.00  0.00    +0.000 A 
ATOM     35  C   UNL     1      -1.241  14.744  20.251  0.00  0.00    +0.000 C 
ATOM     36  C   UNL     1      -1.223  12.315  19.616  0.00  0.00    +0.000 A 
ATOM     37  C   UNL     1      -0.547  11.149  19.246  0.00  0.00    +0.000 A 
BRANCH  37  38
ATOM     38  O   UNL     1      -1.271  10.000  19.081  0.00  0.00    +0.000 OA
ATOM     39  H   UNL     1      -1.362   9.798  18.138  0.00  0.00    +0.000 HD
ENDBRANCH  37  38
ENDBRANCH  29  31
BRANCH  30  40
ATOM     40  N   UNL     1       1.289   8.501  20.761  0.00  0.00    +0.000 N 
ATOM     41  H   UNL     1       1.826   7.734  21.160  0.00  0.00    +0.000 HD
ATOM     42  H   UNL     1       1.487   9.293  21.369  0.00  0.00    +0.000 HD
ENDBRANCH  30  40
ENDBRANCH  25  26
ENDBRANCH  24  25
ENDBRANCH  23  24
ENDBRANCH  22  23
ENDBRANCH   1  22
TORSDOF 15
ENDMDL
MODEL 4
REMARK VINA RESULT:      -7.8      5.191      7.013
REMARK  Name = 
REMARK  17 active torsions:
REMARK  status: ('A' for Active; 'I' for Inactive)
REMARK    1  A    between atoms: C_1  and  C_2
REMARK    2  A    between atoms: C_5  and  C_6
REMARK    3  A    between atoms: C_9  and  C_10
REMARK    4  A    between atoms: C_10  and  C_11
REMARK    5  A    between atoms: C_11  and  C_12
REMARK    6  A    between atoms: C_12  and  C_13
REMARK    7  A    between atoms: C_13  and  C_14
REMARK    8  A    between atoms: C_14  and  C_15
REMARK    9  A    between atoms: C_15  and  C_16
REMARK   10  A    between atoms: C_16  and  C_17
REMARK   11  A    between atoms: C_17  and  C_18
REMARK   12  A    between atoms: C_21  and  C_22
REMARK   13  A    between atoms: C_25  and  C_26
REMARK   14  A    between atoms: C_28  and  O_29
REMARK   15  A    between atoms: N_30  and  N_31
REMARK   16  A    between atoms: N_32  and  N_33
REMARK   17  A    between atoms: C_34  and  O_35
REMARK                            x       y       z     vdW  Elec       q    Type
REMARK                         _______ _______ _______ _____ _____    ______ ____
ROOT
ATOM      1  C   UNL     1       1.701   6.082  20.969  0.00  0.00    +0.000 C 
ENDROOT
BRANCH   1   2
ATOM      2  C   UNL     1       1.768   7.516  20.435  0.00  0.00    +0.000 C 
BRANCH   2   3
ATOM      3  C   UNL     1       1.004   8.458  21.360  0.00  0.00    +0.000 C 
BRANCH   3   4
ATOM      4  C   UNL     1       0.006   9.329  20.597  0.00  0.00    +0.000 C 
BRANCH   4   8
ATOM      5  C   UNL     1       0.684  12.890  20.240  0.00  0.00    +0.000 A 
ATOM      6  N   UNL     1       0.929  12.706  21.528  0.00  0.00    +0.000 NA
ATOM      7  N   UNL     1       0.704  11.388  21.833  0.00  0.00    +0.000 NA
ATOM      8  C   UNL     1       0.363  10.767  20.725  0.00  0.00    +0.000 A 
ATOM      9  N   UNL     1       0.371  11.663  19.684  0.00  0.00    +0.000 N 
BRANCH   5  14
ATOM     10  C   UNL     1       1.202  18.010  17.578  0.00  0.00    +0.000 C 
ATOM     11  C   UNL     1       1.068  16.684  18.267  0.00  0.00    +0.000 A 
ATOM     12  C   UNL     1       2.194  15.896  18.515  0.00  0.00    +0.000 A 
ATOM     13  C   UNL     1       2.062  14.643  19.119  0.00  0.00    +0.000 A 
ATOM     14  C   UNL     1       0.812  14.173  19.546  0.00  0.00    +0.000 A 
ATOM     15  C   UNL     1      -0.317  14.958  19.264  0.00  0.00    +0.000 A 
ATOM     16  C   UNL     1      -0.194  16.200  18.636  0.00  0.00    +0.000 A 
BRANCH  15  17
ATOM     17  O   UNL     1      -1.593  14.560  19.580  0.00  0.00    +0.000 OA
ATOM     18  H   UNL     1      -1.628  13.583  19.557  0.00  0.00    +0.000 HD
ENDBRANCH  15  17
ENDBRANCH   5  14
BRANCH   9  19
ATOM     19  N   UNL     1       0.170  11.319  18.308  0.00  0.00    +0.000 N 
ATOM     20  H   UNL     1       0.804  10.585  18.009  0.00  0.00    +0.000 HD
ATOM     21  H   UNL     1      -0.772  10.992  18.113  0.00  0.00    +0.000 HD
ENDBRANCH   9  19
ENDBRANCH   4   8
ENDBRANCH   3   4
ENDBRANCH   2   3
ENDBRANCH   1   2
BRANCH   1  22
ATOM     22  C   UNL     1       1.014   5.113  20.012  0.00  0.00    +0.000 C 
BRANCH  22  23
ATOM     23  C   UNL     1       1.098   3.670  20.498  0.00  0.00    +0.000 C 
BRANCH  23  24
ATOM     24  C   UNL     1       2.291   3.470  21.418  0.00  0.00    +0.000 C 
BRANCH  24  25
ATOM     25  C   UNL     1       3.369   2.659  20.705  0.00  0.00    +0.000 C 
BRANCH  25  26
ATOM     26  C   UNL     1       4.101   3.505  19.744  0.00  0.00    +0.000 A 
ATOM     27  N   UNL     1       4.633   4.681  20.012  0.00  0.00    +0.000 NA
ATOM     28  N   UNL     1       5.228   5.136  18.866  0.00  0.00    +0.000 NA
ATOM     29  C   UNL     1       5.071   4.234  17.906  0.00  0.00    +0.000 A 
ATOM     30  N   UNL     1       4.322   3.198  18.427  0.00  0.00    +0.000 N 
BRANCH  29  31
ATOM     31  C   UNL     1       5.631   4.323  16.551  0.00  0.00    +0.000 A 
ATOM     32  C   UNL     1       4.826   4.135  15.417  0.00  0.00    +0.000 A 
ATOM     33  C   UNL     1       5.361   4.200  14.128  0.00  0.00    +0.000 A 
ATOM     34  C   UNL     1       6.709   4.509  13.940  0.00  0.00    +0.000 A 
ATOM     35  C   UNL     1       7.282   4.629  12.560  0.00  0.00    +0.000 C 
ATOM     36  C   UNL     1       7.520   4.726  15.057  0.00  0.00    +0.000 A 
ATOM     37  C   UNL     1       6.989   4.618  16.345  0.00  0.00    +0.000 A 
BRANCH  37  38
ATOM     38  O   UNL     1       7.830   4.774  17.413  0.00  0.00    +0.000 OA
ATOM     39  H   UNL     1       7.417   5.343  18.080  0.00  0.00    +0.000 HD
ENDBRANCH  37  38
ENDBRANCH  29  31
BRANCH  30  40
ATOM     40  N   UNL     1       3.855   2.005  17.756  0.00  0.00    +0.000 N 
ATOM     41  H   UNL     1       3.235   1.472  18.365  0.00  0.00    +0.000 HD
ATOM     42  H   UNL     1       3.281   2.232  16.947  0.00  0.00    +0.000 HD
ENDBRANCH  30  40
ENDBRANCH  25  26
ENDBRANCH  24  25
ENDBRANCH  23  24
ENDBRANCH  22  23
ENDBRANCH   1  22
TORSDOF 15
ENDMDL
MODEL 5
REMARK VINA RESULT:      -7.7      7.667     10.585
REMARK  Name = 
REMARK  17 active torsions:
REMARK  status: ('A' for Active; 'I' for Inactive)
REMARK    1  A    between atoms: C_1  and  C_2
REMARK    2  A    between atoms: C_5  and  C_6
REMARK    3  A    between atoms: C_9  and  C_10
REMARK    4  A    between atoms: C_10  and  C_11
REMARK    5  A    between atoms: C_11  and  C_12
REMARK    6  A    between atoms: C_12  and  C_13
REMARK    7  A    between atoms: C_13  and  C_14
REMARK    8  A    between atoms: C_14  and  C_15
REMARK    9  A    between atoms: C_15  and  C_16
REMARK   10  A    between atoms: C_16  and  C_17
REMARK   11  A    between atoms: C_17  and  C_18
REMARK   12  A    between atoms: C_21  and  C_22
REMARK   13  A    between atoms: C_25  and  C_26
REMARK   14  A    between atoms: C_28  and  O_29
REMARK   15  A    between atoms: N_30  and  N_31
REMARK   16  A    between atoms: N_32  and  N_33
REMARK   17  A    between atoms: C_34  and  O_35
REMARK                            x       y       z     vdW  Elec       q    Type
REMARK                         _______ _______ _______ _____ _____    ______ ____
ROOT
ATOM      1  C   UNL     1      -3.490  11.379  17.285  0.00  0.00    +0.000 C 
ENDROOT
BRANCH   1   2
ATOM      2  C   UNL     1      -5.006  11.391  17.068  0.00  0.00    +0.000 C 
BRANCH   2   3
ATOM      3  C   UNL     1      -5.710  10.723  18.245  0.00  0.00    +0.000 C 
BRANCH   3   4
ATOM      4  C   UNL     1      -6.800  11.612  18.844  0.00  0.00    +0.000 C 
BRANCH   4   8
ATOM      5  C   UNL     1      -5.650  12.970  22.022  0.00  0.00    +0.000 A 
ATOM      6  N   UNL     1      -6.459  12.003  22.428  0.00  0.00    +0.000 NA
ATOM      7  N   UNL     1      -6.994  11.387  21.327  0.00  0.00    +0.000 NA
ATOM      8  C   UNL     1      -6.480  11.952  20.255  0.00  0.00    +0.000 A 
ATOM      9  N   UNL     1      -5.599  12.933  20.641  0.00  0.00    +0.000 N 
BRANCH   5  14
ATOM     10  C   UNL     1      -2.598  16.465  25.491  0.00  0.00    +0.000 C 
ATOM     11  C   UNL     1      -3.390  15.560  24.593  0.00  0.00    +0.000 A 
ATOM     12  C   UNL     1      -4.266  16.091  23.645  0.00  0.00    +0.000 A 
ATOM     13  C   UNL     1      -5.032  15.246  22.838  0.00  0.00    +0.000 A 
ATOM     14  C   UNL     1      -4.897  13.853  22.915  0.00  0.00    +0.000 A 
ATOM     15  C   UNL     1      -4.037  13.328  23.892  0.00  0.00    +0.000 A 
ATOM     16  C   UNL     1      -3.288  14.169  24.720  0.00  0.00    +0.000 A 
BRANCH  15  17
ATOM     17  O   UNL     1      -3.881  11.979  24.094  0.00  0.00    +0.000 OA
ATOM     18  H   UNL     1      -4.767  11.576  24.195  0.00  0.00    +0.000 HD
ENDBRANCH  15  17
ENDBRANCH   5  14
BRANCH   9  19
ATOM     19  N   UNL     1      -4.762  13.675  19.747  0.00  0.00    +0.000 N 
ATOM     20  H   UNL     1      -3.804  13.721  20.082  0.00  0.00    +0.000 HD
ATOM     21  H   UNL     1      -4.729  13.279  18.812  0.00  0.00    +0.000 HD
ENDBRANCH   9  19
ENDBRANCH   4   8
ENDBRANCH   3   4
ENDBRANCH   2   3
ENDBRANCH   1   2
BRANCH   1  22
ATOM     22  C   UNL     1      -2.943  10.004  17.653  0.00  0.00    +0.000 C 
BRANCH  22  23
ATOM     23  C   UNL     1      -1.459  10.051  18.002  0.00  0.00    +0.000 C 
BRANCH  23  24
ATOM     24  C   UNL     1      -1.245  10.555  19.419  0.00  0.00    +0.000 C 
BRANCH  24  25
ATOM     25  C   UNL     1       0.244  10.782  19.672  0.00  0.00    +0.000 C 
BRANCH  25  26
ATOM     26  C   UNL     1       0.963   9.496  19.714  0.00  0.00    +0.000 A 
ATOM     27  N   UNL     1       0.963   8.652  20.727  0.00  0.00    +0.000 NA
ATOM     28  N   UNL     1       1.736   7.580  20.372  0.00  0.00    +0.000 NA
ATOM     29  C   UNL     1       2.196   7.763  19.141  0.00  0.00    +0.000 A 
ATOM     30  N   UNL     1       1.749   8.996  18.709  0.00  0.00    +0.000 N 
BRANCH  29  31
ATOM     31  C   UNL     1       3.002   6.800  18.379  0.00  0.00    +0.000 A 
ATOM     32  C   UNL     1       3.980   7.230  17.469  0.00  0.00    +0.000 A 
ATOM     33  C   UNL     1       4.734   6.316  16.728  0.00  0.00    +0.000 A 
ATOM     34  C   UNL     1       4.566   4.944  16.921  0.00  0.00    +0.000 A 
ATOM     35  C   UNL     1       5.404   3.956  16.169  0.00  0.00    +0.000 C 
ATOM     36  C   UNL     1       3.615   4.498  17.845  0.00  0.00    +0.000 A 
ATOM     37  C   UNL     1       2.834   5.416  18.551  0.00  0.00    +0.000 A 
BRANCH  37  38
ATOM     38  O   UNL     1       1.871   4.939  19.396  0.00  0.00    +0.000 OA
ATOM     39  H   UNL     1       1.181   5.608  19.523  0.00  0.00    +0.000 HD
ENDBRANCH  37  38
ENDBRANCH  29  31
BRANCH  30  40
ATOM     40  N   UNL     1       2.022   9.657  17.452  0.00  0.00    +0.000 N 
ATOM     41  H   UNL     1       1.285  10.325  17.232  0.00  0.00    +0.000 HD
ATOM     42  H   UNL     1       2.867  10.221  17.503  0.00  0.00    +0.000 HD
ENDBRANCH  30  40
ENDBRANCH  25  26
ENDBRANCH  24  25
ENDBRANCH  23  24
ENDBRANCH  22  23
ENDBRANCH   1  22
TORSDOF 15
ENDMDL
MODEL 6
REMARK VINA RESULT:      -7.5      4.527      7.407
REMARK  Name = 
REMARK  17 active torsions:
REMARK  status: ('A' for Active; 'I' for Inactive)
REMARK    1  A    between atoms: C_1  and  C_2
REMARK    2  A    between atoms: C_5  and  C_6
REMARK    3  A    between atoms: C_9  and  C_10
REMARK    4  A    between atoms: C_10  and  C_11
REMARK    5  A    between atoms: C_11  and  C_12
REMARK    6  A    between atoms: C_12  and  C_13
REMARK    7  A    between atoms: C_13  and  C_14
REMARK    8  A    between atoms: C_14  and  C_15
REMARK    9  A    between atoms: C_15  and  C_16
REMARK   10  A    between atoms: C_16  and  C_17
REMARK   11  A    between atoms: C_17  and  C_18
REMARK   12  A    between atoms: C_21  and  C_22
REMARK   13  A    between atoms: C_25  and  C_26
REMARK   14  A    between atoms: C_28  and  O_29
REMARK   15  A    between atoms: N_30  and  N_31
REMARK   16  A    between atoms: N_32  and  N_33
REMARK   17  A    between atoms: C_34  and  O_35
REMARK                            x       y       z     vdW  Elec       q    Type
REMARK                         _______ _______ _______ _____ _____    ______ ____
ROOT
ATOM      1  C   UNL     1       1.281   4.777  20.056  0.00  0.00    +0.000 C 
ENDROOT
BRANCH   1   2
ATOM      2  C   UNL     1       2.560   5.407  20.613  0.00  0.00    +0.000 C 
BRANCH   2   3
ATOM      3  C   UNL     1       2.969   6.605  19.762  0.00  0.00    +0.000 C 
BRANCH   3   4
ATOM      4  C   UNL     1       1.775   7.245  19.055  0.00  0.00    +0.000 C 
BRANCH   4   8
ATOM      5  C   UNL     1       0.951  10.675  19.965  0.00  0.00    +0.000 A 
ATOM      6  N   UNL     1       0.818  10.057  21.129  0.00  0.00    +0.000 NA
ATOM      7  N   UNL     1       1.088   8.725  20.951  0.00  0.00    +0.000 NA
ATOM      8  C   UNL     1       1.425   8.542  19.692  0.00  0.00    +0.000 A 
ATOM      9  N   UNL     1       1.389   9.748  19.036  0.00  0.00    +0.000 N 
BRANCH   5  14
ATOM     10  C   UNL     1       0.047  16.348  19.211  0.00  0.00    +0.000 C 
ATOM     11  C   UNL     1       0.282  14.879  19.406  0.00  0.00    +0.000 A 
ATOM     12  C   UNL     1       1.201  14.427  20.356  0.00  0.00    +0.000 A 
ATOM     13  C   UNL     1       1.448  13.059  20.507  0.00  0.00    +0.000 A 
ATOM     14  C   UNL     1       0.740  12.109  19.757  0.00  0.00    +0.000 A 
ATOM     15  C   UNL     1      -0.157  12.574  18.784  0.00  0.00    +0.000 A 
ATOM     16  C   UNL     1      -0.388  13.941  18.610  0.00  0.00    +0.000 A 
BRANCH  15  17
ATOM     17  O   UNL     1      -0.852  11.729  17.954  0.00  0.00    +0.000 OA
ATOM     18  H   UNL     1      -1.346  11.089  18.505  0.00  0.00    +0.000 HD
ENDBRANCH  15  17
ENDBRANCH   5  14
BRANCH   9  19
ATOM     19  N   UNL     1       1.813   9.955  17.684  0.00  0.00    +0.000 N 
ATOM     20  H   UNL     1       1.153   9.562  17.020  0.00  0.00    +0.000 HD
ATOM     21  H   UNL     1       1.919  10.938  17.447  0.00  0.00    +0.000 HD
ENDBRANCH   9  19
ENDBRANCH   4   8
ENDBRANCH   3   4
ENDBRANCH   2   3
ENDBRANCH   1   2
BRANCH   1  22
ATOM     22  C   UNL     1       0.960   3.418  20.671  0.00  0.00    +0.000 C 
BRANCH  22  23
ATOM     23  C   UNL     1       1.929   2.336  20.209  0.00  0.00    +0.000 C 
BRANCH  23  24
ATOM     24  C   UNL     1       1.782   2.066  18.722  0.00  0.00    +0.000 C 
BRANCH  24  25
ATOM     25  C   UNL     1       3.148   1.768  18.108  0.00  0.00    +0.000 C 
BRANCH  25  26
ATOM     26  C   UNL     1       4.155   2.725  18.601  0.00  0.00    +0.000 A 
ATOM     27  N   UNL     1       4.819   2.620  19.735  0.00  0.00    +0.000 NA
ATOM     28  N   UNL     1       5.660   3.696  19.823  0.00  0.00    +0.000 NA
ATOM     29  C   UNL     1       5.520   4.448  18.739  0.00  0.00    +0.000 A 
ATOM     30  N   UNL     1       4.537   3.873  17.958  0.00  0.00    +0.000 N 
BRANCH  29  31
ATOM     31  C   UNL     1       6.303   5.651  18.427  0.00  0.00    +0.000 A 
ATOM     32  C   UNL     1       5.931   6.511  17.383  0.00  0.00    +0.000 A 
ATOM     33  C   UNL     1       6.685   7.645  17.072  0.00  0.00    +0.000 A 
ATOM     34  C   UNL     1       7.805   7.977  17.836  0.00  0.00    +0.000 A 
ATOM     35  C   UNL     1       8.592   9.218  17.543  0.00  0.00    +0.000 C 
ATOM     36  C   UNL     1       8.175   7.146  18.898  0.00  0.00    +0.000 A 
ATOM     37  C   UNL     1       7.441   5.990  19.177  0.00  0.00    +0.000 A 
BRANCH  37  38
ATOM     38  O   UNL     1       7.874   5.170  20.183  0.00  0.00    +0.000 OA
ATOM     39  H   UNL     1       8.737   5.469  20.506  0.00  0.00    +0.000 HD
ENDBRANCH  37  38
ENDBRANCH  29  31
BRANCH  30  40
ATOM     40  N   UNL     1       4.000   4.347  16.701  0.00  0.00    +0.000 N 
ATOM     41  H   UNL     1       4.666   4.191  15.946  0.00  0.00    +0.000 HD
ATOM     42  H   UNL     1       3.176   3.817  16.425  0.00  0.00    +0.000 HD
ENDBRANCH  30  40
ENDBRANCH  25  26
ENDBRANCH  24  25
ENDBRANCH  23  24
ENDBRANCH  22  23
ENDBRANCH   1  22
TORSDOF 15
ENDMDL
MODEL 7
REMARK VINA RESULT:      -7.4      3.650     10.073
REMARK  Name = 
REMARK  17 active torsions:
REMARK  status: ('A' for Active; 'I' for Inactive)
REMARK    1  A    between atoms: C_1  and  C_2
REMARK    2  A    between atoms: C_5  and  C_6
REMARK    3  A    between atoms: C_9  and  C_10
REMARK    4  A    between atoms: C_10  and  C_11
REMARK    5  A    between atoms: C_11  and  C_12
REMARK    6  A    between atoms: C_12  and  C_13
REMARK    7  A    between atoms: C_13  and  C_14
REMARK    8  A    between atoms: C_14  and  C_15
REMARK    9  A    between atoms: C_15  and  C_16
REMARK   10  A    between atoms: C_16  and  C_17
REMARK   11  A    between atoms: C_17  and  C_18
REMARK   12  A    between atoms: C_21  and  C_22
REMARK   13  A    between atoms: C_25  and  C_26
REMARK   14  A    between atoms: C_28  and  O_29
REMARK   15  A    between atoms: N_30  and  N_31
REMARK   16  A    between atoms: N_32  and  N_33
REMARK   17  A    between atoms: C_34  and  O_35
REMARK                            x       y       z     vdW  Elec       q    Type
REMARK                         _______ _______ _______ _____ _____    ______ ____
ROOT
ATOM      1  C   UNL     1       8.989  10.579  17.994  0.00  0.00    +0.000 C 
ENDROOT
BRANCH   1   2
ATOM      2  C   UNL     1       7.806   9.620  17.837  0.00  0.00    +0.000 C 
BRANCH   2   3
ATOM      3  C   UNL     1       8.219   8.206  18.235  0.00  0.00    +0.000 C 
BRANCH   3   4
ATOM      4  C   UNL     1       7.783   7.166  17.204  0.00  0.00    +0.000 C 
BRANCH   4   8
ATOM      5  C   UNL     1       4.702   5.692  18.468  0.00  0.00    +0.000 A 
ATOM      6  N   UNL     1       4.251   6.400  17.444  0.00  0.00    +0.000 NA
ATOM      7  N   UNL     1       5.310   7.040  16.854  0.00  0.00    +0.000 NA
ATOM      8  C   UNL     1       6.405   6.689  17.493  0.00  0.00    +0.000 A 
ATOM      9  N   UNL     1       6.079   5.811  18.498  0.00  0.00    +0.000 N 
BRANCH   5  14
ATOM     10  C   UNL     1       1.319   2.437  21.863  0.00  0.00    +0.000 C 
ATOM     11  C   UNL     1       2.196   3.279  20.985  0.00  0.00    +0.000 A 
ATOM     12  C   UNL     1       3.235   2.700  20.254  0.00  0.00    +0.000 A 
ATOM     13  C   UNL     1       4.076   3.493  19.468  0.00  0.00    +0.000 A 
ATOM     14  C   UNL     1       3.862   4.873  19.345  0.00  0.00    +0.000 A 
ATOM     15  C   UNL     1       2.835   5.451  20.107  0.00  0.00    +0.000 A 
ATOM     16  C   UNL     1       2.008   4.666  20.915  0.00  0.00    +0.000 A 
BRANCH  15  17
ATOM     17  O   UNL     1       2.584   6.800  20.108  0.00  0.00    +0.000 OA
ATOM     18  H   UNL     1       3.386   7.265  20.423  0.00  0.00    +0.000 HD
ENDBRANCH  15  17
ENDBRANCH   5  14
BRANCH   9  19
ATOM     19  N   UNL     1       7.028   5.124  19.322  0.00  0.00    +0.000 N 
ATOM     20  H   UNL     1       7.305   5.685  20.122  0.00  0.00    +0.000 HD
ATOM     21  H   UNL     1       6.674   4.244  19.687  0.00  0.00    +0.000 HD
ENDBRANCH   9  19
ENDBRANCH   4   8
ENDBRANCH   3   4
ENDBRANCH   2   3
ENDBRANCH   1   2
BRANCH   1  22
ATOM     22  C   UNL     1       8.680  11.999  17.529  0.00  0.00    +0.000 C 
BRANCH  22  23
ATOM     23  C   UNL     1       9.226  13.049  18.489  0.00  0.00    +0.000 C 
BRANCH  23  24
ATOM     24  C   UNL     1       9.655  12.420  19.804  0.00  0.00    +0.000 C 
BRANCH  24  25
ATOM     25  C   UNL     1      10.277  13.479  20.711  0.00  0.00    +0.000 C 
BRANCH  25  26
ATOM     26  C   UNL     1       9.508  13.602  21.963  0.00  0.00    +0.000 A 
ATOM     27  N   UNL     1       9.277  14.726  22.612  0.00  0.00    +0.000 NA
ATOM     28  N   UNL     1       8.524  14.421  23.713  0.00  0.00    +0.000 NA
ATOM     29  C   UNL     1       8.284  13.117  23.728  0.00  0.00    +0.000 A 
ATOM     30  N   UNL     1       8.932  12.561  22.643  0.00  0.00    +0.000 N 
BRANCH  29  31
ATOM     31  C   UNL     1       7.447  12.414  24.710  0.00  0.00    +0.000 A 
ATOM     32  C   UNL     1       6.323  11.676  24.312  0.00  0.00    +0.000 A 
ATOM     33  C   UNL     1       5.514  11.023  25.247  0.00  0.00    +0.000 A 
ATOM     34  C   UNL     1       5.843  11.049  26.603  0.00  0.00    +0.000 A 
ATOM     35  C   UNL     1       5.011  10.312  27.607  0.00  0.00    +0.000 C 
ATOM     36  C   UNL     1       6.976  11.758  27.015  0.00  0.00    +0.000 A 
ATOM     37  C   UNL     1       7.756  12.444  26.080  0.00  0.00    +0.000 A 
BRANCH  37  38
ATOM     38  O   UNL     1       8.819  13.178  26.531  0.00  0.00    +0.000 OA
ATOM     39  H   UNL     1       8.504  13.919  27.071  0.00  0.00    +0.000 HD
ENDBRANCH  37  38
ENDBRANCH  29  31
BRANCH  30  40
ATOM     40  N   UNL     1       9.002  11.169  22.258  0.00  0.00    +0.000 N 
ATOM     41  H   UNL     1       8.144  10.883  21.790  0.00  0.00    +0.000 HD
ATOM     42  H   UNL     1       9.732  11.010  21.568  0.00  0.00    +0.000 HD
ENDBRANCH  30  40
ENDBRANCH  25  26
ENDBRANCH  24  25
ENDBRANCH  23  24
ENDBRANCH  22  23
ENDBRANCH   1  22
TORSDOF 15
ENDMDL
MODEL 8
REMARK VINA RESULT:      -7.4      5.847     11.422
REMARK  Name = 
REMARK  17 active torsions:
REMARK  status: ('A' for Active; 'I' for Inactive)
REMARK    1  A    between atoms: C_1  and  C_2
REMARK    2  A    between atoms: C_5  and  C_6
REMARK    3  A    between atoms: C_9  and  C_10
REMARK    4  A    between atoms: C_10  and  C_11
REMARK    5  A    between atoms: C_11  and  C_12
REMARK    6  A    between atoms: C_12  and  C_13
REMARK    7  A    between atoms: C_13  and  C_14
REMARK    8  A    between atoms: C_14  and  C_15
REMARK    9  A    between atoms: C_15  and  C_16
REMARK   10  A    between atoms: C_16  and  C_17
REMARK   11  A    between atoms: C_17  and  C_18
REMARK   12  A    between atoms: C_21  and  C_22
REMARK   13  A    between atoms: C_25  and  C_26
REMARK   14  A    between atoms: C_28  and  O_29
REMARK   15  A    between atoms: N_30  and  N_31
REMARK   16  A    between atoms: N_32  and  N_33
REMARK   17  A    between atoms: C_34  and  O_35
REMARK                            x       y       z     vdW  Elec       q    Type
REMARK                         _______ _______ _______ _____ _____    ______ ____
ROOT
ATOM      1  C   UNL     1       1.820   6.214  20.411  0.00  0.00    +0.000 C 
ENDROOT
BRANCH   1   2
ATOM      2  C   UNL     1       1.995   4.838  21.060  0.00  0.00    +0.000 C 
BRANCH   2   3
ATOM      3  C   UNL     1       1.007   3.844  20.458  0.00  0.00    +0.000 C 
BRANCH   3   4
ATOM      4  C   UNL     1       1.685   2.537  20.044  0.00  0.00    +0.000 C 
BRANCH   4   8
ATOM      5  C   UNL     1       4.636   3.449  18.115  0.00  0.00    +0.000 A 
ATOM      6  N   UNL     1       5.183   3.026  19.244  0.00  0.00    +0.000 NA
ATOM      7  N   UNL     1       4.182   2.649  20.102  0.00  0.00    +0.000 NA
ATOM      8  C   UNL     1       3.033   2.803  19.479  0.00  0.00    +0.000 A 
ATOM      9  N   UNL     1       3.268   3.272  18.209  0.00  0.00    +0.000 N 
BRANCH   5  14
ATOM     10  C   UNL     1       7.647   5.290  13.520  0.00  0.00    +0.000 C 
ATOM     11  C   UNL     1       6.867   4.814  14.710  0.00  0.00    +0.000 A 
ATOM     12  C   UNL     1       5.520   4.468  14.583  0.00  0.00    +0.000 A 
ATOM     13  C   UNL     1       4.785   4.065  15.701  0.00  0.00    +0.000 A 
ATOM     14  C   UNL     1       5.391   3.937  16.959  0.00  0.00    +0.000 A 
ATOM     15  C   UNL     1       6.736   4.317  17.082  0.00  0.00    +0.000 A 
ATOM     16  C   UNL     1       7.469   4.747  15.973  0.00  0.00    +0.000 A 
BRANCH  15  17
ATOM     17  O   UNL     1       7.405   4.292  18.281  0.00  0.00    +0.000 OA
ATOM     18  H   UNL     1       7.307   3.400  18.673  0.00  0.00    +0.000 HD
ENDBRANCH  15  17
ENDBRANCH   5  14
BRANCH   9  19
ATOM     19  N   UNL     1       2.263   3.442  17.203  0.00  0.00    +0.000 N 
ATOM     20  H   UNL     1       2.098   4.424  17.000  0.00  0.00    +0.000 HD
ATOM     21  H   UNL     1       2.503   2.996  16.322  0.00  0.00    +0.000 HD
ENDBRANCH   9  19
ENDBRANCH   4   8
ENDBRANCH   3   4
ENDBRANCH   2   3
ENDBRANCH   1   2
BRANCH   1  22
ATOM     22  C   UNL     1       2.784   6.463  19.255  0.00  0.00    +0.000 C 
BRANCH  22  23
ATOM     23  C   UNL     1       2.313   7.597  18.350  0.00  0.00    +0.000 C 
BRANCH  23  24
ATOM     24  C   UNL     1       1.838   8.788  19.165  0.00  0.00    +0.000 C 
BRANCH  24  25
ATOM     25  C   UNL     1       1.522   9.960  18.240  0.00  0.00    +0.000 C 
BRANCH  25  26
ATOM     26  C   UNL     1       0.992  11.099  19.012  0.00  0.00    +0.000 A 
ATOM     27  N   UNL     1       1.603  12.254  19.189  0.00  0.00    +0.000 NA
ATOM     28  N   UNL     1       0.784  13.042  19.951  0.00  0.00    +0.000 NA
ATOM     29  C   UNL     1      -0.328  12.375  20.228  0.00  0.00    +0.000 A 
ATOM     30  N   UNL     1      -0.208  11.116  19.673  0.00  0.00    +0.000 N 
BRANCH  29  31
ATOM     31  C   UNL     1      -1.484  12.908  20.962  0.00  0.00    +0.000 A 
ATOM     32  C   UNL     1      -2.709  13.141  20.320  0.00  0.00    +0.000 A 
ATOM     33  C   UNL     1      -3.803  13.667  21.012  0.00  0.00    +0.000 A 
ATOM     34  C   UNL     1      -3.714  13.924  22.381  0.00  0.00    +0.000 A 
ATOM     35  C   UNL     1      -4.896  14.441  23.143  0.00  0.00    +0.000 C 
ATOM     36  C   UNL     1      -2.508  13.672  23.043  0.00  0.00    +0.000 A 
ATOM     37  C   UNL     1      -1.404  13.187  22.337  0.00  0.00    +0.000 A 
BRANCH  37  38
ATOM     38  O   UNL     1      -0.224  13.015  23.007  0.00  0.00    +0.000 OA
ATOM     39  H   UNL     1      -0.389  12.978  23.962  0.00  0.00    +0.000 HD
ENDBRANCH  37  38
ENDBRANCH  29  31
BRANCH  30  40
ATOM     40  N   UNL     1      -1.142  10.014  19.741  0.00  0.00    +0.000 N 
ATOM     41  H   UNL     1      -2.033  10.324  20.127  0.00  0.00    +0.000 HD
ATOM     42  H   UNL     1      -1.375   9.665  18.814  0.00  0.00    +0.000 HD
ENDBRANCH  30  40
ENDBRANCH  25  26
ENDBRANCH  24  25
ENDBRANCH  23  24
ENDBRANCH  22  23
ENDBRANCH   1  22
TORSDOF 15
ENDMDL
MODEL 9
REMARK VINA RESULT:      -7.4      1.373      1.989
REMARK  Name = 
REMARK  17 active torsions:
REMARK  status: ('A' for Active; 'I' for Inactive)
REMARK    1  A    between atoms: C_1  and  C_2
REMARK    2  A    between atoms: C_5  and  C_6
REMARK    3  A    between atoms: C_9  and  C_10
REMARK    4  A    between atoms: C_10  and  C_11
REMARK    5  A    between atoms: C_11  and  C_12
REMARK    6  A    between atoms: C_12  and  C_13
REMARK    7  A    between atoms: C_13  and  C_14
REMARK    8  A    between atoms: C_14  and  C_15
REMARK    9  A    between atoms: C_15  and  C_16
REMARK   10  A    between atoms: C_16  and  C_17
REMARK   11  A    between atoms: C_17  and  C_18
REMARK   12  A    between atoms: C_21  and  C_22
REMARK   13  A    between atoms: C_25  and  C_26
REMARK   14  A    between atoms: C_28  and  O_29
REMARK   15  A    between atoms: N_30  and  N_31
REMARK   16  A    between atoms: N_32  and  N_33
REMARK   17  A    between atoms: C_34  and  O_35
REMARK                            x       y       z     vdW  Elec       q    Type
REMARK                         _______ _______ _______ _____ _____    ______ ____
ROOT
ATOM      1  C   UNL     1       9.864  10.577  19.551  0.00  0.00    +0.000 C 
ENDROOT
BRANCH   1   2
ATOM      2  C   UNL     1      10.852  11.635  20.050  0.00  0.00    +0.000 C 
BRANCH   2   3
ATOM      3  C   UNL     1      11.675  12.176  18.886  0.00  0.00    +0.000 C 
BRANCH   3   4
ATOM      4  C   UNL     1      11.884  13.687  18.980  0.00  0.00    +0.000 C 
BRANCH   4   8
ATOM      5  C   UNL     1       8.716  15.142  20.034  0.00  0.00    +0.000 A 
ATOM      6  N   UNL     1       9.429  15.234  21.147  0.00  0.00    +0.000 NA
ATOM      7  N   UNL     1      10.673  14.707  20.915  0.00  0.00    +0.000 NA
ATOM      8  C   UNL     1      10.728  14.333  19.655  0.00  0.00    +0.000 A 
ATOM      9  N   UNL     1       9.530  14.619  19.047  0.00  0.00    +0.000 N 
BRANCH   5  14
ATOM     10  C   UNL     1       3.227  16.889  19.412  0.00  0.00    +0.000 C 
ATOM     11  C   UNL     1       4.649  16.437  19.574  0.00  0.00    +0.000 A 
ATOM     12  C   UNL     1       4.968  15.403  20.457  0.00  0.00    +0.000 A 
ATOM     13  C   UNL     1       6.298  15.012  20.636  0.00  0.00    +0.000 A 
ATOM     14  C   UNL     1       7.332  15.600  19.894  0.00  0.00    +0.000 A 
ATOM     15  C   UNL     1       7.005  16.658  19.033  0.00  0.00    +0.000 A 
ATOM     16  C   UNL     1       5.680  17.072  18.870  0.00  0.00    +0.000 A 
BRANCH  15  17
ATOM     17  O   UNL     1       7.949  17.344  18.310  0.00  0.00    +0.000 OA
ATOM     18  H   UNL     1       8.754  17.436  18.860  0.00  0.00    +0.000 HD
ENDBRANCH  15  17
ENDBRANCH   5  14
BRANCH   9  19
ATOM     19  N   UNL     1       9.267  14.464  17.647  0.00  0.00    +0.000 N 
ATOM     20  H   UNL     1       9.180  13.486  17.388  0.00  0.00    +0.000 HD
ATOM     21  H   UNL     1       8.412  14.926  17.349  0.00  0.00    +0.000 HD
ENDBRANCH   9  19
ENDBRANCH   4   8
ENDBRANCH   3   4
ENDBRANCH   2   3
ENDBRANCH   1   2
BRANCH   1  22
ATOM     22  C   UNL     1       9.107  11.002  18.297  0.00  0.00    +0.000 C 
BRANCH  22  23
ATOM     23  C   UNL     1       8.423   9.823  17.613  0.00  0.00    +0.000 C 
BRANCH  23  24
ATOM     24  C   UNL     1       8.187   8.684  18.589  0.00  0.00    +0.000 C 
BRANCH  24  25
ATOM     25  C   UNL     1       8.227   7.348  17.850  0.00  0.00    +0.000 C 
BRANCH  25  26
ATOM     26  C   UNL     1       6.862   6.905  17.512  0.00  0.00    +0.000 A 
ATOM     27  N   UNL     1       6.150   7.335  16.489  0.00  0.00    +0.000 NA
ATOM     28  N   UNL     1       4.949   6.679  16.516  0.00  0.00    +0.000 NA
ATOM     29  C   UNL     1       4.934   5.841  17.544  0.00  0.00    +0.000 A 
ATOM     30  N   UNL     1       6.127   5.991  18.221  0.00  0.00    +0.000 N 
BRANCH  29  31
ATOM     31  C   UNL     1       3.849   4.905  17.867  0.00  0.00    +0.000 A 
ATOM     32  C   UNL     1       2.684   5.338  18.519  0.00  0.00    +0.000 A 
ATOM     33  C   UNL     1       1.660   4.446  18.845  0.00  0.00    +0.000 A 
ATOM     34  C   UNL     1       1.751   3.103  18.476  0.00  0.00    +0.000 A 
ATOM     35  C   UNL     1       0.637   2.147  18.776  0.00  0.00    +0.000 C 
ATOM     36  C   UNL     1       2.893   2.659  17.800  0.00  0.00    +0.000 A 
ATOM     37  C   UNL     1       3.933   3.547  17.516  0.00  0.00    +0.000 A 
BRANCH  37  38
ATOM     38  O   UNL     1       5.060   3.060  16.912  0.00  0.00    +0.000 OA
ATOM     39  H   UNL     1       4.870   2.835  15.989  0.00  0.00    +0.000 HD
ENDBRANCH  37  38
ENDBRANCH  29  31
BRANCH  30  40
ATOM     40  N   UNL     1       6.561   5.327  19.431  0.00  0.00    +0.000 N 
ATOM     41  H   UNL     1       6.038   5.671  20.235  0.00  0.00    +0.000 HD
ATOM     42  H   UNL     1       6.357   4.331  19.404  0.00  0.00    +0.000 HD
ENDBRANCH  30  40
ENDBRANCH  25  26
ENDBRANCH  24  25
ENDBRANCH  23  24
ENDBRANCH  22  23
ENDBRANCH   1  22
TORSDOF 15
ENDMDL
