MODEL 1
REMARK VINA RESULT:      -5.8      0.000      0.000
REMARK  Name = 
REMARK  16 active torsions:
REMARK  status: ('A' for Active; 'I' for Inactive)
REMARK    1  A    between atoms: C_1  and  C_2
REMARK    2  A    between atoms: C_2  and  C_3
REMARK    3  A    between atoms: C_4  and  C_5
REMARK    4  A    between atoms: C_5  and  C_6
REMARK    5  A    between atoms: C_7  and  C_8
REMARK    6  A    between atoms: C_8  and  C_9
REMARK    7  A    between atoms: C_10  and  C_11
REMARK    8  A    between atoms: C_11  and  C_12
REMARK    9  A    between atoms: C_13  and  C_14
REMARK   10  A    between atoms: C_14  and  C_15
REMARK   11  A    between atoms: C_15  and  S_16
REMARK   12  A    between atoms: S_16  and  C_17
REMARK   13  A    between atoms: C_17  and  C_18
REMARK   14  A    between atoms: C_18  and  C_19
REMARK   15  A    between atoms: C_19  and  C_20
REMARK   16  A    between atoms: C_20  and  O_22
REMARK                            x       y       z     vdW  Elec       q    Type
REMARK                         _______ _______ _______ _____ _____    ______ ____
ROOT
ATOM      1  C   UNL     1       4.812   5.824  17.427  0.00  0.00    +0.000 C 
ATOM      2  C   UNL     1       4.007   5.821  18.506  0.00  0.00    +0.000 C 
ENDROOT
BRANCH   1   3
ATOM      3  C   UNL     1       4.659   6.767  16.275  0.00  0.00    +0.000 C 
BRANCH   3   5
ATOM      4  C   UNL     1       6.154   5.176  15.038  0.00  0.00    +0.000 C 
ATOM      5  C   UNL     1       5.553   6.371  15.138  0.00  0.00    +0.000 C 
BRANCH   4   6
ATOM      6  C   UNL     1       7.044   4.781  13.897  0.00  0.00    +0.000 C 
BRANCH   6   8
ATOM      7  C   UNL     1       5.017   3.669  12.915  0.00  0.00    +0.000 C 
ATOM      8  C   UNL     1       6.351   3.815  12.983  0.00  0.00    +0.000 C 
BRANCH   7   9
ATOM      9  C   UNL     1       4.324   2.722  11.983  0.00  0.00    +0.000 C 
BRANCH   9  11
ATOM     10  C   UNL     1       3.191   4.064  10.192  0.00  0.00    +0.000 C 
ATOM     11  C   UNL     1       4.216   3.303  10.605  0.00  0.00    +0.000 C 
BRANCH  10  13
ATOM     12  C   UNL     1       1.758   5.351   8.614  0.00  0.00    +0.000 C 
ATOM     13  C   UNL     1       3.091   4.651   8.816  0.00  0.00    +0.000 C 
ENDBRANCH  10  13
ENDBRANCH   9  11
ENDBRANCH   7   9
ENDBRANCH   6   8
ENDBRANCH   4   6
ENDBRANCH   3   5
ENDBRANCH   1   3
BRANCH   2  14
ATOM     14  C   UNL     1       4.196   4.898  19.672  0.00  0.00    +0.000 C 
BRANCH  14  15
ATOM     15  C   UNL     1       4.913   3.601  19.288  0.00  0.00    +0.000 C 
BRANCH  15  16
ATOM     16  S   UNL     1       3.900   2.225  19.922  0.00  0.00    +0.000 S 
BRANCH  16  17
ATOM     17  C   UNL     1       2.928   3.071  21.210  0.00  0.00    +0.000 C 
BRANCH  17  18
ATOM     18  C   UNL     1       1.440   2.771  20.994  0.00  0.00    +0.000 C 
BRANCH  18  19
ATOM     19  C   UNL     1       0.774   3.701  19.980  0.00  0.00    +0.000 C 
BRANCH  19  20
ATOM     20  C   UNL     1       0.724   3.067  18.616  0.00  0.00    +0.000 C 
ATOM     21  O   UNL     1       0.255   1.961  18.398  0.00  0.00    +0.000 OA
BRANCH  20  22
ATOM     22  O   UNL     1       1.217   3.853  17.634  0.00  0.00    +0.000 OA
ATOM     23  H   UNL     1       0.538   4.383  17.173  0.00  0.00    +0.000 HD
ENDBRANCH  20  22
ENDBRANCH  19  20
ENDBRANCH  18  19
ENDBRANCH  17  18
ENDBRANCH  16  17
ENDBRANCH  15  16
ENDBRANCH  14  15
ENDBRANCH   2  14
TORSDOF 15
ENDMDL
MODEL 2
REMARK VINA RESULT:      -5.7      4.403      5.274
REMARK  Name = 
REMARK  16 active torsions:
REMARK  status: ('A' for Active; 'I' for Inactive)
REMARK    1  A    between atoms: C_1  and  C_2
REMARK    2  A    between atoms: C_2  and  C_3
REMARK    3  A    between atoms: C_4  and  C_5
REMARK    4  A    between atoms: C_5  and  C_6
REMARK    5  A    between atoms: C_7  and  C_8
REMARK    6  A    between atoms: C_8  and  C_9
REMARK    7  A    between atoms: C_10  and  C_11
REMARK    8  A    between atoms: C_11  and  C_12
REMARK    9  A    between atoms: C_13  and  C_14
REMARK   10  A    between atoms: C_14  and  C_15
REMARK   11  A    between atoms: C_15  and  S_16
REMARK   12  A    between atoms: S_16  and  C_17
REMARK   13  A    between atoms: C_17  and  C_18
REMARK   14  A    between atoms: C_18  and  C_19
REMARK   15  A    between atoms: C_19  and  C_20
REMARK   16  A    between atoms: C_20  and  O_22
REMARK                            x       y       z     vdW  Elec       q    Type
REMARK                         _______ _______ _______ _____ _____    ______ ____
ROOT
ATOM      1  C   UNL     1       1.969   7.040  18.025  0.00  0.00    +0.000 C 
ATOM      2  C   UNL     1       2.675   8.092  17.572  0.00  0.00    +0.000 C 
ENDROOT
BRANCH   1   3
ATOM      3  C   UNL     1       2.392   5.614  17.851  0.00  0.00    +0.000 C 
BRANCH   3   5
ATOM      4  C   UNL     1       4.645   5.152  16.846  0.00  0.00    +0.000 C 
ATOM      5  C   UNL     1       3.886   5.490  17.900  0.00  0.00    +0.000 C 
BRANCH   4   6
ATOM      6  C   UNL     1       6.139   5.033  16.897  0.00  0.00    +0.000 C 
BRANCH   6   8
ATOM      7  C   UNL     1       6.048   4.096  14.570  0.00  0.00    +0.000 C 
ATOM      8  C   UNL     1       6.704   4.759  15.536  0.00  0.00    +0.000 C 
BRANCH   7   9
ATOM      9  C   UNL     1       6.603   3.844  13.200  0.00  0.00    +0.000 C 
BRANCH   9  11
ATOM     10  C   UNL     1       4.498   3.768  11.839  0.00  0.00    +0.000 C 
ATOM     11  C   UNL     1       5.593   3.165  12.325  0.00  0.00    +0.000 C 
BRANCH  10  13
ATOM     12  C   UNL     1       3.061   3.995   9.817  0.00  0.00    +0.000 C 
ATOM     13  C   UNL     1       3.494   3.087  10.957  0.00  0.00    +0.000 C 
ENDBRANCH  10  13
ENDBRANCH   9  11
ENDBRANCH   7   9
ENDBRANCH   6   8
ENDBRANCH   4   6
ENDBRANCH   3   5
ENDBRANCH   1   3
BRANCH   2  14
ATOM     14  C   UNL     1       2.260   9.516  17.788  0.00  0.00    +0.000 C 
BRANCH  14  15
ATOM     15  C   UNL     1       0.746   9.672  17.954  0.00  0.00    +0.000 C 
BRANCH  15  16
ATOM     16  S   UNL     1       0.454  11.336  18.636  0.00  0.00    +0.000 S 
BRANCH  16  17
ATOM     17  C   UNL     1      -0.475  10.935  20.151  0.00  0.00    +0.000 C 
BRANCH  17  18
ATOM     18  C   UNL     1      -0.351   9.432  20.431  0.00  0.00    +0.000 C 
BRANCH  18  19
ATOM     19  C   UNL     1      -0.366   9.090  21.922  0.00  0.00    +0.000 C 
BRANCH  19  20
ATOM     20  C   UNL     1       1.016   9.176  22.510  0.00  0.00    +0.000 C 
ATOM     21  O   UNL     1       1.257   9.640  23.613  0.00  0.00    +0.000 OA
BRANCH  20  22
ATOM     22  O   UNL     1       1.977   8.656  21.715  0.00  0.00    +0.000 OA
ATOM     23  H   UNL     1       2.864   8.644  22.123  0.00  0.00    +0.000 HD
ENDBRANCH  20  22
ENDBRANCH  19  20
ENDBRANCH  18  19
ENDBRANCH  17  18
ENDBRANCH  16  17
ENDBRANCH  15  16
ENDBRANCH  14  15
ENDBRANCH   2  14
TORSDOF 15
ENDMDL
MODEL 3
REMARK VINA RESULT:      -5.7      3.266      7.433
REMARK  Name = 
REMARK  16 active torsions:
REMARK  status: ('A' for Active; 'I' for Inactive)
REMARK    1  A    between atoms: C_1  and  C_2
REMARK    2  A    between atoms: C_2  and  C_3
REMARK    3  A    between atoms: C_4  and  C_5
REMARK    4  A    between atoms: C_5  and  C_6
REMARK    5  A    between atoms: C_7  and  C_8
REMARK    6  A    between atoms: C_8  and  C_9
REMARK    7  A    between atoms: C_10  and  C_11
REMARK    8  A    between atoms: C_11  and  C_12
REMARK    9  A    between atoms: C_13  and  C_14
REMARK   10  A    between atoms: C_14  and  C_15
REMARK   11  A    between atoms: C_15  and  S_16
REMARK   12  A    between atoms: S_16  and  C_17
REMARK   13  A    between atoms: C_17  and  C_18
REMARK   14  A    between atoms: C_18  and  C_19
REMARK   15  A    between atoms: C_19  and  C_20
REMARK   16  A    between atoms: C_20  and  O_22
REMARK                            x       y       z     vdW  Elec       q    Type
REMARK                         _______ _______ _______ _____ _____    ______ ____
ROOT
ATOM      1  C   UNL     1       4.943   7.306  17.351  0.00  0.00    +0.000 C 
ATOM      2  C   UNL     1       5.588   6.287  17.948  0.00  0.00    +0.000 C 
ENDROOT
BRANCH   1   3
ATOM      3  C   UNL     1       3.459   7.500  17.404  0.00  0.00    +0.000 C 
BRANCH   3   5
ATOM      4  C   UNL     1       2.207   7.374  19.575  0.00  0.00    +0.000 C 
ATOM      5  C   UNL     1       2.866   6.772  18.573  0.00  0.00    +0.000 C 
BRANCH   4   6
ATOM      6  C   UNL     1       1.611   6.642  20.741  0.00  0.00    +0.000 C 
BRANCH   6   8
ATOM      7  C   UNL     1       2.140   4.357  21.636  0.00  0.00    +0.000 C 
ATOM      8  C   UNL     1       1.817   5.163  20.611  0.00  0.00    +0.000 C 
BRANCH   7   9
ATOM      9  C   UNL     1       2.320   2.873  21.511  0.00  0.00    +0.000 C 
BRANCH   9  11
ATOM     10  C   UNL     1       1.953   2.240  19.113  0.00  0.00    +0.000 C 
ATOM     11  C   UNL     1       2.782   2.500  20.135  0.00  0.00    +0.000 C 
BRANCH  10  13
ATOM     12  C   UNL     1       2.793   3.112  16.937  0.00  0.00    +0.000 C 
ATOM     13  C   UNL     1       2.419   1.875  17.735  0.00  0.00    +0.000 C 
ENDBRANCH  10  13
ENDBRANCH   9  11
ENDBRANCH   7   9
ENDBRANCH   6   8
ENDBRANCH   4   6
ENDBRANCH   3   5
ENDBRANCH   1   3
BRANCH   2  14
ATOM     14  C   UNL     1       7.078   6.128  17.923  0.00  0.00    +0.000 C 
BRANCH  14  15
ATOM     15  C   UNL     1       7.515   4.742  17.440  0.00  0.00    +0.000 C 
BRANCH  15  16
ATOM     16  S   UNL     1       6.151   4.074  16.433  0.00  0.00    +0.000 S 
BRANCH  16  17
ATOM     17  C   UNL     1       6.678   4.567  14.760  0.00  0.00    +0.000 C 
BRANCH  17  18
ATOM     18  C   UNL     1       5.669   4.030  13.738  0.00  0.00    +0.000 C 
BRANCH  18  19
ATOM     19  C   UNL     1       6.322   3.499  12.461  0.00  0.00    +0.000 C 
BRANCH  19  20
ATOM     20  C   UNL     1       5.370   2.626  11.689  0.00  0.00    +0.000 C 
ATOM     21  O   UNL     1       4.306   3.017  11.236  0.00  0.00    +0.000 OA
BRANCH  20  22
ATOM     22  O   UNL     1       5.817   1.364  11.508  0.00  0.00    +0.000 OA
ATOM     23  H   UNL     1       5.927   0.861  12.338  0.00  0.00    +0.000 HD
ENDBRANCH  20  22
ENDBRANCH  19  20
ENDBRANCH  18  19
ENDBRANCH  17  18
ENDBRANCH  16  17
ENDBRANCH  15  16
ENDBRANCH  14  15
ENDBRANCH   2  14
TORSDOF 15
ENDMDL
MODEL 4
REMARK VINA RESULT:      -5.6      5.753      8.852
REMARK  Name = 
REMARK  16 active torsions:
REMARK  status: ('A' for Active; 'I' for Inactive)
REMARK    1  A    between atoms: C_1  and  C_2
REMARK    2  A    between atoms: C_2  and  C_3
REMARK    3  A    between atoms: C_4  and  C_5
REMARK    4  A    between atoms: C_5  and  C_6
REMARK    5  A    between atoms: C_7  and  C_8
REMARK    6  A    between atoms: C_8  and  C_9
REMARK    7  A    between atoms: C_10  and  C_11
REMARK    8  A    between atoms: C_11  and  C_12
REMARK    9  A    between atoms: C_13  and  C_14
REMARK   10  A    between atoms: C_14  and  C_15
REMARK   11  A    between atoms: C_15  and  S_16
REMARK   12  A    between atoms: S_16  and  C_17
REMARK   13  A    between atoms: C_17  and  C_18
REMARK   14  A    between atoms: C_18  and  C_19
REMARK   15  A    between atoms: C_19  and  C_20
REMARK   16  A    between atoms: C_20  and  O_22
REMARK                            x       y       z     vdW  Elec       q    Type
REMARK                         _______ _______ _______ _____ _____    ______ ____
ROOT
ATOM      1  C   UNL     1       5.949   6.046  17.928  0.00  0.00    +0.000 C 
ATOM      2  C   UNL     1       5.056   6.782  17.240  0.00  0.00    +0.000 C 
ENDROOT
BRANCH   1   3
ATOM      3  C   UNL     1       7.425   6.295  17.911  0.00  0.00    +0.000 C 
BRANCH   3   5
ATOM      4  C   UNL     1       8.391   8.556  18.415  0.00  0.00    +0.000 C 
ATOM      5  C   UNL     1       7.722   7.731  17.595  0.00  0.00    +0.000 C 
BRANCH   4   6
ATOM      6  C   UNL     1       8.690   9.990  18.094  0.00  0.00    +0.000 C 
BRANCH   6   8
ATOM      7  C   UNL     1      10.636  11.381  18.856  0.00  0.00    +0.000 C 
ATOM      8  C   UNL     1       9.579  10.601  19.135  0.00  0.00    +0.000 C 
BRANCH   7   9
ATOM      9  C   UNL     1      11.510  12.013  19.898  0.00  0.00    +0.000 C 
BRANCH   9  11
ATOM     10  C   UNL     1       9.774  12.628  21.600  0.00  0.00    +0.000 C 
ATOM     11  C   UNL     1      10.735  12.985  20.735  0.00  0.00    +0.000 C 
BRANCH  10  13
ATOM     12  C   UNL     1       7.716  14.021  21.756  0.00  0.00    +0.000 C 
ATOM     13  C   UNL     1       9.006  13.604  22.441  0.00  0.00    +0.000 C 
ENDBRANCH  10  13
ENDBRANCH   9  11
ENDBRANCH   7   9
ENDBRANCH   6   8
ENDBRANCH   4   6
ENDBRANCH   3   5
ENDBRANCH   1   3
BRANCH   2  14
ATOM     14  C   UNL     1       3.577   6.548  17.298  0.00  0.00    +0.000 C 
BRANCH  14  15
ATOM     15  C   UNL     1       3.117   6.010  18.656  0.00  0.00    +0.000 C 
BRANCH  15  16
ATOM     16  S   UNL     1       2.008   4.603  18.323  0.00  0.00    +0.000 S 
BRANCH  16  17
ATOM     17  C   UNL     1       2.990   3.664  17.110  0.00  0.00    +0.000 C 
BRANCH  17  18
ATOM     18  C   UNL     1       3.640   2.465  17.812  0.00  0.00    +0.000 C 
BRANCH  18  19
ATOM     19  C   UNL     1       2.967   2.099  19.136  0.00  0.00    +0.000 C 
BRANCH  19  20
ATOM     20  C   UNL     1       3.932   2.219  20.284  0.00  0.00    +0.000 C 
ATOM     21  O   UNL     1       3.590   2.363  21.447  0.00  0.00    +0.000 OA
BRANCH  20  22
ATOM     22  O   UNL     1       5.228   2.116  19.916  0.00  0.00    +0.000 OA
ATOM     23  H   UNL     1       5.774   1.593  20.535  0.00  0.00    +0.000 HD
ENDBRANCH  20  22
ENDBRANCH  19  20
ENDBRANCH  18  19
ENDBRANCH  17  18
ENDBRANCH  16  17
ENDBRANCH  15  16
ENDBRANCH  14  15
ENDBRANCH   2  14
TORSDOF 15
ENDMDL
MODEL 5
REMARK VINA RESULT:      -5.6      6.878      9.456
REMARK  Name = 
REMARK  16 active torsions:
REMARK  status: ('A' for Active; 'I' for Inactive)
REMARK    1  A    between atoms: C_1  and  C_2
REMARK    2  A    between atoms: C_2  and  C_3
REMARK    3  A    between atoms: C_4  and  C_5
REMARK    4  A    between atoms: C_5  and  C_6
REMARK    5  A    between atoms: C_7  and  C_8
REMARK    6  A    between atoms: C_8  and  C_9
REMARK    7  A    between atoms: C_10  and  C_11
REMARK    8  A    between atoms: C_11  and  C_12
REMARK    9  A    between atoms: C_13  and  C_14
REMARK   10  A    between atoms: C_14  and  C_15
REMARK   11  A    between atoms: C_15  and  S_16
REMARK   12  A    between atoms: S_16  and  C_17
REMARK   13  A    between atoms: C_17  and  C_18
REMARK   14  A    between atoms: C_18  and  C_19
REMARK   15  A    between atoms: C_19  and  C_20
REMARK   16  A    between atoms: C_20  and  O_22
REMARK                            x       y       z     vdW  Elec       q    Type
REMARK                         _______ _______ _______ _____ _____    ______ ____
ROOT
ATOM      1  C   UNL     1       7.707   7.795  17.616  0.00  0.00    +0.000 C 
ATOM      2  C   UNL     1       8.008   6.898  18.573  0.00  0.00    +0.000 C 
ENDROOT
BRANCH   1   3
ATOM      3  C   UNL     1       8.183   9.215  17.624  0.00  0.00    +0.000 C 
BRANCH   3   5
ATOM      4  C   UNL     1       9.527  10.683  19.153  0.00  0.00    +0.000 C 
ATOM      5  C   UNL     1       8.840   9.552  18.929  0.00  0.00    +0.000 C 
BRANCH   4   6
ATOM      6  C   UNL     1      10.179  11.018  20.461  0.00  0.00    +0.000 C 
BRANCH   6   8
ATOM      7  C   UNL     1      11.724  12.754  19.509  0.00  0.00    +0.000 C 
ATOM      8  C   UNL     1      10.807  12.379  20.416  0.00  0.00    +0.000 C 
BRANCH   7   9
ATOM      9  C   UNL     1      12.333  14.123  19.448  0.00  0.00    +0.000 C 
BRANCH   9  11
ATOM     10  C   UNL     1      10.536  15.871  19.505  0.00  0.00    +0.000 C 
ATOM     11  C   UNL     1      11.392  15.104  18.815  0.00  0.00    +0.000 C 
BRANCH  10  13
ATOM     12  C   UNL     1       8.847  16.227  17.710  0.00  0.00    +0.000 C 
ATOM     13  C   UNL     1       9.602  16.857  18.869  0.00  0.00    +0.000 C 
ENDBRANCH  10  13
ENDBRANCH   9  11
ENDBRANCH   7   9
ENDBRANCH   6   8
ENDBRANCH   4   6
ENDBRANCH   3   5
ENDBRANCH   1   3
BRANCH   2  14
ATOM     14  C   UNL     1       7.560   5.469  18.532  0.00  0.00    +0.000 C 
BRANCH  14  15
ATOM     15  C   UNL     1       6.157   5.273  19.113  0.00  0.00    +0.000 C 
BRANCH  15  16
ATOM     16  S   UNL     1       5.198   4.329  17.884  0.00  0.00    +0.000 S 
BRANCH  16  17
ATOM     17  C   UNL     1       3.974   3.506  18.953  0.00  0.00    +0.000 C 
BRANCH  17  18
ATOM     18  C   UNL     1       2.803   4.463  19.204  0.00  0.00    +0.000 C 
BRANCH  18  19
ATOM     19  C   UNL     1       2.461   4.628  20.686  0.00  0.00    +0.000 C 
BRANCH  19  20
ATOM     20  C   UNL     1       1.665   3.456  21.191  0.00  0.00    +0.000 C 
ATOM     21  O   UNL     1       1.965   2.806  22.180  0.00  0.00    +0.000 OA
BRANCH  20  22
ATOM     22  O   UNL     1       0.554   3.203  20.466  0.00  0.00    +0.000 OA
ATOM     23  H   UNL     1       0.614   3.494  19.535  0.00  0.00    +0.000 HD
ENDBRANCH  20  22
ENDBRANCH  19  20
ENDBRANCH  18  19
ENDBRANCH  17  18
ENDBRANCH  16  17
ENDBRANCH  15  16
ENDBRANCH  14  15
ENDBRANCH   2  14
TORSDOF 15
ENDMDL
MODEL 6
REMARK VINA RESULT:      -5.6      7.190      9.602
REMARK  Name = 
REMARK  16 active torsions:
REMARK  status: ('A' for Active; 'I' for Inactive)
REMARK    1  A    between atoms: C_1  and  C_2
REMARK    2  A    between atoms: C_2  and  C_3
REMARK    3  A    between atoms: C_4  and  C_5
REMARK    4  A    between atoms: C_5  and  C_6
REMARK    5  A    between atoms: C_7  and  C_8
REMARK    6  A    between atoms: C_8  and  C_9
REMARK    7  A    between atoms: C_10  and  C_11
REMARK    8  A    between atoms: C_11  and  C_12
REMARK    9  A    between atoms: C_13  and  C_14
REMARK   10  A    between atoms: C_14  and  C_15
REMARK   11  A    between atoms: C_15  and  S_16
REMARK   12  A    between atoms: S_16  and  C_17
REMARK   13  A    between atoms: C_17  and  C_18
REMARK   14  A    between atoms: C_18  and  C_19
REMARK   15  A    between atoms: C_19  and  C_20
REMARK   16  A    between atoms: C_20  and  O_22
REMARK                            x       y       z     vdW  Elec       q    Type
REMARK                         _______ _______ _______ _____ _____    ______ ____
ROOT
ATOM      1  C   UNL     1       8.831  10.378  18.145  0.00  0.00    +0.000 C 
ATOM      2  C   UNL     1      10.000  11.046  18.135  0.00  0.00    +0.000 C 
ENDROOT
BRANCH   1   3
ATOM      3  C   UNL     1       8.702   8.928  18.494  0.00  0.00    +0.000 C 
BRANCH   3   5
ATOM      4  C   UNL     1       7.497   6.953  17.522  0.00  0.00    +0.000 C 
ATOM      5  C   UNL     1       7.615   8.279  17.690  0.00  0.00    +0.000 C 
BRANCH   4   6
ATOM      6  C   UNL     1       6.407   6.307  16.720  0.00  0.00    +0.000 C 
BRANCH   6   8
ATOM      7  C   UNL     1       4.083   7.014  17.356  0.00  0.00    +0.000 C 
ATOM      8  C   UNL     1       5.142   6.202  17.517  0.00  0.00    +0.000 C 
BRANCH   7   9
ATOM      9  C   UNL     1       2.808   6.892  18.135  0.00  0.00    +0.000 C 
BRANCH   9  11
ATOM     10  C   UNL     1       1.811   4.612  17.830  0.00  0.00    +0.000 C 
ATOM     11  C   UNL     1       2.556   5.471  18.540  0.00  0.00    +0.000 C 
BRANCH  10  13
ATOM     12  C   UNL     1       2.812   2.577  18.859  0.00  0.00    +0.000 C 
ATOM     13  C   UNL     1       1.569   3.188  18.234  0.00  0.00    +0.000 C 
ENDBRANCH  10  13
ENDBRANCH   9  11
ENDBRANCH   7   9
ENDBRANCH   6   8
ENDBRANCH   4   6
ENDBRANCH   3   5
ENDBRANCH   1   3
BRANCH   2  14
ATOM     14  C   UNL     1      10.111  12.508  17.824  0.00  0.00    +0.000 C 
BRANCH  14  15
ATOM     15  C   UNL     1      11.166  13.216  18.677  0.00  0.00    +0.000 C 
BRANCH  15  16
ATOM     16  S   UNL     1      10.563  14.910  18.972  0.00  0.00    +0.000 S 
BRANCH  16  17
ATOM     17  C   UNL     1       9.314  14.616  20.265  0.00  0.00    +0.000 C 
BRANCH  17  18
ATOM     18  C   UNL     1       9.813  13.508  21.202  0.00  0.00    +0.000 C 
BRANCH  18  19
ATOM     19  C   UNL     1       8.868  13.233  22.373  0.00  0.00    +0.000 C 
BRANCH  19  20
ATOM     20  C   UNL     1       8.602  11.759  22.517  0.00  0.00    +0.000 C 
ATOM     21  O   UNL     1       7.820  11.286  23.327  0.00  0.00    +0.000 OA
BRANCH  20  22
ATOM     22  O   UNL     1       9.287  10.996  21.638  0.00  0.00    +0.000 OA
ATOM     23  H   UNL     1       8.738  10.639  20.912  0.00  0.00    +0.000 HD
ENDBRANCH  20  22
ENDBRANCH  19  20
ENDBRANCH  18  19
ENDBRANCH  17  18
ENDBRANCH  16  17
ENDBRANCH  15  16
ENDBRANCH  14  15
ENDBRANCH   2  14
TORSDOF 15
ENDMDL
MODEL 7
REMARK VINA RESULT:      -5.6      2.079      3.695
REMARK  Name = 
REMARK  16 active torsions:
REMARK  status: ('A' for Active; 'I' for Inactive)
REMARK    1  A    between atoms: C_1  and  C_2
REMARK    2  A    between atoms: C_2  and  C_3
REMARK    3  A    between atoms: C_4  and  C_5
REMARK    4  A    between atoms: C_5  and  C_6
REMARK    5  A    between atoms: C_7  and  C_8
REMARK    6  A    between atoms: C_8  and  C_9
REMARK    7  A    between atoms: C_10  and  C_11
REMARK    8  A    between atoms: C_11  and  C_12
REMARK    9  A    between atoms: C_13  and  C_14
REMARK   10  A    between atoms: C_14  and  C_15
REMARK   11  A    between atoms: C_15  and  S_16
REMARK   12  A    between atoms: S_16  and  C_17
REMARK   13  A    between atoms: C_17  and  C_18
REMARK   14  A    between atoms: C_18  and  C_19
REMARK   15  A    between atoms: C_19  and  C_20
REMARK   16  A    between atoms: C_20  and  O_22
REMARK                            x       y       z     vdW  Elec       q    Type
REMARK                         _______ _______ _______ _____ _____    ______ ____
ROOT
ATOM      1  C   UNL     1       2.138   5.668  19.550  0.00  0.00    +0.000 C 
ATOM      2  C   UNL     1       2.063   5.217  20.815  0.00  0.00    +0.000 C 
ENDROOT
BRANCH   1   3
ATOM      3  C   UNL     1       2.501   7.075  19.186  0.00  0.00    +0.000 C 
BRANCH   3   5
ATOM      4  C   UNL     1       4.089   6.759  17.268  0.00  0.00    +0.000 C 
ATOM      5  C   UNL     1       3.852   7.127  18.537  0.00  0.00    +0.000 C 
BRANCH   4   6
ATOM      6  C   UNL     1       5.440   6.817  16.620  0.00  0.00    +0.000 C 
BRANCH   6   8
ATOM      7  C   UNL     1       6.163   4.641  15.597  0.00  0.00    +0.000 C 
ATOM      8  C   UNL     1       5.542   5.828  15.498  0.00  0.00    +0.000 C 
BRANCH   7   9
ATOM      9  C   UNL     1       6.243   3.641  14.483  0.00  0.00    +0.000 C 
BRANCH   9  11
ATOM     10  C   UNL     1       5.264   3.345  12.193  0.00  0.00    +0.000 C 
ATOM     11  C   UNL     1       5.397   4.061  13.319  0.00  0.00    +0.000 C 
BRANCH  10  13
ATOM     12  C   UNL     1       3.248   2.808  10.834  0.00  0.00    +0.000 C 
ATOM     13  C   UNL     1       4.410   3.766  11.034  0.00  0.00    +0.000 C 
ENDBRANCH  10  13
ENDBRANCH   9  11
ENDBRANCH   7   9
ENDBRANCH   6   8
ENDBRANCH   4   6
ENDBRANCH   3   5
ENDBRANCH   1   3
BRANCH   2  14
ATOM     14  C   UNL     1       1.739   3.796  21.165  0.00  0.00    +0.000 C 
BRANCH  14  15
ATOM     15  C   UNL     1       0.688   3.184  20.234  0.00  0.00    +0.000 C 
BRANCH  15  16
ATOM     16  S   UNL     1       1.545   1.951  19.202  0.00  0.00    +0.000 S 
BRANCH  16  17
ATOM     17  C   UNL     1       1.697   2.856  17.629  0.00  0.00    +0.000 C 
BRANCH  17  18
ATOM     18  C   UNL     1       3.152   3.305  17.446  0.00  0.00    +0.000 C 
BRANCH  18  19
ATOM     19  C   UNL     1       4.165   2.354  18.084  0.00  0.00    +0.000 C 
BRANCH  19  20
ATOM     20  C   UNL     1       4.897   3.023  19.216  0.00  0.00    +0.000 C 
ATOM     21  O   UNL     1       5.459   4.102  19.117  0.00  0.00    +0.000 OA
BRANCH  20  22
ATOM     22  O   UNL     1       4.847   2.333  20.377  0.00  0.00    +0.000 OA
ATOM     23  H   UNL     1       4.143   2.632  20.984  0.00  0.00    +0.000 HD
ENDBRANCH  20  22
ENDBRANCH  19  20
ENDBRANCH  18  19
ENDBRANCH  17  18
ENDBRANCH  16  17
ENDBRANCH  15  16
ENDBRANCH  14  15
ENDBRANCH   2  14
TORSDOF 15
ENDMDL
MODEL 8
REMARK VINA RESULT:      -5.6      5.909      8.605
REMARK  Name = 
REMARK  16 active torsions:
REMARK  status: ('A' for Active; 'I' for Inactive)
REMARK    1  A    between atoms: C_1  and  C_2
REMARK    2  A    between atoms: C_2  and  C_3
REMARK    3  A    between atoms: C_4  and  C_5
REMARK    4  A    between atoms: C_5  and  C_6
REMARK    5  A    between atoms: C_7  and  C_8
REMARK    6  A    between atoms: C_8  and  C_9
REMARK    7  A    between atoms: C_10  and  C_11
REMARK    8  A    between atoms: C_11  and  C_12
REMARK    9  A    between atoms: C_13  and  C_14
REMARK   10  A    between atoms: C_14  and  C_15
REMARK   11  A    between atoms: C_15  and  S_16
REMARK   12  A    between atoms: S_16  and  C_17
REMARK   13  A    between atoms: C_17  and  C_18
REMARK   14  A    between atoms: C_18  and  C_19
REMARK   15  A    between atoms: C_19  and  C_20
REMARK   16  A    between atoms: C_20  and  O_22
REMARK                            x       y       z     vdW  Elec       q    Type
REMARK                         _______ _______ _______ _____ _____    ______ ____
ROOT
ATOM      1  C   UNL     1       2.984   7.518  17.502  0.00  0.00    +0.000 C 
ATOM      2  C   UNL     1       4.160   6.875  17.624  0.00  0.00    +0.000 C 
ENDROOT
BRANCH   1   3
ATOM      3  C   UNL     1       2.220   8.087  18.657  0.00  0.00    +0.000 C 
BRANCH   3   5
ATOM      4  C   UNL     1       0.597   9.961  19.046  0.00  0.00    +0.000 C 
ATOM      5  C   UNL     1       1.365   9.238  18.217  0.00  0.00    +0.000 C 
BRANCH   4   6
ATOM      6  C   UNL     1      -0.254  11.114  18.604  0.00  0.00    +0.000 C 
BRANCH   6   8
ATOM      7  C   UNL     1      -2.395  11.005  17.297  0.00  0.00    +0.000 C 
ATOM      8  C   UNL     1      -1.673  10.684  18.384  0.00  0.00    +0.000 C 
BRANCH   7   9
ATOM      9  C   UNL     1      -3.806  10.552  17.065  0.00  0.00    +0.000 C 
BRANCH   9  11
ATOM     10  C   UNL     1      -6.000  10.841  18.245  0.00  0.00    +0.000 C 
ATOM     11  C   UNL     1      -4.759  11.271  17.972  0.00  0.00    +0.000 C 
BRANCH  10  13
ATOM     12  C   UNL     1      -6.270  11.934  20.466  0.00  0.00    +0.000 C 
ATOM     13  C   UNL     1      -6.947  11.559  19.159  0.00  0.00    +0.000 C 
ENDBRANCH  10  13
ENDBRANCH   9  11
ENDBRANCH   7   9
ENDBRANCH   6   8
ENDBRANCH   4   6
ENDBRANCH   3   5
ENDBRANCH   1   3
BRANCH   2  14
ATOM     14  C   UNL     1       4.935   6.346  16.456  0.00  0.00    +0.000 C 
BRANCH  14  15
ATOM     15  C   UNL     1       4.953   4.816  16.404  0.00  0.00    +0.000 C 
BRANCH  15  16
ATOM     16  S   UNL     1       5.211   4.228  18.109  0.00  0.00    +0.000 S 
BRANCH  16  17
ATOM     17  C   UNL     1       3.822   3.063  18.291  0.00  0.00    +0.000 C 
BRANCH  17  18
ATOM     18  C   UNL     1       2.676   3.503  17.372  0.00  0.00    +0.000 C 
BRANCH  18  19
ATOM     19  C   UNL     1       1.494   4.113  18.127  0.00  0.00    +0.000 C 
BRANCH  19  20
ATOM     20  C   UNL     1       0.758   3.066  18.918  0.00  0.00    +0.000 C 
ATOM     21  O   UNL     1       0.328   2.029  18.436  0.00  0.00    +0.000 OA
BRANCH  20  22
ATOM     22  O   UNL     1       0.643   3.359  20.231  0.00  0.00    +0.000 OA
ATOM     23  H   UNL     1       1.441   3.147  20.754  0.00  0.00    +0.000 HD
ENDBRANCH  20  22
ENDBRANCH  19  20
ENDBRANCH  18  19
ENDBRANCH  17  18
ENDBRANCH  16  17
ENDBRANCH  15  16
ENDBRANCH  14  15
ENDBRANCH   2  14
TORSDOF 15
ENDMDL
MODEL 9
REMARK VINA RESULT:      -5.6      6.027      8.891
REMARK  Name = 
REMARK  16 active torsions:
REMARK  status: ('A' for Active; 'I' for Inactive)
REMARK    1  A    between atoms: C_1  and  C_2
REMARK    2  A    between atoms: C_2  and  C_3
REMARK    3  A    between atoms: C_4  and  C_5
REMARK    4  A    between atoms: C_5  and  C_6
REMARK    5  A    between atoms: C_7  and  C_8
REMARK    6  A    between atoms: C_8  and  C_9
REMARK    7  A    between atoms: C_10  and  C_11
REMARK    8  A    between atoms: C_11  and  C_12
REMARK    9  A    between atoms: C_13  and  C_14
REMARK   10  A    between atoms: C_14  and  C_15
REMARK   11  A    between atoms: C_15  and  S_16
REMARK   12  A    between atoms: S_16  and  C_17
REMARK   13  A    between atoms: C_17  and  C_18
REMARK   14  A    between atoms: C_18  and  C_19
REMARK   15  A    between atoms: C_19  and  C_20
REMARK   16  A    between atoms: C_20  and  O_22
REMARK                            x       y       z     vdW  Elec       q    Type
REMARK                         _______ _______ _______ _____ _____    ______ ____
ROOT
ATOM      1  C   UNL     1       6.448   6.041  18.190  0.00  0.00    +0.000 C 
ATOM      2  C   UNL     1       6.083   4.959  18.902  0.00  0.00    +0.000 C 
ENDROOT
BRANCH   1   3
ATOM      3  C   UNL     1       7.833   6.608  18.185  0.00  0.00    +0.000 C 
BRANCH   3   5
ATOM      4  C   UNL     1       8.335   9.066  18.264  0.00  0.00    +0.000 C 
ATOM      5  C   UNL     1       7.840   7.997  17.620  0.00  0.00    +0.000 C 
BRANCH   4   6
ATOM      6  C   UNL     1       8.344  10.453  17.695  0.00  0.00    +0.000 C 
BRANCH   6   8
ATOM      7  C   UNL     1      10.124  10.985  19.383  0.00  0.00    +0.000 C 
ATOM      8  C   UNL     1       9.505  11.243  18.220  0.00  0.00    +0.000 C 
BRANCH   7   9
ATOM      9  C   UNL     1      11.302  11.759  19.896  0.00  0.00    +0.000 C 
BRANCH   9  11
ATOM     10  C   UNL     1      11.031  14.250  19.992  0.00  0.00    +0.000 C 
ATOM     11  C   UNL     1      10.866  13.039  20.543  0.00  0.00    +0.000 C 
BRANCH  10  13
ATOM     12  C   UNL     1      10.323  16.605  19.601  0.00  0.00    +0.000 C 
ATOM     13  C   UNL     1      10.586  15.527  20.639  0.00  0.00    +0.000 C 
ENDBRANCH  10  13
ENDBRANCH   9  11
ENDBRANCH   7   9
ENDBRANCH   6   8
ENDBRANCH   4   6
ENDBRANCH   3   5
ENDBRANCH   1   3
BRANCH   2  14
ATOM     14  C   UNL     1       4.703   4.376  18.866  0.00  0.00    +0.000 C 
BRANCH  14  15
ATOM     15  C   UNL     1       4.373   3.722  17.521  0.00  0.00    +0.000 C 
BRANCH  15  16
ATOM     16  S   UNL     1       2.748   2.918  17.705  0.00  0.00    +0.000 S 
BRANCH  16  17
ATOM     17  C   UNL     1       1.710   4.335  18.187  0.00  0.00    +0.000 C 
BRANCH  17  18
ATOM     18  C   UNL     1       1.323   4.195  19.664  0.00  0.00    +0.000 C 
BRANCH  18  19
ATOM     19  C   UNL     1       1.266   2.743  20.141  0.00  0.00    +0.000 C 
BRANCH  19  20
ATOM     20  C   UNL     1       1.975   2.578  21.458  0.00  0.00    +0.000 C 
ATOM     21  O   UNL     1       3.189   2.620  21.586  0.00  0.00    +0.000 OA
BRANCH  20  22
ATOM     22  O   UNL     1       1.139   2.414  22.507  0.00  0.00    +0.000 OA
ATOM     23  H   UNL     1       1.221   1.545  22.945  0.00  0.00    +0.000 HD
ENDBRANCH  20  22
ENDBRANCH  19  20
ENDBRANCH  18  19
ENDBRANCH  17  18
ENDBRANCH  16  17
ENDBRANCH  15  16
ENDBRANCH  14  15
ENDBRANCH   2  14
TORSDOF 15
ENDMDL
