MODEL 1
REMARK VINA RESULT:      -7.3      0.000      0.000
REMARK  Name = 
REMARK  6 active torsions:
REMARK  status: ('A' for Active; 'I' for Inactive)
REMARK    1  A    between atoms: C_1  and  C_2
REMARK    2  A    between atoms: C_2  and  C_3
REMARK    3  A    between atoms: C_2  and  C_12
REMARK    4  A    between atoms: C_3  and  C_4
REMARK    5  A    between atoms: N_14  and  C_15
REMARK    6  A    between atoms: C_15  and  C_16
REMARK                            x       y       z     vdW  Elec       q    Type
REMARK                         _______ _______ _______ _____ _____    ______ ____
ROOT
ATOM      1  C   UNL     1       7.319   5.174  16.485  0.00  0.00    +0.000 C 
ATOM      2  O   UNL     1       8.031   4.230  16.820  0.00  0.00    +0.000 OA
ATOM      3  N   UNL     1       7.161   5.529  15.166  0.00  0.00    +0.000 N 
ATOM      4  H   UNL     1       6.563   6.303  14.912  0.00  0.00    +0.000 HD
ENDROOT
BRANCH   1   6
ATOM      5  C   UNL     1       7.375   7.266  17.824  0.00  0.00    +0.000 C 
ATOM      6  C   UNL     1       6.541   6.018  17.506  0.00  0.00    +0.000 C 
BRANCH   6   7
ATOM      7  C   UNL     1       5.148   6.364  16.948  0.00  0.00    +0.000 C 
BRANCH   7   8
ATOM      8  C   UNL     1       4.002   5.440  17.318  0.00  0.00    +0.000 A 
ATOM      9  C   UNL     1       4.070   4.092  16.929  0.00  0.00    +0.000 A 
ATOM     10  C   UNL     1       3.102   3.171  17.333  0.00  0.00    +0.000 A 
ATOM     11  C   UNL     1       2.041   3.588  18.134  0.00  0.00    +0.000 A 
ATOM     12 CL   UNL     1       0.878   2.442  18.677  0.00  0.00    +0.000 Cl
ATOM     13  C   UNL     1       1.931   4.924  18.512  0.00  0.00    +0.000 A 
ATOM     14  C   UNL     1       2.900   5.846  18.097  0.00  0.00    +0.000 A 
ATOM     15 CL   UNL     1       2.706   7.486  18.606  0.00  0.00    +0.000 Cl
ENDBRANCH   7   8
ENDBRANCH   6   7
ENDBRANCH   1   6
BRANCH   3  16
ATOM     16  C   UNL     1       7.765   4.754  14.102  0.00  0.00    +0.000 C 
BRANCH  16  17
ATOM     17  C   UNL     1       6.736   4.124  13.198  0.00  0.00    +0.000 A 
ATOM     18  C   UNL     1       7.138   3.340  12.103  0.00  0.00    +0.000 A 
ATOM     19  C   UNL     1       6.188   2.711  11.295  0.00  0.00    +0.000 A 
ATOM     20  C   UNL     1       4.837   2.871  11.574  0.00  0.00    +0.000 A 
ATOM     21  F   UNL     1       3.925   2.257  10.808  0.00  0.00    +0.000 F 
ATOM     22  C   UNL     1       4.416   3.656  12.641  0.00  0.00    +0.000 A 
ATOM     23  C   UNL     1       5.365   4.285  13.452  0.00  0.00    +0.000 A 
ENDBRANCH  16  17
ENDBRANCH   3  16
TORSDOF 5
ENDMDL
MODEL 2
REMARK VINA RESULT:      -7.2      3.615      5.913
REMARK  Name = 
REMARK  6 active torsions:
REMARK  status: ('A' for Active; 'I' for Inactive)
REMARK    1  A    between atoms: C_1  and  C_2
REMARK    2  A    between atoms: C_2  and  C_3
REMARK    3  A    between atoms: C_2  and  C_12
REMARK    4  A    between atoms: C_3  and  C_4
REMARK    5  A    between atoms: N_14  and  C_15
REMARK    6  A    between atoms: C_15  and  C_16
REMARK                            x       y       z     vdW  Elec       q    Type
REMARK                         _______ _______ _______ _____ _____    ______ ____
ROOT
ATOM      1  C   UNL     1       1.830   3.739  18.867  0.00  0.00    +0.000 C 
ATOM      2  O   UNL     1       1.188   3.759  17.821  0.00  0.00    +0.000 OA
ATOM      3  N   UNL     1       3.135   3.304  18.908  0.00  0.00    +0.000 N 
ATOM      4  H   UNL     1       3.649   3.304  19.778  0.00  0.00    +0.000 HD
ENDROOT
BRANCH   1   6
ATOM      5  C   UNL     1       1.179   2.999  21.148  0.00  0.00    +0.000 C 
ATOM      6  C   UNL     1       1.237   4.207  20.205  0.00  0.00    +0.000 C 
BRANCH   6   7
ATOM      7  C   UNL     1       2.080   5.363  20.776  0.00  0.00    +0.000 C 
BRANCH   7   8
ATOM      8  C   UNL     1       1.620   6.776  20.470  0.00  0.00    +0.000 A 
ATOM      9  C   UNL     1       0.755   7.414  21.375  0.00  0.00    +0.000 A 
ATOM     10  C   UNL     1       0.384   8.749  21.205  0.00  0.00    +0.000 A 
ATOM     11  C   UNL     1       0.872   9.470  20.118  0.00  0.00    +0.000 A 
ATOM     12 CL   UNL     1       0.459  11.131  19.938  0.00  0.00    +0.000 Cl
ATOM     13  C   UNL     1       1.708   8.857  19.187  0.00  0.00    +0.000 A 
ATOM     14  C   UNL     1       2.070   7.515  19.357  0.00  0.00    +0.000 A 
ATOM     15 CL   UNL     1       3.114   6.818  18.170  0.00  0.00    +0.000 Cl
ENDBRANCH   7   8
ENDBRANCH   6   7
ENDBRANCH   1   6
BRANCH   3  16
ATOM     16  C   UNL     1       3.838   2.927  17.699  0.00  0.00    +0.000 C 
BRANCH  16  17
ATOM     17  C   UNL     1       4.883   3.939  17.305  0.00  0.00    +0.000 A 
ATOM     18  C   UNL     1       5.773   4.452  18.265  0.00  0.00    +0.000 A 
ATOM     19  C   UNL     1       6.776   5.350  17.894  0.00  0.00    +0.000 A 
ATOM     20  C   UNL     1       6.887   5.743  16.566  0.00  0.00    +0.000 A 
ATOM     21  F   UNL     1       7.858   6.593  16.206  0.00  0.00    +0.000 F 
ATOM     22  C   UNL     1       6.007   5.262  15.603  0.00  0.00    +0.000 A 
ATOM     23  C   UNL     1       5.003   4.362  15.972  0.00  0.00    +0.000 A 
ENDBRANCH  16  17
ENDBRANCH   3  16
TORSDOF 5
ENDMDL
MODEL 3
REMARK VINA RESULT:      -7.2      4.400      6.657
REMARK  Name = 
REMARK  6 active torsions:
REMARK  status: ('A' for Active; 'I' for Inactive)
REMARK    1  A    between atoms: C_1  and  C_2
REMARK    2  A    between atoms: C_2  and  C_3
REMARK    3  A    between atoms: C_2  and  C_12
REMARK    4  A    between atoms: C_3  and  C_4
REMARK    5  A    between atoms: N_14  and  C_15
REMARK    6  A    between atoms: C_15  and  C_16
REMARK                            x       y       z     vdW  Elec       q    Type
REMARK                         _______ _______ _______ _____ _____    ______ ____
ROOT
ATOM      1  C   UNL     1       4.645   5.389  18.089  0.00  0.00    +0.000 C 
ATOM      2  O   UNL     1       5.456   5.131  18.975  0.00  0.00    +0.000 OA
ATOM      3  N   UNL     1       3.861   4.414  17.517  0.00  0.00    +0.000 N 
ATOM      4  H   UNL     1       3.194   4.649  16.796  0.00  0.00    +0.000 HD
ENDROOT
BRANCH   1   6
ATOM      5  C   UNL     1       5.214   6.959  16.249  0.00  0.00    +0.000 C 
ATOM      6  C   UNL     1       4.432   6.816  17.562  0.00  0.00    +0.000 C 
BRANCH   6   7
ATOM      7  C   UNL     1       2.927   7.091  17.386  0.00  0.00    +0.000 C 
BRANCH   7   8
ATOM      8  C   UNL     1       2.285   8.082  18.340  0.00  0.00    +0.000 A 
ATOM      9  C   UNL     1       1.995   9.375  17.873  0.00  0.00    +0.000 A 
ATOM     10  C   UNL     1       1.308  10.295  18.667  0.00  0.00    +0.000 A 
ATOM     11  C   UNL     1       0.902   9.936  19.949  0.00  0.00    +0.000 A 
ATOM     12 CL   UNL     1       0.007  11.051  20.907  0.00  0.00    +0.000 Cl
ATOM     13  C   UNL     1       1.200   8.671  20.451  0.00  0.00    +0.000 A 
ATOM     14  C   UNL     1       1.897   7.754  19.655  0.00  0.00    +0.000 A 
ATOM     15 CL   UNL     1       2.229   6.201  20.335  0.00  0.00    +0.000 Cl
ENDBRANCH   7   8
ENDBRANCH   6   7
ENDBRANCH   1   6
BRANCH   3  16
ATOM     16  C   UNL     1       3.899   3.046  17.993  0.00  0.00    +0.000 C 
BRANCH  16  17
ATOM     17  C   UNL     1       3.023   2.836  19.202  0.00  0.00    +0.000 A 
ATOM     18  C   UNL     1       3.598   2.588  20.460  0.00  0.00    +0.000 A 
ATOM     19  C   UNL     1       2.792   2.445  21.592  0.00  0.00    +0.000 A 
ATOM     20  C   UNL     1       1.412   2.542  21.467  0.00  0.00    +0.000 A 
ATOM     21  F   UNL     1       0.638   2.421  22.554  0.00  0.00    +0.000 F 
ATOM     22  C   UNL     1       0.822   2.770  20.229  0.00  0.00    +0.000 A 
ATOM     23  C   UNL     1       1.626   2.914  19.096  0.00  0.00    +0.000 A 
ENDBRANCH  16  17
ENDBRANCH   3  16
TORSDOF 5
ENDMDL
MODEL 4
REMARK VINA RESULT:      -7.2      4.402      6.738
REMARK  Name = 
REMARK  6 active torsions:
REMARK  status: ('A' for Active; 'I' for Inactive)
REMARK    1  A    between atoms: C_1  and  C_2
REMARK    2  A    between atoms: C_2  and  C_3
REMARK    3  A    between atoms: C_2  and  C_12
REMARK    4  A    between atoms: C_3  and  C_4
REMARK    5  A    between atoms: N_14  and  C_15
REMARK    6  A    between atoms: C_15  and  C_16
REMARK                            x       y       z     vdW  Elec       q    Type
REMARK                         _______ _______ _______ _____ _____    ______ ____
ROOT
ATOM      1  C   UNL     1       4.511   5.600  18.068  0.00  0.00    +0.000 C 
ATOM      2  O   UNL     1       5.203   5.449  19.072  0.00  0.00    +0.000 OA
ATOM      3  N   UNL     1       3.901   4.538  17.442  0.00  0.00    +0.000 N 
ATOM      4  H   UNL     1       3.328   4.685  16.623  0.00  0.00    +0.000 HD
ENDROOT
BRANCH   1   6
ATOM      5  C   UNL     1       4.938   7.008  16.066  0.00  0.00    +0.000 C 
ATOM      6  C   UNL     1       4.261   6.981  17.443  0.00  0.00    +0.000 C 
BRANCH   6   7
ATOM      7  C   UNL     1       2.748   7.254  17.362  0.00  0.00    +0.000 C 
BRANCH   7   8
ATOM      8  C   UNL     1       2.174   8.279  18.324  0.00  0.00    +0.000 A 
ATOM      9  C   UNL     1       1.943   9.585  17.857  0.00  0.00    +0.000 A 
ATOM     10  C   UNL     1       1.318  10.541  18.660  0.00  0.00    +0.000 A 
ATOM     11  C   UNL     1       0.916  10.205  19.951  0.00  0.00    +0.000 A 
ATOM     12 CL   UNL     1       0.097  11.367  20.920  0.00  0.00    +0.000 Cl
ATOM     13  C   UNL     1       1.158   8.928  20.451  0.00  0.00    +0.000 A 
ATOM     14  C   UNL     1       1.793   7.975  19.646  0.00  0.00    +0.000 A 
ATOM     15 CL   UNL     1       2.057   6.409  20.326  0.00  0.00    +0.000 Cl
ENDBRANCH   7   8
ENDBRANCH   6   7
ENDBRANCH   1   6
BRANCH   3  16
ATOM     16  C   UNL     1       3.980   3.199  17.988  0.00  0.00    +0.000 C 
BRANCH  16  17
ATOM     17  C   UNL     1       3.099   3.021  19.199  0.00  0.00    +0.000 A 
ATOM     18  C   UNL     1       1.705   3.165  19.090  0.00  0.00    +0.000 A 
ATOM     19  C   UNL     1       0.881   2.949  20.197  0.00  0.00    +0.000 A 
ATOM     20  C   UNL     1       1.449   2.597  21.415  0.00  0.00    +0.000 A 
ATOM     21  F   UNL     1       0.659   2.375  22.474  0.00  0.00    +0.000 F 
ATOM     22  C   UNL     1       2.826   2.465  21.549  0.00  0.00    +0.000 A 
ATOM     23  C   UNL     1       3.652   2.680  20.443  0.00  0.00    +0.000 A 
ENDBRANCH  16  17
ENDBRANCH   3  16
TORSDOF 5
ENDMDL
MODEL 5
REMARK VINA RESULT:      -7.1      1.369      1.431
REMARK  Name = 
REMARK  6 active torsions:
REMARK  status: ('A' for Active; 'I' for Inactive)
REMARK    1  A    between atoms: C_1  and  C_2
REMARK    2  A    between atoms: C_2  and  C_3
REMARK    3  A    between atoms: C_2  and  C_12
REMARK    4  A    between atoms: C_3  and  C_4
REMARK    5  A    between atoms: N_14  and  C_15
REMARK    6  A    between atoms: C_15  and  C_16
REMARK                            x       y       z     vdW  Elec       q    Type
REMARK                         _______ _______ _______ _____ _____    ______ ____
ROOT
ATOM      1  C   UNL     1       6.885   5.833  17.043  0.00  0.00    +0.000 C 
ATOM      2  O   UNL     1       6.426   6.943  16.788  0.00  0.00    +0.000 OA
ATOM      3  N   UNL     1       7.449   5.040  16.070  0.00  0.00    +0.000 N 
ATOM      4  H   UNL     1       7.830   4.134  16.303  0.00  0.00    +0.000 HD
ENDROOT
BRANCH   1   6
ATOM      5  C   UNL     1       8.130   5.762  19.192  0.00  0.00    +0.000 C 
ATOM      6  C   UNL     1       6.881   5.249  18.464  0.00  0.00    +0.000 C 
BRANCH   6   7
ATOM      7  C   UNL     1       5.576   5.637  19.185  0.00  0.00    +0.000 C 
BRANCH   7   8
ATOM      8  C   UNL     1       4.354   4.775  18.922  0.00  0.00    +0.000 A 
ATOM      9  C   UNL     1       4.400   3.416  19.275  0.00  0.00    +0.000 A 
ATOM     10  C   UNL     1       3.274   2.599  19.159  0.00  0.00    +0.000 A 
ATOM     11  C   UNL     1       2.079   3.131  18.680  0.00  0.00    +0.000 A 
ATOM     12 CL   UNL     1       0.677   2.138  18.588  0.00  0.00    +0.000 Cl
ATOM     13  C   UNL     1       2.011   4.468  18.294  0.00  0.00    +0.000 A 
ATOM     14  C   UNL     1       3.145   5.282  18.404  0.00  0.00    +0.000 A 
ATOM     15 CL   UNL     1       2.991   6.931  17.914  0.00  0.00    +0.000 Cl
ENDBRANCH   7   8
ENDBRANCH   6   7
ENDBRANCH   1   6
BRANCH   3  16
ATOM     16  C   UNL     1       7.600   5.516  14.710  0.00  0.00    +0.000 C 
BRANCH  16  17
ATOM     17  C   UNL     1       6.842   4.669  13.720  0.00  0.00    +0.000 A 
ATOM     18  C   UNL     1       7.453   4.258  12.522  0.00  0.00    +0.000 A 
ATOM     19  C   UNL     1       6.773   3.430  11.627  0.00  0.00    +0.000 A 
ATOM     20  C   UNL     1       5.479   3.017  11.923  0.00  0.00    +0.000 A 
ATOM     21  F   UNL     1       4.831   2.211  11.072  0.00  0.00    +0.000 F 
ATOM     22  C   UNL     1       4.850   3.425  13.093  0.00  0.00    +0.000 A 
ATOM     23  C   UNL     1       5.529   4.253  13.991  0.00  0.00    +0.000 A 
ENDBRANCH  16  17
ENDBRANCH   3  16
TORSDOF 5
ENDMDL
MODEL 6
REMARK VINA RESULT:      -7.0      4.522      6.494
REMARK  Name = 
REMARK  6 active torsions:
REMARK  status: ('A' for Active; 'I' for Inactive)
REMARK    1  A    between atoms: C_1  and  C_2
REMARK    2  A    between atoms: C_2  and  C_3
REMARK    3  A    between atoms: C_2  and  C_12
REMARK    4  A    between atoms: C_3  and  C_4
REMARK    5  A    between atoms: N_14  and  C_15
REMARK    6  A    between atoms: C_15  and  C_16
REMARK                            x       y       z     vdW  Elec       q    Type
REMARK                         _______ _______ _______ _____ _____    ______ ____
ROOT
ATOM      1  C   UNL     1       2.817   4.652  18.857  0.00  0.00    +0.000 C 
ATOM      2  O   UNL     1       2.709   4.353  17.671  0.00  0.00    +0.000 OA
ATOM      3  N   UNL     1       4.020   4.563  19.520  0.00  0.00    +0.000 N 
ATOM      4  H   UNL     1       4.089   4.823  20.493  0.00  0.00    +0.000 HD
ENDROOT
BRANCH   1   6
ATOM      5  C   UNL     1       1.059   3.973  20.476  0.00  0.00    +0.000 C 
ATOM      6  C   UNL     1       1.629   5.160  19.688  0.00  0.00    +0.000 C 
BRANCH   6   7
ATOM      7  C   UNL     1       2.084   6.313  20.602  0.00  0.00    +0.000 C 
BRANCH   7   8
ATOM      8  C   UNL     1       1.398   7.655  20.421  0.00  0.00    +0.000 A 
ATOM      9  C   UNL     1       0.521   8.104  21.424  0.00  0.00    +0.000 A 
ATOM     10  C   UNL     1      -0.054   9.375  21.367  0.00  0.00    +0.000 A 
ATOM     11  C   UNL     1       0.237  10.219  20.298  0.00  0.00    +0.000 A 
ATOM     12 CL   UNL     1      -0.429  11.806  20.256  0.00  0.00    +0.000 Cl
ATOM     13  C   UNL     1       1.079   9.791  19.275  0.00  0.00    +0.000 A 
ATOM     14  C   UNL     1       1.647   8.513  19.331  0.00  0.00    +0.000 A 
ATOM     15 CL   UNL     1       2.688   8.047  18.033  0.00  0.00    +0.000 Cl
ENDBRANCH   7   8
ENDBRANCH   6   7
ENDBRANCH   1   6
BRANCH   3  16
ATOM     16  C   UNL     1       5.234   4.189  18.824  0.00  0.00    +0.000 C 
BRANCH  16  17
ATOM     17  C   UNL     1       6.078   5.385  18.463  0.00  0.00    +0.000 A 
ATOM     18  C   UNL     1       7.283   5.634  19.142  0.00  0.00    +0.000 A 
ATOM     19  C   UNL     1       8.094   6.710  18.775  0.00  0.00    +0.000 A 
ATOM     20  C   UNL     1       7.699   7.543  17.736  0.00  0.00    +0.000 A 
ATOM     21  F   UNL     1       8.483   8.567  17.373  0.00  0.00    +0.000 F 
ATOM     22  C   UNL     1       6.503   7.325  17.062  0.00  0.00    +0.000 A 
ATOM     23  C   UNL     1       5.690   6.249  17.426  0.00  0.00    +0.000 A 
ENDBRANCH  16  17
ENDBRANCH   3  16
TORSDOF 5
ENDMDL
MODEL 7
REMARK VINA RESULT:      -6.9      3.432      6.079
REMARK  Name = 
REMARK  6 active torsions:
REMARK  status: ('A' for Active; 'I' for Inactive)
REMARK    1  A    between atoms: C_1  and  C_2
REMARK    2  A    between atoms: C_2  and  C_3
REMARK    3  A    between atoms: C_2  and  C_12
REMARK    4  A    between atoms: C_3  and  C_4
REMARK    5  A    between atoms: N_14  and  C_15
REMARK    6  A    between atoms: C_15  and  C_16
REMARK                            x       y       z     vdW  Elec       q    Type
REMARK                         _______ _______ _______ _____ _____    ______ ____
ROOT
ATOM      1  C   UNL     1       6.159   5.776  18.221  0.00  0.00    +0.000 C 
ATOM      2  O   UNL     1       6.834   5.118  19.009  0.00  0.00    +0.000 OA
ATOM      3  N   UNL     1       4.813   5.980  18.416  0.00  0.00    +0.000 N 
ATOM      4  H   UNL     1       4.278   6.532  17.760  0.00  0.00    +0.000 HD
ENDROOT
BRANCH   1   6
ATOM      5  C   UNL     1       7.603   7.633  17.423  0.00  0.00    +0.000 C 
ATOM      6  C   UNL     1       6.764   6.431  16.970  0.00  0.00    +0.000 C 
BRANCH   6   7
ATOM      7  C   UNL     1       7.591   5.396  16.185  0.00  0.00    +0.000 C 
BRANCH   7   8
ATOM      8  C   UNL     1       6.930   4.747  14.981  0.00  0.00    +0.000 A 
ATOM      9  C   UNL     1       5.755   4.002  15.179  0.00  0.00    +0.000 A 
ATOM     10  C   UNL     1       5.043   3.474  14.101  0.00  0.00    +0.000 A 
ATOM     11  C   UNL     1       5.499   3.681  12.801  0.00  0.00    +0.000 A 
ATOM     12 CL   UNL     1       4.592   3.077  11.470  0.00  0.00    +0.000 Cl
ATOM     13  C   UNL     1       6.676   4.391  12.576  0.00  0.00    +0.000 A 
ATOM     14  C   UNL     1       7.392   4.912  13.660  0.00  0.00    +0.000 A 
ATOM     15 CL   UNL     1       8.840   5.787  13.310  0.00  0.00    +0.000 Cl
ENDBRANCH   7   8
ENDBRANCH   6   7
ENDBRANCH   1   6
BRANCH   3  16
ATOM     16  C   UNL     1       4.145   5.496  19.606  0.00  0.00    +0.000 C 
BRANCH  16  17
ATOM     17  C   UNL     1       3.035   4.528  19.286  0.00  0.00    +0.000 A 
ATOM     18  C   UNL     1       3.017   3.850  18.055  0.00  0.00    +0.000 A 
ATOM     19  C   UNL     1       2.020   2.913  17.776  0.00  0.00    +0.000 A 
ATOM     20  C   UNL     1       1.035   2.658  18.722  0.00  0.00    +0.000 A 
ATOM     21  F   UNL     1       0.086   1.749  18.461  0.00  0.00    +0.000 F 
ATOM     22  C   UNL     1       1.023   3.330  19.939  0.00  0.00    +0.000 A 
ATOM     23  C   UNL     1       2.021   4.266  20.221  0.00  0.00    +0.000 A 
ENDBRANCH  16  17
ENDBRANCH   3  16
TORSDOF 5
ENDMDL
MODEL 8
REMARK VINA RESULT:      -6.9      6.102      8.311
REMARK  Name = 
REMARK  6 active torsions:
REMARK  status: ('A' for Active; 'I' for Inactive)
REMARK    1  A    between atoms: C_1  and  C_2
REMARK    2  A    between atoms: C_2  and  C_3
REMARK    3  A    between atoms: C_2  and  C_12
REMARK    4  A    between atoms: C_3  and  C_4
REMARK    5  A    between atoms: N_14  and  C_15
REMARK    6  A    between atoms: C_15  and  C_16
REMARK                            x       y       z     vdW  Elec       q    Type
REMARK                         _______ _______ _______ _____ _____    ______ ____
ROOT
ATOM      1  C   UNL     1       1.440   8.550  19.574  0.00  0.00    +0.000 C 
ATOM      2  O   UNL     1       1.976   8.611  18.470  0.00  0.00    +0.000 OA
ATOM      3  N   UNL     1       1.729   7.543  20.466  0.00  0.00    +0.000 N 
ATOM      4  H   UNL     1       1.284   7.517  21.372  0.00  0.00    +0.000 HD
ENDROOT
BRANCH   1   6
ATOM      5  C   UNL     1       0.978  10.262  21.314  0.00  0.00    +0.000 C 
ATOM      6  C   UNL     1       0.420   9.596  20.050  0.00  0.00    +0.000 C 
BRANCH   6   7
ATOM      7  C   UNL     1       0.141  10.607  18.923  0.00  0.00    +0.000 C 
BRANCH   7   8
ATOM      8  C   UNL     1      -1.310  10.850  18.550  0.00  0.00    +0.000 A 
ATOM      9  C   UNL     1      -1.898  10.037  17.566  0.00  0.00    +0.000 A 
ATOM     10  C   UNL     1      -3.256  10.139  17.258  0.00  0.00    +0.000 A 
ATOM     11  C   UNL     1      -4.051  11.064  17.931  0.00  0.00    +0.000 A 
ATOM     12 CL   UNL     1      -5.735  11.151  17.590  0.00  0.00    +0.000 Cl
ATOM     13  C   UNL     1      -3.491  11.903  18.891  0.00  0.00    +0.000 A 
ATOM     14  C   UNL     1      -2.127  11.804  19.191  0.00  0.00    +0.000 A 
ATOM     15 CL   UNL     1      -1.498  12.870  20.396  0.00  0.00    +0.000 Cl
ENDBRANCH   7   8
ENDBRANCH   6   7
ENDBRANCH   1   6
BRANCH   3  16
ATOM     16  C   UNL     1       2.744   6.552  20.174  0.00  0.00    +0.000 C 
BRANCH  16  17
ATOM     17  C   UNL     1       2.151   5.240  19.726  0.00  0.00    +0.000 A 
ATOM     18  C   UNL     1       1.535   4.385  20.655  0.00  0.00    +0.000 A 
ATOM     19  C   UNL     1       0.937   3.194  20.236  0.00  0.00    +0.000 A 
ATOM     20  C   UNL     1       0.962   2.853  18.889  0.00  0.00    +0.000 A 
ATOM     21  F   UNL     1       0.376   1.718  18.483  0.00  0.00    +0.000 F 
ATOM     22  C   UNL     1       1.580   3.676  17.955  0.00  0.00    +0.000 A 
ATOM     23  C   UNL     1       2.178   4.868  18.372  0.00  0.00    +0.000 A 
ENDBRANCH  16  17
ENDBRANCH   3  16
TORSDOF 5
ENDMDL
MODEL 9
REMARK VINA RESULT:      -6.9      6.120      8.319
REMARK  Name = 
REMARK  6 active torsions:
REMARK  status: ('A' for Active; 'I' for Inactive)
REMARK    1  A    between atoms: C_1  and  C_2
REMARK    2  A    between atoms: C_2  and  C_3
REMARK    3  A    between atoms: C_2  and  C_12
REMARK    4  A    between atoms: C_3  and  C_4
REMARK    5  A    between atoms: N_14  and  C_15
REMARK    6  A    between atoms: C_15  and  C_16
REMARK                            x       y       z     vdW  Elec       q    Type
REMARK                         _______ _______ _______ _____ _____    ______ ____
ROOT
ATOM      1  C   UNL     1       1.182   8.556  21.040  0.00  0.00    +0.000 C 
ATOM      2  O   UNL     1       1.793   8.229  22.054  0.00  0.00    +0.000 OA
ATOM      3  N   UNL     1       1.528   8.073  19.799  0.00  0.00    +0.000 N 
ATOM      4  H   UNL     1       1.006   8.348  18.978  0.00  0.00    +0.000 HD
ENDROOT
BRANCH   1   6
ATOM      5  C   UNL     1      -0.139  10.068  22.503  0.00  0.00    +0.000 C 
ATOM      6  C   UNL     1      -0.019   9.512  21.078  0.00  0.00    +0.000 C 
BRANCH   6   7
ATOM      7  C   UNL     1       0.161  10.621  20.024  0.00  0.00    +0.000 C 
BRANCH   7   8
ATOM      8  C   UNL     1      -0.981  10.845  19.049  0.00  0.00    +0.000 A 
ATOM      9  C   UNL     1      -1.001  10.106  17.854  0.00  0.00    +0.000 A 
ATOM     10  C   UNL     1      -2.078  10.187  16.970  0.00  0.00    +0.000 A 
ATOM     11  C   UNL     1      -3.157  11.016  17.267  0.00  0.00    +0.000 A 
ATOM     12 CL   UNL     1      -4.509  11.074  16.204  0.00  0.00    +0.000 Cl
ATOM     13  C   UNL     1      -3.153  11.783  18.430  0.00  0.00    +0.000 A 
ATOM     14  C   UNL     1      -2.066  11.706  19.310  0.00  0.00    +0.000 A 
ATOM     15 CL   UNL     1      -2.128  12.678  20.736  0.00  0.00    +0.000 Cl
ENDBRANCH   7   8
ENDBRANCH   6   7
ENDBRANCH   1   6
BRANCH   3  16
ATOM     16  C   UNL     1       2.581   7.091  19.642  0.00  0.00    +0.000 C 
BRANCH  16  17
ATOM     17  C   UNL     1       2.040   5.709  19.378  0.00  0.00    +0.000 A 
ATOM     18  C   UNL     1       2.103   5.156  18.087  0.00  0.00    +0.000 A 
ATOM     19  C   UNL     1       1.651   3.856  17.850  0.00  0.00    +0.000 A 
ATOM     20  C   UNL     1       1.129   3.110  18.899  0.00  0.00    +0.000 A 
ATOM     21  F   UNL     1       0.708   1.858  18.675  0.00  0.00    +0.000 F 
ATOM     22  C   UNL     1       1.040   3.643  20.179  0.00  0.00    +0.000 A 
ATOM     23  C   UNL     1       1.493   4.943  20.420  0.00  0.00    +0.000 A 
ENDBRANCH  16  17
ENDBRANCH   3  16
TORSDOF 5
ENDMDL
