MODEL 1
REMARK VINA RESULT:      -8.7      0.000      0.000
REMARK  Name = 
REMARK  7 active torsions:
REMARK  status: ('A' for Active; 'I' for Inactive)
REMARK    1  A    between atoms: C_2  and  C_21
REMARK    2  A    between atoms: N_3  and  C_4
REMARK    3  A    between atoms: C_4  and  C_5
REMARK    4  A    between atoms: C_5  and  C_6
REMARK    5  A    between atoms: C_6  and  C_7
REMARK    6  A    between atoms: C_7  and  N_8
REMARK    7  A    between atoms: N_11  and  C_12
REMARK                            x       y       z     vdW  Elec       q    Type
REMARK                         _______ _______ _______ _____ _____    ______ ____
ROOT
ATOM      1  C   UNL     1       2.361   4.230  21.727  0.00  0.00    +0.000 C 
ENDROOT
BRANCH   1   2
ATOM      2  C   UNL     1       2.607   5.233  20.604  0.00  0.00    +0.000 C 
BRANCH   2   5
ATOM      3  O   UNL     1       2.647   7.477  18.907  0.00  0.00    +0.000 OA
ATOM      4  C   UNL     1       1.973   7.505  19.927  0.00  0.00    +0.000 C 
ATOM      5  N   UNL     1       1.891   6.466  20.821  0.00  0.00    +0.000 N 
ATOM      6  H   UNL     1       1.164   6.468  21.525  0.00  0.00    +0.000 HD
BRANCH   4   7
ATOM      7  C   UNL     1       1.143   8.692  20.235  0.00  0.00    +0.000 A 
ATOM      8  C   UNL     1       0.958   9.645  19.232  0.00  0.00    +0.000 A 
ATOM      9  C   UNL     1       0.164  10.764  19.471  0.00  0.00    +0.000 A 
ATOM     10  C   UNL     1      -0.435  10.956  20.721  0.00  0.00    +0.000 A 
ATOM     11  C   UNL     1      -1.250  12.073  20.971  0.00  0.00    +0.000 A 
ATOM     12  C   UNL     1      -1.840  12.260  22.220  0.00  0.00    +0.000 A 
ATOM     13  C   UNL     1      -1.622  11.340  23.241  0.00  0.00    +0.000 A 
ATOM     14  C   UNL     1      -0.817  10.222  23.011  0.00  0.00    +0.000 A 
ATOM     15  C   UNL     1      -0.226  10.010  21.754  0.00  0.00    +0.000 A 
ATOM     16  C   UNL     1       0.570   8.882  21.500  0.00  0.00    +0.000 A 
ENDBRANCH   4   7
ENDBRANCH   2   5
ENDBRANCH   1   2
BRANCH   1  17
ATOM     17  C   UNL     1       2.585   2.791  21.254  0.00  0.00    +0.000 C 
BRANCH  17  18
ATOM     18  C   UNL     1       1.851   2.449  19.946  0.00  0.00    +0.000 C 
BRANCH  18  19
ATOM     19  N   UNL     1       2.685   1.678  19.009  0.00  0.00    +0.000 NA
ATOM     20  C   UNL     1       2.439   2.060  17.596  0.00  0.00    +0.000 C 
ATOM     21  C   UNL     1       2.887   3.492  17.222  0.00  0.00    +0.000 C 
ATOM     22  N   UNL     1       4.296   3.695  17.594  0.00  0.00    +0.000 N 
ATOM     23  C   UNL     1       4.659   3.298  18.964  0.00  0.00    +0.000 C 
ATOM     24  C   UNL     1       4.130   1.881  19.282  0.00  0.00    +0.000 C 
BRANCH  22  25
ATOM     25  C   UNL     1       5.222   4.132  16.668  0.00  0.00    +0.000 A 
ATOM     26  C   UNL     1       6.221   5.058  17.017  0.00  0.00    +0.000 A 
ATOM     27  C   UNL     1       7.157   5.525  16.089  0.00  0.00    +0.000 A 
ATOM     28  C   UNL     1       7.116   5.070  14.777  0.00  0.00    +0.000 A 
ATOM     29  C   UNL     1       6.142   4.152  14.407  0.00  0.00    +0.000 A 
ATOM     30 CL   UNL     1       6.071   3.587  12.782  0.00  0.00    +0.000 Cl
ATOM     31  C   UNL     1       5.210   3.688  15.338  0.00  0.00    +0.000 A 
ENDBRANCH  22  25
ENDBRANCH  18  19
ENDBRANCH  17  18
ENDBRANCH   1  17
TORSDOF 7
ENDMDL
MODEL 2
REMARK VINA RESULT:      -8.3      7.641     10.366
REMARK  Name = 
REMARK  7 active torsions:
REMARK  status: ('A' for Active; 'I' for Inactive)
REMARK    1  A    between atoms: C_2  and  C_21
REMARK    2  A    between atoms: N_3  and  C_4
REMARK    3  A    between atoms: C_4  and  C_5
REMARK    4  A    between atoms: C_5  and  C_6
REMARK    5  A    between atoms: C_6  and  C_7
REMARK    6  A    between atoms: C_7  and  N_8
REMARK    7  A    between atoms: N_11  and  C_12
REMARK                            x       y       z     vdW  Elec       q    Type
REMARK                         _______ _______ _______ _____ _____    ______ ____
ROOT
ATOM      1  C   UNL     1       7.654   8.843  17.882  0.00  0.00    +0.000 C 
ENDROOT
BRANCH   1   2
ATOM      2  C   UNL     1       7.693   7.471  17.217  0.00  0.00    +0.000 C 
BRANCH   2   5
ATOM      3  O   UNL     1       5.428   6.852  15.667  0.00  0.00    +0.000 OA
ATOM      4  C   UNL     1       5.527   6.396  16.797  0.00  0.00    +0.000 C 
ATOM      5  N   UNL     1       6.587   6.642  17.634  0.00  0.00    +0.000 N 
ATOM      6  H   UNL     1       6.713   6.077  18.463  0.00  0.00    +0.000 HD
BRANCH   4   7
ATOM      7  C   UNL     1       4.487   5.482  17.323  0.00  0.00    +0.000 A 
ATOM      8  C   UNL     1       4.255   4.286  16.641  0.00  0.00    +0.000 A 
ATOM      9  C   UNL     1       3.304   3.386  17.115  0.00  0.00    +0.000 A 
ATOM     10  C   UNL     1       2.557   3.679  18.262  0.00  0.00    +0.000 A 
ATOM     11  C   UNL     1       1.605   2.775  18.759  0.00  0.00    +0.000 A 
ATOM     12  C   UNL     1       0.862   3.075  19.899  0.00  0.00    +0.000 A 
ATOM     13  C   UNL     1       1.052   4.286  20.557  0.00  0.00    +0.000 A 
ATOM     14  C   UNL     1       1.996   5.198  20.080  0.00  0.00    +0.000 A 
ATOM     15  C   UNL     1       2.764   4.905  18.941  0.00  0.00    +0.000 A 
ATOM     16  C   UNL     1       3.730   5.802  18.458  0.00  0.00    +0.000 A 
ENDBRANCH   4   7
ENDBRANCH   2   5
ENDBRANCH   1   2
BRANCH   1  17
ATOM     17  C   UNL     1       9.005   9.203  18.506  0.00  0.00    +0.000 C 
BRANCH  17  18
ATOM     18  C   UNL     1       9.002  10.547  19.253  0.00  0.00    +0.000 C 
BRANCH  18  19
ATOM     19  N   UNL     1      10.310  11.222  19.218  0.00  0.00    +0.000 NA
ATOM     20  C   UNL     1      10.396  12.221  18.124  0.00  0.00    +0.000 C 
ATOM     21  C   UNL     1       9.476  13.452  18.292  0.00  0.00    +0.000 C 
ATOM     22  N   UNL     1       9.700  14.076  19.605  0.00  0.00    +0.000 N 
ATOM     23  C   UNL     1       9.686  13.161  20.759  0.00  0.00    +0.000 C 
ATOM     24  C   UNL     1      10.584  11.932  20.493  0.00  0.00    +0.000 C 
BRANCH  22  25
ATOM     25  C   UNL     1      10.007  15.418  19.714  0.00  0.00    +0.000 A 
ATOM     26  C   UNL     1       9.936  16.084  20.950  0.00  0.00    +0.000 A 
ATOM     27  C   UNL     1      10.227  17.447  21.076  0.00  0.00    +0.000 A 
ATOM     28  C   UNL     1      10.600  18.181  19.957  0.00  0.00    +0.000 A 
ATOM     29  C   UNL     1      10.681  17.545  18.725  0.00  0.00    +0.000 A 
ATOM     30 CL   UNL     1      11.132  18.443  17.327  0.00  0.00    +0.000 Cl
ATOM     31  C   UNL     1      10.391  16.184  18.604  0.00  0.00    +0.000 A 
ENDBRANCH  22  25
ENDBRANCH  18  19
ENDBRANCH  17  18
ENDBRANCH   1  17
TORSDOF 7
ENDMDL
MODEL 3
REMARK VINA RESULT:      -8.2      8.053     10.841
REMARK  Name = 
REMARK  7 active torsions:
REMARK  status: ('A' for Active; 'I' for Inactive)
REMARK    1  A    between atoms: C_2  and  C_21
REMARK    2  A    between atoms: N_3  and  C_4
REMARK    3  A    between atoms: C_4  and  C_5
REMARK    4  A    between atoms: C_5  and  C_6
REMARK    5  A    between atoms: C_6  and  C_7
REMARK    6  A    between atoms: C_7  and  N_8
REMARK    7  A    between atoms: N_11  and  C_12
REMARK                            x       y       z     vdW  Elec       q    Type
REMARK                         _______ _______ _______ _____ _____    ______ ____
ROOT
ATOM      1  C   UNL     1       8.430   8.526  18.481  0.00  0.00    +0.000 C 
ENDROOT
BRANCH   1   2
ATOM      2  C   UNL     1       7.718   7.951  17.260  0.00  0.00    +0.000 C 
BRANCH   2   5
ATOM      3  O   UNL     1       6.322   6.125  15.637  0.00  0.00    +0.000 OA
ATOM      4  C   UNL     1       5.905   6.376  16.759  0.00  0.00    +0.000 C 
ATOM      5  N   UNL     1       6.508   7.254  17.624  0.00  0.00    +0.000 N 
ATOM      6  H   UNL     1       6.240   7.260  18.600  0.00  0.00    +0.000 HD
BRANCH   4   7
ATOM      7  C   UNL     1       4.703   5.681  17.276  0.00  0.00    +0.000 A 
ATOM      8  C   UNL     1       3.644   6.459  17.749  0.00  0.00    +0.000 A 
ATOM      9  C   UNL     1       2.485   5.848  18.219  0.00  0.00    +0.000 A 
ATOM     10  C   UNL     1       2.378   4.452  18.245  0.00  0.00    +0.000 A 
ATOM     11  C   UNL     1       1.209   3.823  18.703  0.00  0.00    +0.000 A 
ATOM     12  C   UNL     1       1.111   2.433  18.729  0.00  0.00    +0.000 A 
ATOM     13  C   UNL     1       2.179   1.649  18.305  0.00  0.00    +0.000 A 
ATOM     14  C   UNL     1       3.348   2.256  17.843  0.00  0.00    +0.000 A 
ATOM     15  C   UNL     1       3.460   3.656  17.796  0.00  0.00    +0.000 A 
ATOM     16  C   UNL     1       4.621   4.283  17.317  0.00  0.00    +0.000 A 
ENDBRANCH   4   7
ENDBRANCH   2   5
ENDBRANCH   1   2
BRANCH   1  17
ATOM     17  C   UNL     1       8.810   9.994  18.270  0.00  0.00    +0.000 C 
BRANCH  17  18
ATOM     18  C   UNL     1       9.618  10.597  19.431  0.00  0.00    +0.000 C 
BRANCH  18  19
ATOM     19  N   UNL     1      10.823  11.311  18.976  0.00  0.00    +0.000 NA
ATOM     20  C   UNL     1      10.522  12.287  17.899  0.00  0.00    +0.000 C 
ATOM     21  C   UNL     1       9.657  13.492  18.336  0.00  0.00    +0.000 C 
ATOM     22  N   UNL     1      10.261  14.152  19.503  0.00  0.00    +0.000 N 
ATOM     23  C   UNL     1      10.646  13.264  20.612  0.00  0.00    +0.000 C 
ATOM     24  C   UNL     1      11.459  12.058  20.091  0.00  0.00    +0.000 C 
BRANCH  22  25
ATOM     25  C   UNL     1      10.536  15.505  19.494  0.00  0.00    +0.000 A 
ATOM     26  C   UNL     1      10.538  16.240  18.295  0.00  0.00    +0.000 A 
ATOM     27  C   UNL     1      10.832  17.608  18.264  0.00  0.00    +0.000 A 
ATOM     28  C   UNL     1      11.130  18.278  19.443  0.00  0.00    +0.000 A 
ATOM     29  C   UNL     1      11.131  17.576  20.641  0.00  0.00    +0.000 A 
ATOM     30 CL   UNL     1      11.510  18.390  22.110  0.00  0.00    +0.000 Cl
ATOM     31  C   UNL     1      10.837  16.211  20.668  0.00  0.00    +0.000 A 
ENDBRANCH  22  25
ENDBRANCH  18  19
ENDBRANCH  17  18
ENDBRANCH   1  17
TORSDOF 7
ENDMDL
MODEL 4
REMARK VINA RESULT:      -8.2      0.950      1.778
REMARK  Name = 
REMARK  7 active torsions:
REMARK  status: ('A' for Active; 'I' for Inactive)
REMARK    1  A    between atoms: C_2  and  C_21
REMARK    2  A    between atoms: N_3  and  C_4
REMARK    3  A    between atoms: C_4  and  C_5
REMARK    4  A    between atoms: C_5  and  C_6
REMARK    5  A    between atoms: C_6  and  C_7
REMARK    6  A    between atoms: C_7  and  N_8
REMARK    7  A    between atoms: N_11  and  C_12
REMARK                            x       y       z     vdW  Elec       q    Type
REMARK                         _______ _______ _______ _____ _____    ______ ____
ROOT
ATOM      1  C   UNL     1       1.132   5.006  20.352  0.00  0.00    +0.000 C 
ENDROOT
BRANCH   1   2
ATOM      2  C   UNL     1       2.048   6.191  20.643  0.00  0.00    +0.000 C 
BRANCH   2   5
ATOM      3  O   UNL     1       1.602   8.663  19.373  0.00  0.00    +0.000 OA
ATOM      4  C   UNL     1       1.153   8.472  20.494  0.00  0.00    +0.000 C 
ATOM      5  N   UNL     1       1.320   7.306  21.200  0.00  0.00    +0.000 N 
ATOM      6  H   UNL     1       0.755   7.133  22.022  0.00  0.00    +0.000 HD
BRANCH   4   7
ATOM      7  C   UNL     1       0.336   9.516  21.153  0.00  0.00    +0.000 A 
ATOM      8  C   UNL     1       0.025   9.354  22.505  0.00  0.00    +0.000 A 
ATOM      9  C   UNL     1      -0.720  10.325  23.170  0.00  0.00    +0.000 A 
ATOM     10  C   UNL     1      -1.181  11.458  22.489  0.00  0.00    +0.000 A 
ATOM     11  C   UNL     1      -1.920  12.451  23.152  0.00  0.00    +0.000 A 
ATOM     12  C   UNL     1      -2.380  13.575  22.466  0.00  0.00    +0.000 A 
ATOM     13  C   UNL     1      -2.116  13.721  21.108  0.00  0.00    +0.000 A 
ATOM     14  C   UNL     1      -1.380  12.745  20.433  0.00  0.00    +0.000 A 
ATOM     15  C   UNL     1      -0.896  11.614  21.111  0.00  0.00    +0.000 A 
ATOM     16  C   UNL     1      -0.139  10.632  20.451  0.00  0.00    +0.000 A 
ENDBRANCH   4   7
ENDBRANCH   2   5
ENDBRANCH   1   2
BRANCH   1  17
ATOM     17  C   UNL     1       1.742   3.691  20.846  0.00  0.00    +0.000 C 
BRANCH  17  18
ATOM     18  C   UNL     1       1.948   2.649  19.735  0.00  0.00    +0.000 C 
BRANCH  18  19
ATOM     19  N   UNL     1       3.354   2.234  19.597  0.00  0.00    +0.000 NA
ATOM     20  C   UNL     1       3.617   1.572  18.295  0.00  0.00    +0.000 C 
ATOM     21  C   UNL     1       3.499   2.494  17.060  0.00  0.00    +0.000 C 
ATOM     22  N   UNL     1       4.344   3.685  17.235  0.00  0.00    +0.000 N 
ATOM     23  C   UNL     1       4.198   4.390  18.519  0.00  0.00    +0.000 C 
ATOM     24  C   UNL     1       4.272   3.396  19.700  0.00  0.00    +0.000 C 
BRANCH  22  25
ATOM     25  C   UNL     1       5.283   4.040  16.286  0.00  0.00    +0.000 A 
ATOM     26  C   UNL     1       6.362   4.882  16.607  0.00  0.00    +0.000 A 
ATOM     27  C   UNL     1       7.313   5.265  15.655  0.00  0.00    +0.000 A 
ATOM     28  C   UNL     1       7.205   4.808  14.348  0.00  0.00    +0.000 A 
ATOM     29  C   UNL     1       6.151   3.971  14.006  0.00  0.00    +0.000 A 
ATOM     30 CL   UNL     1       5.998   3.405  12.387  0.00  0.00    +0.000 Cl
ATOM     31  C   UNL     1       5.205   3.591  14.960  0.00  0.00    +0.000 A 
ENDBRANCH  22  25
ENDBRANCH  18  19
ENDBRANCH  17  18
ENDBRANCH   1  17
TORSDOF 7
ENDMDL
MODEL 5
REMARK VINA RESULT:      -8.2      5.217      8.076
REMARK  Name = 
REMARK  7 active torsions:
REMARK  status: ('A' for Active; 'I' for Inactive)
REMARK    1  A    between atoms: C_2  and  C_21
REMARK    2  A    between atoms: N_3  and  C_4
REMARK    3  A    between atoms: C_4  and  C_5
REMARK    4  A    between atoms: C_5  and  C_6
REMARK    5  A    between atoms: C_6  and  C_7
REMARK    6  A    between atoms: C_7  and  N_8
REMARK    7  A    between atoms: N_11  and  C_12
REMARK                            x       y       z     vdW  Elec       q    Type
REMARK                         _______ _______ _______ _____ _____    ______ ____
ROOT
ATOM      1  C   UNL     1       6.513   5.397  19.386  0.00  0.00    +0.000 C 
ENDROOT
BRANCH   1   2
ATOM      2  C   UNL     1       7.870   5.650  18.736  0.00  0.00    +0.000 C 
BRANCH   2   5
ATOM      3  O   UNL     1       7.334   7.682  16.864  0.00  0.00    +0.000 OA
ATOM      4  C   UNL     1       7.954   7.950  17.884  0.00  0.00    +0.000 C 
ATOM      5  N   UNL     1       8.270   7.032  18.854  0.00  0.00    +0.000 N 
ATOM      6  H   UNL     1       8.594   7.350  19.758  0.00  0.00    +0.000 HD
BRANCH   4   7
ATOM      7  C   UNL     1       8.371   9.346  18.152  0.00  0.00    +0.000 A 
ATOM      8  C   UNL     1       7.864  10.355  17.332  0.00  0.00    +0.000 A 
ATOM      9  C   UNL     1       8.210  11.683  17.565  0.00  0.00    +0.000 A 
ATOM     10  C   UNL     1       9.084  12.018  18.606  0.00  0.00    +0.000 A 
ATOM     11  C   UNL     1       9.429  13.355  18.861  0.00  0.00    +0.000 A 
ATOM     12  C   UNL     1      10.303  13.680  19.897  0.00  0.00    +0.000 A 
ATOM     13  C   UNL     1      10.852  12.677  20.689  0.00  0.00    +0.000 A 
ATOM     14  C   UNL     1      10.518  11.342  20.453  0.00  0.00    +0.000 A 
ATOM     15  C   UNL     1       9.627  10.997  19.423  0.00  0.00    +0.000 A 
ATOM     16  C   UNL     1       9.267   9.661  19.183  0.00  0.00    +0.000 A 
ENDBRANCH   4   7
ENDBRANCH   2   5
ENDBRANCH   1   2
BRANCH   1  17
ATOM     17  C   UNL     1       5.606   4.556  18.483  0.00  0.00    +0.000 C 
BRANCH  17  18
ATOM     18  C   UNL     1       4.369   3.993  19.202  0.00  0.00    +0.000 C 
BRANCH  18  19
ATOM     19  N   UNL     1       3.107   4.378  18.550  0.00  0.00    +0.000 NA
ATOM     20  C   UNL     1       1.992   4.508  19.521  0.00  0.00    +0.000 C 
ATOM     21  C   UNL     1       2.132   5.680  20.520  0.00  0.00    +0.000 C 
ATOM     22  N   UNL     1       2.361   6.939  19.795  0.00  0.00    +0.000 N 
ATOM     23  C   UNL     1       3.415   6.903  18.768  0.00  0.00    +0.000 C 
ATOM     24  C   UNL     1       3.239   5.677  17.844  0.00  0.00    +0.000 C 
BRANCH  22  25
ATOM     25  C   UNL     1       1.555   8.040  20.007  0.00  0.00    +0.000 A 
ATOM     26  C   UNL     1       1.360   9.004  19.003  0.00  0.00    +0.000 A 
ATOM     27  C   UNL     1       0.561  10.135  19.204  0.00  0.00    +0.000 A 
ATOM     28  C   UNL     1      -0.069  10.327  20.428  0.00  0.00    +0.000 A 
ATOM     29  C   UNL     1       0.105   9.387  21.435  0.00  0.00    +0.000 A 
ATOM     30 CL   UNL     1      -0.660   9.616  22.960  0.00  0.00    +0.000 Cl
ATOM     31  C   UNL     1       0.903   8.259  21.228  0.00  0.00    +0.000 A 
ENDBRANCH  22  25
ENDBRANCH  18  19
ENDBRANCH  17  18
ENDBRANCH   1  17
TORSDOF 7
ENDMDL
MODEL 6
REMARK VINA RESULT:      -8.2      7.867     10.375
REMARK  Name = 
REMARK  7 active torsions:
REMARK  status: ('A' for Active; 'I' for Inactive)
REMARK    1  A    between atoms: C_2  and  C_21
REMARK    2  A    between atoms: N_3  and  C_4
REMARK    3  A    between atoms: C_4  and  C_5
REMARK    4  A    between atoms: C_5  and  C_6
REMARK    5  A    between atoms: C_6  and  C_7
REMARK    6  A    between atoms: C_7  and  N_8
REMARK    7  A    between atoms: N_11  and  C_12
REMARK                            x       y       z     vdW  Elec       q    Type
REMARK                         _______ _______ _______ _____ _____    ______ ____
ROOT
ATOM      1  C   UNL     1       7.812   8.678  17.570  0.00  0.00    +0.000 C 
ENDROOT
BRANCH   1   2
ATOM      2  C   UNL     1       7.786   7.153  17.552  0.00  0.00    +0.000 C 
BRANCH   2   5
ATOM      3  O   UNL     1       5.431   6.418  16.199  0.00  0.00    +0.000 OA
ATOM      4  C   UNL     1       5.491   6.296  17.415  0.00  0.00    +0.000 C 
ATOM      5  N   UNL     1       6.590   6.631  18.166  0.00  0.00    +0.000 N 
ATOM      6  H   UNL     1       6.655   6.314  19.125  0.00  0.00    +0.000 HD
BRANCH   4   7
ATOM      7  C   UNL     1       4.350   5.715  18.159  0.00  0.00    +0.000 A 
ATOM      8  C   UNL     1       3.094   6.308  18.009  0.00  0.00    +0.000 A 
ATOM      9  C   UNL     1       1.990   5.778  18.670  0.00  0.00    +0.000 A 
ATOM     10  C   UNL     1       2.128   4.664  19.506  0.00  0.00    +0.000 A 
ATOM     11  C   UNL     1       1.019   4.112  20.167  0.00  0.00    +0.000 A 
ATOM     12  C   UNL     1       1.165   3.004  21.001  0.00  0.00    +0.000 A 
ATOM     13  C   UNL     1       2.420   2.436  21.195  0.00  0.00    +0.000 A 
ATOM     14  C   UNL     1       3.534   2.970  20.545  0.00  0.00    +0.000 A 
ATOM     15  C   UNL     1       3.403   4.076  19.688  0.00  0.00    +0.000 A 
ATOM     16  C   UNL     1       4.510   4.614  19.011  0.00  0.00    +0.000 A 
ENDBRANCH   4   7
ENDBRANCH   2   5
ENDBRANCH   1   2
BRANCH   1  17
ATOM     17  C   UNL     1       8.782   9.211  18.627  0.00  0.00    +0.000 C 
BRANCH  17  18
ATOM     18  C   UNL     1       9.024  10.727  18.537  0.00  0.00    +0.000 C 
BRANCH  18  19
ATOM     19  N   UNL     1      10.408  11.105  18.865  0.00  0.00    +0.000 NA
ATOM     20  C   UNL     1      10.986  12.039  17.867  0.00  0.00    +0.000 C 
ATOM     21  C   UNL     1      10.337  13.442  17.837  0.00  0.00    +0.000 C 
ATOM     22  N   UNL     1      10.340  14.030  19.186  0.00  0.00    +0.000 N 
ATOM     23  C   UNL     1       9.834  13.163  20.262  0.00  0.00    +0.000 C 
ATOM     24  C   UNL     1      10.487  11.764  20.192  0.00  0.00    +0.000 C 
BRANCH  22  25
ATOM     25  C   UNL     1      10.886  15.276  19.418  0.00  0.00    +0.000 A 
ATOM     26  C   UNL     1      11.264  15.677  20.712  0.00  0.00    +0.000 A 
ATOM     27  C   UNL     1      11.803  16.942  20.970  0.00  0.00    +0.000 A 
ATOM     28  C   UNL     1      11.980  17.843  19.928  0.00  0.00    +0.000 A 
ATOM     29  C   UNL     1      11.617  17.471  18.640  0.00  0.00    +0.000 A 
ATOM     30 CL   UNL     1      11.820  18.582  17.340  0.00  0.00    +0.000 Cl
ATOM     31  C   UNL     1      11.081  16.207  18.387  0.00  0.00    +0.000 A 
ENDBRANCH  22  25
ENDBRANCH  18  19
ENDBRANCH  17  18
ENDBRANCH   1  17
TORSDOF 7
ENDMDL
MODEL 7
REMARK VINA RESULT:      -8.1      7.376      9.096
REMARK  Name = 
REMARK  7 active torsions:
REMARK  status: ('A' for Active; 'I' for Inactive)
REMARK    1  A    between atoms: C_2  and  C_21
REMARK    2  A    between atoms: N_3  and  C_4
REMARK    3  A    between atoms: C_4  and  C_5
REMARK    4  A    between atoms: C_5  and  C_6
REMARK    5  A    between atoms: C_6  and  C_7
REMARK    6  A    between atoms: C_7  and  N_8
REMARK    7  A    between atoms: N_11  and  C_12
REMARK                            x       y       z     vdW  Elec       q    Type
REMARK                         _______ _______ _______ _____ _____    ______ ____
ROOT
ATOM      1  C   UNL     1       8.809   9.480  17.644  0.00  0.00    +0.000 C 
ENDROOT
BRANCH   1   2
ATOM      2  C   UNL     1       9.032  10.215  18.962  0.00  0.00    +0.000 C 
BRANCH   2   5
ATOM      3  O   UNL     1      11.415  11.506  18.205  0.00  0.00    +0.000 OA
ATOM      4  C   UNL     1      10.403  12.168  18.386  0.00  0.00    +0.000 C 
ATOM      5  N   UNL     1       9.195  11.635  18.762  0.00  0.00    +0.000 N 
ATOM      6  H   UNL     1       8.356  12.197  18.692  0.00  0.00    +0.000 HD
BRANCH   4   7
ATOM      7  C   UNL     1      10.422  13.631  18.155  0.00  0.00    +0.000 A 
ATOM      8  C   UNL     1      11.318  14.137  17.212  0.00  0.00    +0.000 A 
ATOM      9  C   UNL     1      11.351  15.503  16.946  0.00  0.00    +0.000 A 
ATOM     10  C   UNL     1      10.506  16.383  17.633  0.00  0.00    +0.000 A 
ATOM     11  C   UNL     1      10.520  17.761  17.364  0.00  0.00    +0.000 A 
ATOM     12  C   UNL     1       9.678  18.631  18.055  0.00  0.00    +0.000 A 
ATOM     13  C   UNL     1       8.816  18.141  19.031  0.00  0.00    +0.000 A 
ATOM     14  C   UNL     1       8.786  16.774  19.311  0.00  0.00    +0.000 A 
ATOM     15  C   UNL     1       9.617  15.880  18.614  0.00  0.00    +0.000 A 
ATOM     16  C   UNL     1       9.587  14.500  18.870  0.00  0.00    +0.000 A 
ENDBRANCH   4   7
ENDBRANCH   2   5
ENDBRANCH   1   2
BRANCH   1  17
ATOM     17  C   UNL     1       7.573   8.578  17.707  0.00  0.00    +0.000 C 
BRANCH  17  18
ATOM     18  C   UNL     1       7.870   7.156  18.210  0.00  0.00    +0.000 C 
BRANCH  18  19
ATOM     19  N   UNL     1       7.427   6.114  17.269  0.00  0.00    +0.000 NA
ATOM     20  C   UNL     1       7.415   4.766  17.890  0.00  0.00    +0.000 C 
ATOM     21  C   UNL     1       6.359   4.573  19.003  0.00  0.00    +0.000 C 
ATOM     22  N   UNL     1       5.026   4.946  18.507  0.00  0.00    +0.000 N 
ATOM     23  C   UNL     1       4.938   6.247  17.825  0.00  0.00    +0.000 C 
ATOM     24  C   UNL     1       6.057   6.388  16.768  0.00  0.00    +0.000 C 
BRANCH  22  25
ATOM     25  C   UNL     1       3.962   4.070  18.593  0.00  0.00    +0.000 A 
ATOM     26  C   UNL     1       3.561   3.299  17.487  0.00  0.00    +0.000 A 
ATOM     27  C   UNL     1       2.476   2.418  17.550  0.00  0.00    +0.000 A 
ATOM     28  C   UNL     1       1.761   2.286  18.734  0.00  0.00    +0.000 A 
ATOM     29  C   UNL     1       2.138   3.034  19.842  0.00  0.00    +0.000 A 
ATOM     30 CL   UNL     1       1.255   2.890  21.313  0.00  0.00    +0.000 Cl
ATOM     31  C   UNL     1       3.223   3.911  19.774  0.00  0.00    +0.000 A 
ENDBRANCH  22  25
ENDBRANCH  18  19
ENDBRANCH  17  18
ENDBRANCH   1  17
TORSDOF 7
ENDMDL
MODEL 8
REMARK VINA RESULT:      -8.1      4.068      9.238
REMARK  Name = 
REMARK  7 active torsions:
REMARK  status: ('A' for Active; 'I' for Inactive)
REMARK    1  A    between atoms: C_2  and  C_21
REMARK    2  A    between atoms: N_3  and  C_4
REMARK    3  A    between atoms: C_4  and  C_5
REMARK    4  A    between atoms: C_5  and  C_6
REMARK    5  A    between atoms: C_6  and  C_7
REMARK    6  A    between atoms: C_7  and  N_8
REMARK    7  A    between atoms: N_11  and  C_12
REMARK                            x       y       z     vdW  Elec       q    Type
REMARK                         _______ _______ _______ _____ _____    ______ ____
ROOT
ATOM      1  C   UNL     1      -0.099   9.259  22.688  0.00  0.00    +0.000 C 
ENDROOT
BRANCH   1   2
ATOM      2  C   UNL     1       1.389   9.159  22.364  0.00  0.00    +0.000 C 
BRANCH   2   5
ATOM      3  O   UNL     1       1.546   9.055  19.557  0.00  0.00    +0.000 OA
ATOM      4  C   UNL     1       1.748   8.040  20.210  0.00  0.00    +0.000 C 
ATOM      5  N   UNL     1       1.689   7.985  21.580  0.00  0.00    +0.000 N 
ATOM      6  H   UNL     1       2.065   7.182  22.066  0.00  0.00    +0.000 HD
BRANCH   4   7
ATOM      7  C   UNL     1       2.123   6.781  19.527  0.00  0.00    +0.000 A 
ATOM      8  C   UNL     1       2.909   6.865  18.375  0.00  0.00    +0.000 A 
ATOM      9  C   UNL     1       3.306   5.705  17.716  0.00  0.00    +0.000 A 
ATOM     10  C   UNL     1       2.906   4.448  18.186  0.00  0.00    +0.000 A 
ATOM     11  C   UNL     1       3.312   3.269  17.539  0.00  0.00    +0.000 A 
ATOM     12  C   UNL     1       2.906   2.021  18.010  0.00  0.00    +0.000 A 
ATOM     13  C   UNL     1       2.084   1.930  19.128  0.00  0.00    +0.000 A 
ATOM     14  C   UNL     1       1.672   3.091  19.787  0.00  0.00    +0.000 A 
ATOM     15  C   UNL     1       2.083   4.356  19.335  0.00  0.00    +0.000 A 
ATOM     16  C   UNL     1       1.694   5.532  19.995  0.00  0.00    +0.000 A 
ENDBRANCH   4   7
ENDBRANCH   2   5
ENDBRANCH   1   2
BRANCH   1  17
ATOM     17  C   UNL     1      -0.625  10.681  22.476  0.00  0.00    +0.000 C 
BRANCH  17  18
ATOM     18  C   UNL     1      -0.816  11.055  20.996  0.00  0.00    +0.000 C 
BRANCH  18  19
ATOM     19  N   UNL     1      -1.058  12.494  20.799  0.00  0.00    +0.000 NA
ATOM     20  C   UNL     1      -0.051  13.332  21.496  0.00  0.00    +0.000 C 
ATOM     21  C   UNL     1       1.384  13.232  20.929  0.00  0.00    +0.000 C 
ATOM     22  N   UNL     1       1.377  13.496  19.482  0.00  0.00    +0.000 N 
ATOM     23  C   UNL     1       0.376  12.752  18.701  0.00  0.00    +0.000 C 
ATOM     24  C   UNL     1      -1.019  12.853  19.359  0.00  0.00    +0.000 C 
BRANCH  22  25
ATOM     25  C   UNL     1       2.193  14.463  18.930  0.00  0.00    +0.000 A 
ATOM     26  C   UNL     1       1.704  15.747  18.632  0.00  0.00    +0.000 A 
ATOM     27  C   UNL     1       2.512  16.734  18.056  0.00  0.00    +0.000 A 
ATOM     28  C   UNL     1       3.842  16.456  17.766  0.00  0.00    +0.000 A 
ATOM     29  C   UNL     1       4.350  15.197  18.054  0.00  0.00    +0.000 A 
ATOM     30 CL   UNL     1       5.994  14.834  17.690  0.00  0.00    +0.000 Cl
ATOM     31  C   UNL     1       3.540  14.215  18.629  0.00  0.00    +0.000 A 
ENDBRANCH  22  25
ENDBRANCH  18  19
ENDBRANCH  17  18
ENDBRANCH   1  17
TORSDOF 7
ENDMDL
MODEL 9
REMARK VINA RESULT:      -8.0      7.608     10.383
REMARK  Name = 
REMARK  7 active torsions:
REMARK  status: ('A' for Active; 'I' for Inactive)
REMARK    1  A    between atoms: C_2  and  C_21
REMARK    2  A    between atoms: N_3  and  C_4
REMARK    3  A    between atoms: C_4  and  C_5
REMARK    4  A    between atoms: C_5  and  C_6
REMARK    5  A    between atoms: C_6  and  C_7
REMARK    6  A    between atoms: C_7  and  N_8
REMARK    7  A    between atoms: N_11  and  C_12
REMARK                            x       y       z     vdW  Elec       q    Type
REMARK                         _______ _______ _______ _____ _____    ______ ____
ROOT
ATOM      1  C   UNL     1       8.097   7.897  18.333  0.00  0.00    +0.000 C 
ENDROOT
BRANCH   1   2
ATOM      2  C   UNL     1       7.620   7.110  17.116  0.00  0.00    +0.000 C 
BRANCH   2   5
ATOM      3  O   UNL     1       4.854   7.620  17.032  0.00  0.00    +0.000 OA
ATOM      4  C   UNL     1       5.253   6.518  17.381  0.00  0.00    +0.000 C 
ATOM      5  N   UNL     1       6.579   6.172  17.461  0.00  0.00    +0.000 N 
ATOM      6  H   UNL     1       6.838   5.198  17.550  0.00  0.00    +0.000 HD
BRANCH   4   7
ATOM      7  C   UNL     1       4.283   5.446  17.704  0.00  0.00    +0.000 A 
ATOM      8  C   UNL     1       4.254   4.315  16.885  0.00  0.00    +0.000 A 
ATOM      9  C   UNL     1       3.376   3.273  17.168  0.00  0.00    +0.000 A 
ATOM     10  C   UNL     1       2.501   3.355  18.257  0.00  0.00    +0.000 A 
ATOM     11  C   UNL     1       1.620   2.305  18.562  0.00  0.00    +0.000 A 
ATOM     12  C   UNL     1       0.750   2.396  19.647  0.00  0.00    +0.000 A 
ATOM     13  C   UNL     1       0.738   3.539  20.439  0.00  0.00    +0.000 A 
ATOM     14  C   UNL     1       1.608   4.593  20.154  0.00  0.00    +0.000 A 
ATOM     15  C   UNL     1       2.503   4.513  19.074  0.00  0.00    +0.000 A 
ATOM     16  C   UNL     1       3.397   5.555  18.784  0.00  0.00    +0.000 A 
ENDBRANCH   4   7
ENDBRANCH   2   5
ENDBRANCH   1   2
BRANCH   1  17
ATOM     17  C   UNL     1       8.311   9.376  17.997  0.00  0.00    +0.000 C 
BRANCH  17  18
ATOM     18  C   UNL     1       9.196  10.118  19.011  0.00  0.00    +0.000 C 
BRANCH  18  19
ATOM     19  N   UNL     1      10.057  11.133  18.381  0.00  0.00    +0.000 NA
ATOM     20  C   UNL     1       9.313  12.375  18.056  0.00  0.00    +0.000 C 
ATOM     21  C   UNL     1       8.824  13.180  19.282  0.00  0.00    +0.000 C 
ATOM     22  N   UNL     1       9.947  13.450  20.192  0.00  0.00    +0.000 N 
ATOM     23  C   UNL     1      10.784  12.290  20.538  0.00  0.00    +0.000 C 
ATOM     24  C   UNL     1      11.187  11.507  19.268  0.00  0.00    +0.000 C 
BRANCH  22  25
ATOM     25  C   UNL     1      10.242  14.737  20.598  0.00  0.00    +0.000 A 
ATOM     26  C   UNL     1      10.480  15.760  19.663  0.00  0.00    +0.000 A 
ATOM     27  C   UNL     1      10.797  17.065  20.056  0.00  0.00    +0.000 A 
ATOM     28  C   UNL     1      10.881  17.380  21.406  0.00  0.00    +0.000 A 
ATOM     29  C   UNL     1      10.647  16.388  22.350  0.00  0.00    +0.000 A 
ATOM     30 CL   UNL     1      10.758  16.760  24.027  0.00  0.00    +0.000 Cl
ATOM     31  C   UNL     1      10.330  15.087  21.953  0.00  0.00    +0.000 A 
ENDBRANCH  22  25
ENDBRANCH  18  19
ENDBRANCH  17  18
ENDBRANCH   1  17
TORSDOF 7
ENDMDL
