MODEL 1
REMARK VINA RESULT:      -6.1      0.000      0.000
REMARK  Name = 
REMARK  4 active torsions:
REMARK  status: ('A' for Active; 'I' for Inactive)
REMARK    1  A    between atoms: C_1  and  C_2
REMARK    2  A    between atoms: C_4  and  C_5
REMARK    3  A    between atoms: C_4  and  C_6
REMARK    4  A    between atoms: N_19  and  C_20
REMARK                            x       y       z     vdW  Elec       q    Type
REMARK                         _______ _______ _______ _____ _____    ______ ____
ROOT
ATOM      1  C   UNL     1       2.617  12.496  18.161  0.00  0.00    +0.000 C 
ATOM      2  C   UNL     1       1.398  11.748  18.693  0.00  0.00    +0.000 C 
ATOM      3  N   UNL     1       0.411  12.507  18.963  0.00  0.00    +0.000 NA
ATOM      4  C   UNL     1      -0.895  12.056  19.449  0.00  0.00    +0.000 C 
ATOM      5  C   UNL     1      -1.593  13.437  19.681  0.00  0.00    +0.000 C 
ATOM      6  C   UNL     1      -0.744  11.288  20.789  0.00  0.00    +0.000 A 
ATOM      7  C   UNL     1      -1.469  11.677  21.943  0.00  0.00    +0.000 A 
ATOM      8  C   UNL     1      -1.376  10.991  23.155  0.00  0.00    +0.000 A 
ATOM      9  C   UNL     1      -0.561   9.878  23.253  0.00  0.00    +0.000 A 
ATOM     10  C   UNL     1       0.160   9.464  22.137  0.00  0.00    +0.000 A 
ATOM     11  C   UNL     1       0.099  10.159  20.902  0.00  0.00    +0.000 A 
ATOM     12  C   UNL     1       0.829   9.526  19.740  0.00  0.00    +0.000 C 
ATOM     13  N   UNL     1       1.509  10.379  18.781  0.00  0.00    +0.000 N 
ATOM     14  C   UNL     1       2.107   9.655  17.661  0.00  0.00    +0.000 C 
ENDROOT
BRANCH   4  15
ATOM     15  C   UNL     1      -1.740  11.302  18.383  0.00  0.00    +0.000 A 
ATOM     16  C   UNL     1      -2.518  10.173  18.722  0.00  0.00    +0.000 A 
ATOM     17  C   UNL     1      -3.306   9.506  17.766  0.00  0.00    +0.000 A 
ATOM     18  C   UNL     1      -3.346   9.947  16.459  0.00  0.00    +0.000 A 
ATOM     19  C   UNL     1      -2.614  11.069  16.096  0.00  0.00    +0.000 A 
ATOM     20  C   UNL     1      -1.826  11.742  17.046  0.00  0.00    +0.000 A 
ENDBRANCH   4  15
TORSDOF 1
ENDMDL
MODEL 2
REMARK VINA RESULT:      -6.1      6.107      9.442
REMARK  Name = 
REMARK  4 active torsions:
REMARK  status: ('A' for Active; 'I' for Inactive)
REMARK    1  A    between atoms: C_1  and  C_2
REMARK    2  A    between atoms: C_4  and  C_5
REMARK    3  A    between atoms: C_4  and  C_6
REMARK    4  A    between atoms: N_19  and  C_20
REMARK                            x       y       z     vdW  Elec       q    Type
REMARK                         _______ _______ _______ _____ _____    ______ ____
ROOT
ATOM      1  C   UNL     1       8.403   5.444  20.036  0.00  0.00    +0.000 C 
ATOM      2  C   UNL     1       7.373   5.624  18.924  0.00  0.00    +0.000 C 
ATOM      3  N   UNL     1       6.422   4.779  18.969  0.00  0.00    +0.000 NA
ATOM      4  C   UNL     1       5.278   4.742  18.054  0.00  0.00    +0.000 C 
ATOM      5  C   UNL     1       4.562   3.447  18.562  0.00  0.00    +0.000 C 
ATOM      6  C   UNL     1       5.758   4.563  16.588  0.00  0.00    +0.000 A 
ATOM      7  C   UNL     1       5.271   3.504  15.782  0.00  0.00    +0.000 A 
ATOM      8  C   UNL     1       5.661   3.332  14.453  0.00  0.00    +0.000 A 
ATOM      9  C   UNL     1       6.545   4.225  13.876  0.00  0.00    +0.000 A 
ATOM     10  C   UNL     1       7.037   5.281  14.638  0.00  0.00    +0.000 A 
ATOM     11  C   UNL     1       6.672   5.463  15.996  0.00  0.00    +0.000 A 
ATOM     12  C   UNL     1       7.177   6.721  16.663  0.00  0.00    +0.000 C 
ATOM     13  N   UNL     1       7.585   6.671  18.057  0.00  0.00    +0.000 N 
ATOM     14  C   UNL     1       7.974   7.966  18.608  0.00  0.00    +0.000 C 
ENDROOT
BRANCH   4  15
ATOM     15  C   UNL     1       4.274   5.914  18.250  0.00  0.00    +0.000 A 
ATOM     16  C   UNL     1       4.121   6.925  17.275  0.00  0.00    +0.000 A 
ATOM     17  C   UNL     1       3.194   7.970  17.436  0.00  0.00    +0.000 A 
ATOM     18  C   UNL     1       2.394   8.032  18.560  0.00  0.00    +0.000 A 
ATOM     19  C   UNL     1       2.500   7.040  19.526  0.00  0.00    +0.000 A 
ATOM     20  C   UNL     1       3.423   5.991  19.371  0.00  0.00    +0.000 A 
ENDBRANCH   4  15
TORSDOF 1
ENDMDL
MODEL 3
REMARK VINA RESULT:      -6.1      0.137      1.079
REMARK  Name = 
REMARK  4 active torsions:
REMARK  status: ('A' for Active; 'I' for Inactive)
REMARK    1  A    between atoms: C_1  and  C_2
REMARK    2  A    between atoms: C_4  and  C_5
REMARK    3  A    between atoms: C_4  and  C_6
REMARK    4  A    between atoms: N_19  and  C_20
REMARK                            x       y       z     vdW  Elec       q    Type
REMARK                         _______ _______ _______ _____ _____    ______ ____
ROOT
ATOM      1  C   UNL     1       2.691  12.223  18.098  0.00  0.00    +0.000 C 
ATOM      2  C   UNL     1       1.427  11.569  18.650  0.00  0.00    +0.000 C 
ATOM      3  N   UNL     1       0.494  12.396  18.905  0.00  0.00    +0.000 NA
ATOM      4  C   UNL     1      -0.837  12.043  19.405  0.00  0.00    +0.000 C 
ATOM      5  C   UNL     1      -1.442  13.471  19.608  0.00  0.00    +0.000 C 
ATOM      6  C   UNL     1      -0.730  11.296  20.762  0.00  0.00    +0.000 A 
ATOM      7  C   UNL     1      -1.424  11.757  21.909  0.00  0.00    +0.000 A 
ATOM      8  C   UNL     1      -1.370  11.093  23.136  0.00  0.00    +0.000 A 
ATOM      9  C   UNL     1      -0.629   9.933  23.256  0.00  0.00    +0.000 A 
ATOM     10  C   UNL     1       0.058   9.448  22.147  0.00  0.00    +0.000 A 
ATOM     11  C   UNL     1       0.037  10.117  20.897  0.00  0.00    +0.000 A 
ATOM     12  C   UNL     1       0.719   9.413  19.748  0.00  0.00    +0.000 C 
ATOM     13  N   UNL     1       1.450  10.198  18.768  0.00  0.00    +0.000 N 
ATOM     14  C   UNL     1       1.994   9.411  17.663  0.00  0.00    +0.000 C 
ENDROOT
BRANCH   4  15
ATOM     15  C   UNL     1      -1.734  11.322  18.359  0.00  0.00    +0.000 A 
ATOM     16  C   UNL     1      -1.801  11.761  17.017  0.00  0.00    +0.000 A 
ATOM     17  C   UNL     1      -2.589  11.094  16.062  0.00  0.00    +0.000 A 
ATOM     18  C   UNL     1      -3.320   9.976  16.412  0.00  0.00    +0.000 A 
ATOM     19  C   UNL     1      -3.257   9.502  17.716  0.00  0.00    +0.000 A 
ATOM     20  C   UNL     1      -2.470  10.162  18.675  0.00  0.00    +0.000 A 
ENDBRANCH   4  15
TORSDOF 1
ENDMDL
MODEL 4
REMARK VINA RESULT:      -6.0      6.137      9.431
REMARK  Name = 
REMARK  4 active torsions:
REMARK  status: ('A' for Active; 'I' for Inactive)
REMARK    1  A    between atoms: C_1  and  C_2
REMARK    2  A    between atoms: C_4  and  C_5
REMARK    3  A    between atoms: C_4  and  C_6
REMARK    4  A    between atoms: N_19  and  C_20
REMARK                            x       y       z     vdW  Elec       q    Type
REMARK                         _______ _______ _______ _____ _____    ______ ____
ROOT
ATOM      1  C   UNL     1       8.367   5.371  19.997  0.00  0.00    +0.000 C 
ATOM      2  C   UNL     1       7.347   5.562  18.878  0.00  0.00    +0.000 C 
ATOM      3  N   UNL     1       6.401   4.711  18.899  0.00  0.00    +0.000 NA
ATOM      4  C   UNL     1       5.267   4.682  17.972  0.00  0.00    +0.000 C 
ATOM      5  C   UNL     1       4.554   3.375  18.451  0.00  0.00    +0.000 C 
ATOM      6  C   UNL     1       5.763   4.529  16.508  0.00  0.00    +0.000 A 
ATOM      7  C   UNL     1       5.292   3.480  15.680  0.00  0.00    +0.000 A 
ATOM      8  C   UNL     1       5.697   3.331  14.353  0.00  0.00    +0.000 A 
ATOM      9  C   UNL     1       6.582   4.239  13.800  0.00  0.00    +0.000 A 
ATOM     10  C   UNL     1       7.059   5.285  14.583  0.00  0.00    +0.000 A 
ATOM     11  C   UNL     1       6.679   5.443  15.940  0.00  0.00    +0.000 A 
ATOM     12  C   UNL     1       7.169   6.694  16.632  0.00  0.00    +0.000 C 
ATOM     13  N   UNL     1       7.562   6.624  18.029  0.00  0.00    +0.000 N 
ATOM     14  C   UNL     1       7.938   7.913  18.605  0.00  0.00    +0.000 C 
ENDROOT
BRANCH   4  15
ATOM     15  C   UNL     1       4.254   5.844  18.175  0.00  0.00    +0.000 A 
ATOM     16  C   UNL     1       3.449   5.927  19.333  0.00  0.00    +0.000 A 
ATOM     17  C   UNL     1       2.552   6.992  19.533  0.00  0.00    +0.000 A 
ATOM     18  C   UNL     1       2.440   8.001  18.596  0.00  0.00    +0.000 A 
ATOM     19  C   UNL     1       3.235   7.965  17.458  0.00  0.00    +0.000 A 
ATOM     20  C   UNL     1       4.135   6.904  17.253  0.00  0.00    +0.000 A 
ENDBRANCH   4  15
TORSDOF 1
ENDMDL
MODEL 5
REMARK VINA RESULT:      -5.8      8.196     10.926
REMARK  Name = 
REMARK  4 active torsions:
REMARK  status: ('A' for Active; 'I' for Inactive)
REMARK    1  A    between atoms: C_1  and  C_2
REMARK    2  A    between atoms: C_4  and  C_5
REMARK    3  A    between atoms: C_4  and  C_6
REMARK    4  A    between atoms: N_19  and  C_20
REMARK                            x       y       z     vdW  Elec       q    Type
REMARK                         _______ _______ _______ _____ _____    ______ ____
ROOT
ATOM      1  C   UNL     1       8.222  17.056  18.269  0.00  0.00    +0.000 C 
ATOM      2  C   UNL     1       8.482  15.668  18.847  0.00  0.00    +0.000 C 
ATOM      3  N   UNL     1       9.254  15.674  19.860  0.00  0.00    +0.000 NA
ATOM      4  C   UNL     1       9.641  14.493  20.636  0.00  0.00    +0.000 C 
ATOM      5  C   UNL     1      10.653  15.142  21.636  0.00  0.00    +0.000 C 
ATOM      6  C   UNL     1      10.357  13.455  19.730  0.00  0.00    +0.000 A 
ATOM      7  C   UNL     1      11.646  12.963  20.055  0.00  0.00    +0.000 A 
ATOM      8  C   UNL     1      12.304  12.009  19.277  0.00  0.00    +0.000 A 
ATOM      9  C   UNL     1      11.688  11.503  18.147  0.00  0.00    +0.000 A 
ATOM     10  C   UNL     1      10.420  11.959  17.802  0.00  0.00    +0.000 A 
ATOM     11  C   UNL     1       9.741  12.943  18.565  0.00  0.00    +0.000 A 
ATOM     12  C   UNL     1       8.321  13.250  18.152  0.00  0.00    +0.000 C 
ATOM     13  N   UNL     1       7.839  14.619  18.233  0.00  0.00    +0.000 N 
ATOM     14  C   UNL     1       6.428  14.772  17.884  0.00  0.00    +0.000 C 
ENDROOT
BRANCH   4  15
ATOM     15  C   UNL     1       8.489  13.893  21.491  0.00  0.00    +0.000 A 
ATOM     16  C   UNL     1       7.298  14.613  21.734  0.00  0.00    +0.000 A 
ATOM     17  C   UNL     1       6.243  14.063  22.483  0.00  0.00    +0.000 A 
ATOM     18  C   UNL     1       6.341  12.787  23.001  0.00  0.00    +0.000 A 
ATOM     19  C   UNL     1       7.487  12.040  22.760  0.00  0.00    +0.000 A 
ATOM     20  C   UNL     1       8.545  12.584  22.010  0.00  0.00    +0.000 A 
ENDBRANCH   4  15
TORSDOF 1
ENDMDL
MODEL 6
REMARK VINA RESULT:      -5.8      1.289      4.859
REMARK  Name = 
REMARK  4 active torsions:
REMARK  status: ('A' for Active; 'I' for Inactive)
REMARK    1  A    between atoms: C_1  and  C_2
REMARK    2  A    between atoms: C_4  and  C_5
REMARK    3  A    between atoms: C_4  and  C_6
REMARK    4  A    between atoms: N_19  and  C_20
REMARK                            x       y       z     vdW  Elec       q    Type
REMARK                         _______ _______ _______ _____ _____    ______ ____
ROOT
ATOM      1  C   UNL     1       1.486  14.236  18.714  0.00  0.00    +0.000 C 
ATOM      2  C   UNL     1       0.500  13.140  19.109  0.00  0.00    +0.000 C 
ATOM      3  N   UNL     1       0.860  11.974  18.743  0.00  0.00    +0.000 NA
ATOM      4  C   UNL     1       0.129  10.736  19.022  0.00  0.00    +0.000 C 
ATOM      5  C   UNL     1       1.011   9.713  18.234  0.00  0.00    +0.000 C 
ATOM      6  C   UNL     1      -1.302  10.800  18.423  0.00  0.00    +0.000 A 
ATOM      7  C   UNL     1      -1.770   9.800  17.534  0.00  0.00    +0.000 A 
ATOM      8  C   UNL     1      -3.060   9.815  17.000  0.00  0.00    +0.000 A 
ATOM      9  C   UNL     1      -3.935  10.827  17.347  0.00  0.00    +0.000 A 
ATOM     10  C   UNL     1      -3.510  11.821  18.224  0.00  0.00    +0.000 A 
ATOM     11  C   UNL     1      -2.198  11.839  18.761  0.00  0.00    +0.000 A 
ATOM     12  C   UNL     1      -1.913  12.901  19.798  0.00  0.00    +0.000 C 
ATOM     13  N   UNL     1      -0.608  13.540  19.819  0.00  0.00    +0.000 N 
ATOM     14  C   UNL     1      -0.429  14.487  20.917  0.00  0.00    +0.000 C 
ENDROOT
BRANCH   4  15
ATOM     15  C   UNL     1       0.167  10.302  20.515  0.00  0.00    +0.000 A 
ATOM     16  C   UNL     1      -0.815  10.733  21.434  0.00  0.00    +0.000 A 
ATOM     17  C   UNL     1      -0.800  10.320  22.779  0.00  0.00    +0.000 A 
ATOM     18  C   UNL     1       0.183   9.465  23.238  0.00  0.00    +0.000 A 
ATOM     19  C   UNL     1       1.149   9.001  22.356  0.00  0.00    +0.000 A 
ATOM     20  C   UNL     1       1.138   9.408  21.011  0.00  0.00    +0.000 A 
ENDBRANCH   4  15
TORSDOF 1
ENDMDL
MODEL 7
REMARK VINA RESULT:      -5.7      9.549     12.057
REMARK  Name = 
REMARK  4 active torsions:
REMARK  status: ('A' for Active; 'I' for Inactive)
REMARK    1  A    between atoms: C_1  and  C_2
REMARK    2  A    between atoms: C_4  and  C_5
REMARK    3  A    between atoms: C_4  and  C_6
REMARK    4  A    between atoms: N_19  and  C_20
REMARK                            x       y       z     vdW  Elec       q    Type
REMARK                         _______ _______ _______ _____ _____    ______ ____
ROOT
ATOM      1  C   UNL     1      12.211  16.031  17.081  0.00  0.00    +0.000 C 
ATOM      2  C   UNL     1      11.231  15.219  17.923  0.00  0.00    +0.000 C 
ATOM      3  N   UNL     1      11.789  14.313  18.622  0.00  0.00    +0.000 NA
ATOM      4  C   UNL     1      11.098  13.414  19.550  0.00  0.00    +0.000 C 
ATOM      5  C   UNL     1      12.290  12.502  19.988  0.00  0.00    +0.000 C 
ATOM      6  C   UNL     1      10.019  12.583  18.804  0.00  0.00    +0.000 A 
ATOM      7  C   UNL     1      10.013  11.167  18.864  0.00  0.00    +0.000 A 
ATOM      8  C   UNL     1       9.042  10.393  18.227  0.00  0.00    +0.000 A 
ATOM      9  C   UNL     1       8.030  11.011  17.516  0.00  0.00    +0.000 A 
ATOM     10  C   UNL     1       8.002  12.400  17.442  0.00  0.00    +0.000 A 
ATOM     11  C   UNL     1       8.991  13.206  18.062  0.00  0.00    +0.000 A 
ATOM     12  C   UNL     1       8.766  14.699  18.011  0.00  0.00    +0.000 C 
ATOM     13  N   UNL     1       9.907  15.583  17.842  0.00  0.00    +0.000 N 
ATOM     14  C   UNL     1       9.569  17.004  17.892  0.00  0.00    +0.000 C 
ENDROOT
BRANCH   4  15
ATOM     15  C   UNL     1      10.574  14.114  20.836  0.00  0.00    +0.000 A 
ATOM     16  C   UNL     1      11.005  15.410  21.199  0.00  0.00    +0.000 A 
ATOM     17  C   UNL     1      10.512  16.057  22.346  0.00  0.00    +0.000 A 
ATOM     18  C   UNL     1       9.578  15.439  23.153  0.00  0.00    +0.000 A 
ATOM     19  C   UNL     1       9.113  14.176  22.814  0.00  0.00    +0.000 A 
ATOM     20  C   UNL     1       9.600  13.524  21.667  0.00  0.00    +0.000 A 
ENDBRANCH   4  15
TORSDOF 1
ENDMDL
MODEL 8
REMARK VINA RESULT:      -5.7      2.129      4.762
REMARK  Name = 
REMARK  4 active torsions:
REMARK  status: ('A' for Active; 'I' for Inactive)
REMARK    1  A    between atoms: C_1  and  C_2
REMARK    2  A    between atoms: C_4  and  C_5
REMARK    3  A    between atoms: C_4  and  C_6
REMARK    4  A    between atoms: N_19  and  C_20
REMARK                            x       y       z     vdW  Elec       q    Type
REMARK                         _______ _______ _______ _____ _____    ______ ____
ROOT
ATOM      1  C   UNL     1      -4.357  13.592  20.628  0.00  0.00    +0.000 C 
ATOM      2  C   UNL     1      -2.913  13.137  20.820  0.00  0.00    +0.000 C 
ATOM      3  N   UNL     1      -2.428  12.536  19.808  0.00  0.00    +0.000 NA
ATOM      4  C   UNL     1      -1.058  12.030  19.700  0.00  0.00    +0.000 C 
ATOM      5  C   UNL     1      -1.134  11.326  18.306  0.00  0.00    +0.000 C 
ATOM      6  C   UNL     1      -0.769  10.994  20.821  0.00  0.00    +0.000 A 
ATOM      7  C   UNL     1      -0.301   9.692  20.512  0.00  0.00    +0.000 A 
ATOM      8  C   UNL     1      -0.006   8.748  21.497  0.00  0.00    +0.000 A 
ATOM      9  C   UNL     1      -0.156   9.078  22.831  0.00  0.00    +0.000 A 
ATOM     10  C   UNL     1      -0.606  10.351  23.170  0.00  0.00    +0.000 A 
ATOM     11  C   UNL     1      -0.933  11.319  22.186  0.00  0.00    +0.000 A 
ATOM     12  C   UNL     1      -1.284  12.698  22.694  0.00  0.00    +0.000 C 
ATOM     13  N   UNL     1      -2.326  13.457  22.023  0.00  0.00    +0.000 N 
ATOM     14  C   UNL     1      -2.514  14.805  22.556  0.00  0.00    +0.000 C 
ENDROOT
BRANCH   4  15
ATOM     15  C   UNL     1       0.020  13.144  19.580  0.00  0.00    +0.000 A 
ATOM     16  C   UNL     1       1.357  12.924  19.979  0.00  0.00    +0.000 A 
ATOM     17  C   UNL     1       2.341  13.921  19.845  0.00  0.00    +0.000 A 
ATOM     18  C   UNL     1       2.023  15.152  19.306  0.00  0.00    +0.000 A 
ATOM     19  C   UNL     1       0.724  15.394  18.880  0.00  0.00    +0.000 A 
ATOM     20  C   UNL     1      -0.263  14.402  19.008  0.00  0.00    +0.000 A 
ENDBRANCH   4  15
TORSDOF 1
ENDMDL
MODEL 9
REMARK VINA RESULT:      -5.7      1.860      5.404
REMARK  Name = 
REMARK  4 active torsions:
REMARK  status: ('A' for Active; 'I' for Inactive)
REMARK    1  A    between atoms: C_1  and  C_2
REMARK    2  A    between atoms: C_4  and  C_5
REMARK    3  A    between atoms: C_4  and  C_6
REMARK    4  A    between atoms: N_19  and  C_20
REMARK                            x       y       z     vdW  Elec       q    Type
REMARK                         _______ _______ _______ _____ _____    ______ ____
ROOT
ATOM      1  C   UNL     1      -2.237  15.514  21.095  0.00  0.00    +0.000 C 
ATOM      2  C   UNL     1      -2.322  14.052  20.668  0.00  0.00    +0.000 C 
ATOM      3  N   UNL     1      -1.281  13.635  20.065  0.00  0.00    +0.000 NA
ATOM      4  C   UNL     1      -1.073  12.268  19.581  0.00  0.00    +0.000 C 
ATOM      5  C   UNL     1       0.305  12.437  18.863  0.00  0.00    +0.000 C 
ATOM      6  C   UNL     1      -2.177  11.875  18.562  0.00  0.00    +0.000 A 
ATOM      7  C   UNL     1      -1.844  11.409  17.265  0.00  0.00    +0.000 A 
ATOM      8  C   UNL     1      -2.812  11.023  16.336  0.00  0.00    +0.000 A 
ATOM      9  C   UNL     1      -4.150  11.077  16.676  0.00  0.00    +0.000 A 
ATOM     10  C   UNL     1      -4.511  11.522  17.944  0.00  0.00    +0.000 A 
ATOM     11  C   UNL     1      -3.548  11.941  18.897  0.00  0.00    +0.000 A 
ATOM     12  C   UNL     1      -4.070  12.277  20.274  0.00  0.00    +0.000 C 
ATOM     13  N   UNL     1      -3.474  13.380  21.009  0.00  0.00    +0.000 N 
ATOM     14  C   UNL     1      -4.008  13.552  22.358  0.00  0.00    +0.000 C 
ENDROOT
BRANCH   4  15
ATOM     15  C   UNL     1      -0.862  11.222  20.713  0.00  0.00    +0.000 A 
ATOM     16  C   UNL     1      -0.527   9.880  20.426  0.00  0.00    +0.000 A 
ATOM     17  C   UNL     1      -0.306   8.939  21.448  0.00  0.00    +0.000 A 
ATOM     18  C   UNL     1      -0.406   9.309  22.774  0.00  0.00    +0.000 A 
ATOM     19  C   UNL     1      -0.708  10.625  23.094  0.00  0.00    +0.000 A 
ATOM     20  C   UNL     1      -0.927  11.572  22.078  0.00  0.00    +0.000 A 
ENDBRANCH   4  15
TORSDOF 1
ENDMDL
