MODEL 1
REMARK VINA RESULT:      -5.6      0.000      0.000
REMARK  Name = 
REMARK  7 active torsions:
REMARK  status: ('A' for Active; 'I' for Inactive)
REMARK    1  A    between atoms: N_1  and  C_2
REMARK    2  A    between atoms: C_2  and  C_3
REMARK    3  A    between atoms: C_3  and  C_4
REMARK    4  A    between atoms: C_4  and  C_5
REMARK    5  A    between atoms: C_5  and  C_6
REMARK    6  A    between atoms: C_6  and  N_7
REMARK    7  A    between atoms: C_6  and  C_8
REMARK                            x       y       z     vdW  Elec       q    Type
REMARK                         _______ _______ _______ _____ _____    ______ ____
ROOT
ATOM      1  C   UNL     1       4.209   4.608  17.727  0.00  0.00    +0.000 C 
ENDROOT
BRANCH   1   2
ATOM      2  C   UNL     1       4.225   3.792  19.049  0.00  0.00    +0.000 C 
ATOM      3  O   UNL     1       5.286   3.446  19.581  0.00  0.00    +0.000 OA
ATOM      4  N   UNL     1       3.009   3.507  19.634  0.00  0.00    +0.000 N 
ATOM      5  C   UNL     1       1.684   3.739  19.086  0.00  0.00    +0.000 C 
ATOM      6  C   UNL     1       0.813   3.846  20.324  0.00  0.00    +0.000 C 
ATOM      7  C   UNL     1       1.443   2.844  21.286  0.00  0.00    +0.000 C 
ATOM      8  C   UNL     1       2.925   2.837  20.918  0.00  0.00    +0.000 C 
ENDBRANCH   1   2
BRANCH   1   9
ATOM      9  N   UNL     1       4.525   3.719  16.589  0.00  0.00    +0.000 NA
ATOM     10  H   UNL     1       5.431   3.998  16.209  0.00  0.00    +0.000 HD
ATOM     11  H   UNL     1       3.847   3.866  15.845  0.00  0.00    +0.000 HD
ENDBRANCH   1   9
BRANCH   1  12
ATOM     12  C   UNL     1       5.187   5.798  17.797  0.00  0.00    +0.000 C 
BRANCH  12  13
ATOM     13  C   UNL     1       6.463   5.583  16.976  0.00  0.00    +0.000 C 
BRANCH  13  14
ATOM     14  C   UNL     1       7.633   5.119  17.848  0.00  0.00    +0.000 C 
BRANCH  14  15
ATOM     15  C   UNL     1       7.847   6.079  19.019  0.00  0.00    +0.000 C 
BRANCH  15  16
ATOM     16  N   UNL     1       7.843   5.355  20.283  0.00  0.00    +0.000 NA
ATOM     17  H   UNL     1       7.493   5.965  21.021  0.00  0.00    +0.000 HD
ATOM     18  H   UNL     1       8.798   5.111  20.544  0.00  0.00    +0.000 HD
ENDBRANCH  15  16
ENDBRANCH  14  15
ENDBRANCH  13  14
ENDBRANCH  12  13
ENDBRANCH   1  12
TORSDOF 7
ENDMDL
MODEL 2
REMARK VINA RESULT:      -5.6      1.567      1.775
REMARK  Name = 
REMARK  7 active torsions:
REMARK  status: ('A' for Active; 'I' for Inactive)
REMARK    1  A    between atoms: N_1  and  C_2
REMARK    2  A    between atoms: C_2  and  C_3
REMARK    3  A    between atoms: C_3  and  C_4
REMARK    4  A    between atoms: C_4  and  C_5
REMARK    5  A    between atoms: C_5  and  C_6
REMARK    6  A    between atoms: C_6  and  N_7
REMARK    7  A    between atoms: C_6  and  C_8
REMARK                            x       y       z     vdW  Elec       q    Type
REMARK                         _______ _______ _______ _____ _____    ______ ____
ROOT
ATOM      1  C   UNL     1       5.235   4.511  18.656  0.00  0.00    +0.000 C 
ENDROOT
BRANCH   1   2
ATOM      2  C   UNL     1       4.570   3.413  19.530  0.00  0.00    +0.000 C 
ATOM      3  O   UNL     1       5.214   2.445  19.951  0.00  0.00    +0.000 OA
ATOM      4  N   UNL     1       3.241   3.583  19.861  0.00  0.00    +0.000 N 
ATOM      5  C   UNL     1       2.325   4.592  19.361  0.00  0.00    +0.000 C 
ATOM      6  C   UNL     1       1.294   4.702  20.469  0.00  0.00    +0.000 C 
ATOM      7  C   UNL     1       1.178   3.271  20.985  0.00  0.00    +0.000 C 
ATOM      8  C   UNL     1       2.560   2.665  20.754  0.00  0.00    +0.000 C 
ENDBRANCH   1   2
BRANCH   1   9
ATOM      9  N   UNL     1       5.860   3.890  17.468  0.00  0.00    +0.000 NA
ATOM     10  H   UNL     1       6.611   4.504  17.146  0.00  0.00    +0.000 HD
ATOM     11  H   UNL     1       5.182   3.849  16.710  0.00  0.00    +0.000 HD
ENDBRANCH   1   9
BRANCH   1  12
ATOM     12  C   UNL     1       6.264   5.322  19.470  0.00  0.00    +0.000 C 
BRANCH  12  13
ATOM     13  C   UNL     1       7.619   5.463  18.767  0.00  0.00    +0.000 C 
BRANCH  13  14
ATOM     14  C   UNL     1       8.039   6.928  18.625  0.00  0.00    +0.000 C 
BRANCH  14  15
ATOM     15  C   UNL     1       7.559   7.501  17.292  0.00  0.00    +0.000 C 
BRANCH  15  16
ATOM     16  N   UNL     1       7.429   6.447  16.296  0.00  0.00    +0.000 NA
ATOM     17  H   UNL     1       8.310   5.940  16.223  0.00  0.00    +0.000 HD
ATOM     18  H   UNL     1       7.258   6.856  15.378  0.00  0.00    +0.000 HD
ENDBRANCH  15  16
ENDBRANCH  14  15
ENDBRANCH  13  14
ENDBRANCH  12  13
ENDBRANCH   1  12
TORSDOF 7
ENDMDL
MODEL 3
REMARK VINA RESULT:      -5.4      2.407      3.796
REMARK  Name = 
REMARK  7 active torsions:
REMARK  status: ('A' for Active; 'I' for Inactive)
REMARK    1  A    between atoms: N_1  and  C_2
REMARK    2  A    between atoms: C_2  and  C_3
REMARK    3  A    between atoms: C_3  and  C_4
REMARK    4  A    between atoms: C_4  and  C_5
REMARK    5  A    between atoms: C_5  and  C_6
REMARK    6  A    between atoms: C_6  and  N_7
REMARK    7  A    between atoms: C_6  and  C_8
REMARK                            x       y       z     vdW  Elec       q    Type
REMARK                         _______ _______ _______ _____ _____    ______ ____
ROOT
ATOM      1  C   UNL     1       6.695   4.506  17.348  0.00  0.00    +0.000 C 
ENDROOT
BRANCH   1   2
ATOM      2  C   UNL     1       5.898   4.813  18.645  0.00  0.00    +0.000 C 
ATOM      3  O   UNL     1       6.450   5.282  19.647  0.00  0.00    +0.000 OA
ATOM      4  N   UNL     1       4.537   4.586  18.622  0.00  0.00    +0.000 N 
ATOM      5  C   UNL     1       3.763   3.940  17.577  0.00  0.00    +0.000 C 
ATOM      6  C   UNL     1       2.373   4.520  17.769  0.00  0.00    +0.000 C 
ATOM      7  C   UNL     1       2.262   4.675  19.282  0.00  0.00    +0.000 C 
ATOM      8  C   UNL     1       3.693   4.934  19.749  0.00  0.00    +0.000 C 
ENDBRANCH   1   2
BRANCH   1   9
ATOM      9  N   UNL     1       8.084   4.132  17.694  0.00  0.00    +0.000 NA
ATOM     10  H   UNL     1       8.102   3.849  18.675  0.00  0.00    +0.000 HD
ATOM     11  H   UNL     1       8.683   4.952  17.623  0.00  0.00    +0.000 HD
ENDBRANCH   1   9
BRANCH   1  12
ATOM     12  C   UNL     1       6.664   5.706  16.379  0.00  0.00    +0.000 C 
BRANCH  12  13
ATOM     13  C   UNL     1       5.946   5.402  15.060  0.00  0.00    +0.000 C 
BRANCH  13  14
ATOM     14  C   UNL     1       6.304   4.015  14.521  0.00  0.00    +0.000 C 
BRANCH  14  15
ATOM     15  C   UNL     1       5.631   3.769  13.170  0.00  0.00    +0.000 C 
BRANCH  15  16
ATOM     16  N   UNL     1       6.380   2.791  12.393  0.00  0.00    +0.000 NA
ATOM     17  H   UNL     1       7.370   3.030  12.412  0.00  0.00    +0.000 HD
ATOM     18  H   UNL     1       6.094   2.835  11.415  0.00  0.00    +0.000 HD
ENDBRANCH  15  16
ENDBRANCH  14  15
ENDBRANCH  13  14
ENDBRANCH  12  13
ENDBRANCH   1  12
TORSDOF 7
ENDMDL
MODEL 4
REMARK VINA RESULT:      -5.4      3.381      5.030
REMARK  Name = 
REMARK  7 active torsions:
REMARK  status: ('A' for Active; 'I' for Inactive)
REMARK    1  A    between atoms: N_1  and  C_2
REMARK    2  A    between atoms: C_2  and  C_3
REMARK    3  A    between atoms: C_3  and  C_4
REMARK    4  A    between atoms: C_4  and  C_5
REMARK    5  A    between atoms: C_5  and  C_6
REMARK    6  A    between atoms: C_6  and  N_7
REMARK    7  A    between atoms: C_6  and  C_8
REMARK                            x       y       z     vdW  Elec       q    Type
REMARK                         _______ _______ _______ _____ _____    ______ ____
ROOT
ATOM      1  C   UNL     1       6.568   4.426  16.138  0.00  0.00    +0.000 C 
ENDROOT
BRANCH   1   2
ATOM      2  C   UNL     1       5.771   5.628  16.714  0.00  0.00    +0.000 C 
ATOM      3  O   UNL     1       6.192   6.787  16.621  0.00  0.00    +0.000 OA
ATOM      4  N   UNL     1       4.547   5.359  17.292  0.00  0.00    +0.000 N 
ATOM      5  C   UNL     1       3.968   4.059  17.579  0.00  0.00    +0.000 C 
ATOM      6  C   UNL     1       2.477   4.341  17.590  0.00  0.00    +0.000 C 
ATOM      7  C   UNL     1       2.387   5.740  18.191  0.00  0.00    +0.000 C 
ATOM      8  C   UNL     1       3.685   6.424  17.769  0.00  0.00    +0.000 C 
ENDBRANCH   1   2
BRANCH   1   9
ATOM      9  N   UNL     1       7.829   4.258  16.892  0.00  0.00    +0.000 NA
ATOM     10  H   UNL     1       8.565   4.766  16.400  0.00  0.00    +0.000 HD
ATOM     11  H   UNL     1       8.103   3.278  16.880  0.00  0.00    +0.000 HD
ENDBRANCH   1   9
BRANCH   1  12
ATOM     12  C   UNL     1       6.838   4.609  14.630  0.00  0.00    +0.000 C 
BRANCH  12  13
ATOM     13  C   UNL     1       5.783   3.944  13.739  0.00  0.00    +0.000 C 
BRANCH  13  14
ATOM     14  C   UNL     1       6.368   3.497  12.397  0.00  0.00    +0.000 C 
BRANCH  14  15
ATOM     15  C   UNL     1       5.408   2.548  11.679  0.00  0.00    +0.000 C 
BRANCH  15  16
ATOM     16  N   UNL     1       4.143   3.213  11.397  0.00  0.00    +0.000 NA
ATOM     17  H   UNL     1       3.996   3.246  10.388  0.00  0.00    +0.000 HD
ATOM     18  H   UNL     1       4.183   4.181  11.712  0.00  0.00    +0.000 HD
ENDBRANCH  15  16
ENDBRANCH  14  15
ENDBRANCH  13  14
ENDBRANCH  12  13
ENDBRANCH   1  12
TORSDOF 7
ENDMDL
MODEL 5
REMARK VINA RESULT:      -5.4      1.858      2.118
REMARK  Name = 
REMARK  7 active torsions:
REMARK  status: ('A' for Active; 'I' for Inactive)
REMARK    1  A    between atoms: N_1  and  C_2
REMARK    2  A    between atoms: C_2  and  C_3
REMARK    3  A    between atoms: C_3  and  C_4
REMARK    4  A    between atoms: C_4  and  C_5
REMARK    5  A    between atoms: C_5  and  C_6
REMARK    6  A    between atoms: C_6  and  N_7
REMARK    7  A    between atoms: C_6  and  C_8
REMARK                            x       y       z     vdW  Elec       q    Type
REMARK                         _______ _______ _______ _____ _____    ______ ____
ROOT
ATOM      1  C   UNL     1       5.008   3.735  18.044  0.00  0.00    +0.000 C 
ENDROOT
BRANCH   1   2
ATOM      2  C   UNL     1       4.196   4.456  19.155  0.00  0.00    +0.000 C 
ATOM      3  O   UNL     1       4.566   5.537  19.627  0.00  0.00    +0.000 OA
ATOM      4  N   UNL     1       3.015   3.868  19.561  0.00  0.00    +0.000 N 
ATOM      5  C   UNL     1       2.503   2.560  19.193  0.00  0.00    +0.000 C 
ATOM      6  C   UNL     1       1.005   2.712  19.380  0.00  0.00    +0.000 C 
ATOM      7  C   UNL     1       0.892   3.635  20.589  0.00  0.00    +0.000 C 
ATOM      8  C   UNL     1       2.139   4.514  20.519  0.00  0.00    +0.000 C 
ENDBRANCH   1   2
BRANCH   1   9
ATOM      9  N   UNL     1       6.449   4.018  18.218  0.00  0.00    +0.000 NA
ATOM     10  H   UNL     1       6.655   4.908  17.762  0.00  0.00    +0.000 HD
ATOM     11  H   UNL     1       6.995   3.313  17.727  0.00  0.00    +0.000 HD
ENDBRANCH   1   9
BRANCH   1  12
ATOM     12  C   UNL     1       4.521   4.150  16.641  0.00  0.00    +0.000 C 
BRANCH  12  13
ATOM     13  C   UNL     1       5.484   5.100  15.921  0.00  0.00    +0.000 C 
BRANCH  13  14
ATOM     14  C   UNL     1       5.139   6.569  16.181  0.00  0.00    +0.000 C 
BRANCH  14  15
ATOM     15  C   UNL     1       6.216   7.232  17.041  0.00  0.00    +0.000 C 
BRANCH  15  16
ATOM     16  N   UNL     1       7.526   6.667  16.751  0.00  0.00    +0.000 NA
ATOM     17  H   UNL     1       7.525   5.674  16.982  0.00  0.00    +0.000 HD
ATOM     18  H   UNL     1       8.229   7.099  17.350  0.00  0.00    +0.000 HD
ENDBRANCH  15  16
ENDBRANCH  14  15
ENDBRANCH  13  14
ENDBRANCH  12  13
ENDBRANCH   1  12
TORSDOF 7
ENDMDL
MODEL 6
REMARK VINA RESULT:      -5.4      3.892      5.326
REMARK  Name = 
REMARK  7 active torsions:
REMARK  status: ('A' for Active; 'I' for Inactive)
REMARK    1  A    between atoms: N_1  and  C_2
REMARK    2  A    between atoms: C_2  and  C_3
REMARK    3  A    between atoms: C_3  and  C_4
REMARK    4  A    between atoms: C_4  and  C_5
REMARK    5  A    between atoms: C_5  and  C_6
REMARK    6  A    between atoms: C_6  and  N_7
REMARK    7  A    between atoms: C_6  and  C_8
REMARK                            x       y       z     vdW  Elec       q    Type
REMARK                         _______ _______ _______ _____ _____    ______ ____
ROOT
ATOM      1  C   UNL     1       6.291   4.676  15.198  0.00  0.00    +0.000 C 
ENDROOT
BRANCH   1   2
ATOM      2  C   UNL     1       5.523   5.674  16.108  0.00  0.00    +0.000 C 
ATOM      3  O   UNL     1       5.769   6.885  16.090  0.00  0.00    +0.000 OA
ATOM      4  N   UNL     1       4.518   5.163  16.903  0.00  0.00    +0.000 N 
ATOM      5  C   UNL     1       4.184   3.767  17.123  0.00  0.00    +0.000 C 
ATOM      6  C   UNL     1       2.718   3.821  17.513  0.00  0.00    +0.000 C 
ATOM      7  C   UNL     1       2.614   5.115  18.314  0.00  0.00    +0.000 C 
ATOM      8  C   UNL     1       3.680   6.027  17.712  0.00  0.00    +0.000 C 
ENDBRANCH   1   2
BRANCH   1   9
ATOM      9  N   UNL     1       7.559   5.290  14.746  0.00  0.00    +0.000 NA
ATOM     10  H   UNL     1       8.068   5.613  15.571  0.00  0.00    +0.000 HD
ATOM     11  H   UNL     1       7.356   6.119  14.193  0.00  0.00    +0.000 HD
ENDBRANCH   1   9
BRANCH   1  12
ATOM     12  C   UNL     1       5.425   4.235  14.001  0.00  0.00    +0.000 C 
BRANCH  12  13
ATOM     13  C   UNL     1       6.234   3.578  12.877  0.00  0.00    +0.000 C 
BRANCH  13  14
ATOM     14  C   UNL     1       5.330   3.020  11.774  0.00  0.00    +0.000 C 
BRANCH  14  15
ATOM     15  C   UNL     1       5.809   1.637  11.331  0.00  0.00    +0.000 C 
BRANCH  15  16
ATOM     16  N   UNL     1       7.264   1.584  11.294  0.00  0.00    +0.000 NA
ATOM     17  H   UNL     1       7.622   1.446  12.239  0.00  0.00    +0.000 HD
ATOM     18  H   UNL     1       7.635   2.479  10.977  0.00  0.00    +0.000 HD
ENDBRANCH  15  16
ENDBRANCH  14  15
ENDBRANCH  13  14
ENDBRANCH  12  13
ENDBRANCH   1  12
TORSDOF 7
ENDMDL
MODEL 7
REMARK VINA RESULT:      -5.3      1.735      5.288
REMARK  Name = 
REMARK  7 active torsions:
REMARK  status: ('A' for Active; 'I' for Inactive)
REMARK    1  A    between atoms: N_1  and  C_2
REMARK    2  A    between atoms: C_2  and  C_3
REMARK    3  A    between atoms: C_3  and  C_4
REMARK    4  A    between atoms: C_4  and  C_5
REMARK    5  A    between atoms: C_5  and  C_6
REMARK    6  A    between atoms: C_6  and  N_7
REMARK    7  A    between atoms: C_6  and  C_8
REMARK                            x       y       z     vdW  Elec       q    Type
REMARK                         _______ _______ _______ _____ _____    ______ ____
ROOT
ATOM      1  C   UNL     1       3.394   5.504  18.766  0.00  0.00    +0.000 C 
ENDROOT
BRANCH   1   2
ATOM      2  C   UNL     1       4.751   4.784  18.532  0.00  0.00    +0.000 C 
ATOM      3  O   UNL     1       5.216   3.998  19.365  0.00  0.00    +0.000 OA
ATOM      4  N   UNL     1       5.396   5.018  17.335  0.00  0.00    +0.000 N 
ATOM      5  C   UNL     1       5.045   5.988  16.313  0.00  0.00    +0.000 C 
ATOM      6  C   UNL     1       5.643   5.391  15.052  0.00  0.00    +0.000 C 
ATOM      7  C   UNL     1       6.926   4.734  15.548  0.00  0.00    +0.000 C 
ATOM      8  C   UNL     1       6.616   4.318  16.984  0.00  0.00    +0.000 C 
ENDBRANCH   1   2
BRANCH   1   9
ATOM      9  N   UNL     1       3.204   5.751  20.212  0.00  0.00    +0.000 NA
ATOM     10  H   UNL     1       3.319   4.863  20.704  0.00  0.00    +0.000 HD
ATOM     11  H   UNL     1       2.246   6.049  20.382  0.00  0.00    +0.000 HD
ENDBRANCH   1   9
BRANCH   1  12
ATOM     12  C   UNL     1       2.224   4.689  18.179  0.00  0.00    +0.000 C 
BRANCH  12  13
ATOM     13  C   UNL     1       2.126   3.270  18.751  0.00  0.00    +0.000 C 
BRANCH  13  14
ATOM     14  C   UNL     1       0.925   3.112  19.686  0.00  0.00    +0.000 C 
BRANCH  14  15
ATOM     15  C   UNL     1       1.386   2.817  21.113  0.00  0.00    +0.000 C 
BRANCH  15  16
ATOM     16  N   UNL     1       2.839   2.730  21.177  0.00  0.00    +0.000 NA
ATOM     17  H   UNL     1       3.242   3.642  20.965  0.00  0.00    +0.000 HD
ATOM     18  H   UNL     1       3.179   2.094  20.457  0.00  0.00    +0.000 HD
ENDBRANCH  15  16
ENDBRANCH  14  15
ENDBRANCH  13  14
ENDBRANCH  12  13
ENDBRANCH   1  12
TORSDOF 7
ENDMDL
MODEL 8
REMARK VINA RESULT:      -5.3      1.891      2.279
REMARK  Name = 
REMARK  7 active torsions:
REMARK  status: ('A' for Active; 'I' for Inactive)
REMARK    1  A    between atoms: N_1  and  C_2
REMARK    2  A    between atoms: C_2  and  C_3
REMARK    3  A    between atoms: C_3  and  C_4
REMARK    4  A    between atoms: C_4  and  C_5
REMARK    5  A    between atoms: C_5  and  C_6
REMARK    6  A    between atoms: C_6  and  N_7
REMARK    7  A    between atoms: C_6  and  C_8
REMARK                            x       y       z     vdW  Elec       q    Type
REMARK                         _______ _______ _______ _____ _____    ______ ____
ROOT
ATOM      1  C   UNL     1       4.447   5.587  18.638  0.00  0.00    +0.000 C 
ENDROOT
BRANCH   1   2
ATOM      2  C   UNL     1       3.737   4.333  18.058  0.00  0.00    +0.000 C 
ATOM      3  O   UNL     1       4.229   3.685  17.126  0.00  0.00    +0.000 OA
ATOM      4  N   UNL     1       2.558   3.938  18.655  0.00  0.00    +0.000 N 
ATOM      5  C   UNL     1       1.797   4.645  19.670  0.00  0.00    +0.000 C 
ATOM      6  C   UNL     1       1.033   3.532  20.365  0.00  0.00    +0.000 C 
ATOM      7  C   UNL     1       0.716   2.562  19.231  0.00  0.00    +0.000 C 
ATOM      8  C   UNL     1       1.874   2.725  18.250  0.00  0.00    +0.000 C 
ENDBRANCH   1   2
BRANCH   1   9
ATOM      9  N   UNL     1       4.623   6.597  17.571  0.00  0.00    +0.000 NA
ATOM     10  H   UNL     1       5.583   6.535  17.230  0.00  0.00    +0.000 HD
ATOM     11  H   UNL     1       4.520   7.529  17.967  0.00  0.00    +0.000 HD
ENDBRANCH   1   9
BRANCH   1  12
ATOM     12  C   UNL     1       5.797   5.213  19.283  0.00  0.00    +0.000 C 
BRANCH  12  13
ATOM     13  C   UNL     1       7.008   5.701  18.480  0.00  0.00    +0.000 C 
BRANCH  13  14
ATOM     14  C   UNL     1       7.680   4.561  17.710  0.00  0.00    +0.000 C 
BRANCH  14  15
ATOM     15  C   UNL     1       7.318   4.626  16.226  0.00  0.00    +0.000 C 
BRANCH  15  16
ATOM     16  N   UNL     1       7.276   6.007  15.766  0.00  0.00    +0.000 NA
ATOM     17  H   UNL     1       8.150   6.233  15.292  0.00  0.00    +0.000 HD
ATOM     18  H   UNL     1       7.215   6.636  16.566  0.00  0.00    +0.000 HD
ENDBRANCH  15  16
ENDBRANCH  14  15
ENDBRANCH  13  14
ENDBRANCH  12  13
ENDBRANCH   1  12
TORSDOF 7
ENDMDL
MODEL 9
REMARK VINA RESULT:      -5.3      1.805      2.144
REMARK  Name = 
REMARK  7 active torsions:
REMARK  status: ('A' for Active; 'I' for Inactive)
REMARK    1  A    between atoms: N_1  and  C_2
REMARK    2  A    between atoms: C_2  and  C_3
REMARK    3  A    between atoms: C_3  and  C_4
REMARK    4  A    between atoms: C_4  and  C_5
REMARK    5  A    between atoms: C_5  and  C_6
REMARK    6  A    between atoms: C_6  and  N_7
REMARK    7  A    between atoms: C_6  and  C_8
REMARK                            x       y       z     vdW  Elec       q    Type
REMARK                         _______ _______ _______ _____ _____    ______ ____
ROOT
ATOM      1  C   UNL     1       4.707   5.899  16.605  0.00  0.00    +0.000 C 
ENDROOT
BRANCH   1   2
ATOM      2  C   UNL     1       4.441   4.376  16.755  0.00  0.00    +0.000 C 
ATOM      3  O   UNL     1       5.258   3.536  16.359  0.00  0.00    +0.000 OA
ATOM      4  N   UNL     1       3.279   3.994  17.392  0.00  0.00    +0.000 N 
ATOM      5  C   UNL     1       2.176   4.841  17.808  0.00  0.00    +0.000 C 
ATOM      6  C   UNL     1       1.547   4.055  18.944  0.00  0.00    +0.000 C 
ATOM      7  C   UNL     1       1.712   2.605  18.503  0.00  0.00    +0.000 C 
ATOM      8  C   UNL     1       2.990   2.600  17.668  0.00  0.00    +0.000 C 
ENDBRANCH   1   2
BRANCH   1   9
ATOM      9  N   UNL     1       5.450   6.153  15.352  0.00  0.00    +0.000 NA
ATOM     10  H   UNL     1       6.054   5.350  15.171  0.00  0.00    +0.000 HD
ATOM     11  H   UNL     1       6.069   6.951  15.481  0.00  0.00    +0.000 HD
ENDBRANCH   1   9
BRANCH   1  12
ATOM     12  C   UNL     1       5.464   6.455  17.828  0.00  0.00    +0.000 C 
BRANCH  12  13
ATOM     13  C   UNL     1       6.724   7.244  17.454  0.00  0.00    +0.000 C 
BRANCH  13  14
ATOM     14  C   UNL     1       7.918   6.865  18.334  0.00  0.00    +0.000 C 
BRANCH  14  15
ATOM     15  C   UNL     1       7.705   5.491  18.972  0.00  0.00    +0.000 C 
BRANCH  15  16
ATOM     16  N   UNL     1       8.096   5.509  20.374  0.00  0.00    +0.000 NA
ATOM     17  H   UNL     1       7.342   5.909  20.931  0.00  0.00    +0.000 HD
ATOM     18  H   UNL     1       8.901   6.122  20.501  0.00  0.00    +0.000 HD
ENDBRANCH  15  16
ENDBRANCH  14  15
ENDBRANCH  13  14
ENDBRANCH  12  13
ENDBRANCH   1  12
TORSDOF 7
ENDMDL
