MODEL 1
REMARK VINA RESULT:      -5.6      0.000      0.000
REMARK  Name = 
REMARK  2 active torsions:
REMARK  status: ('A' for Active; 'I' for Inactive)
REMARK    1  A    between atoms: C_2  and  OXT_3
REMARK    2  A    between atoms: C_2  and  CA_4
REMARK                            x       y       z     vdW  Elec       q    Type
REMARK                         _______ _______ _______ _____ _____    ______ ____
ROOT
ATOM      1  CA  UNL     1       6.030   4.517  17.576  0.00  0.00    +0.000 A 
ATOM      2  C   UNL     1       7.044   5.316  17.048  0.00  0.00    +0.000 A 
ATOM      3  C   UNL     1       7.030   5.024  15.675  0.00  0.00    +0.000 A 
ATOM      4  O   UNL     1       7.690   5.418  14.559  0.00  0.00    +0.000 OA
ATOM      5  C   UNL     1       7.113   4.700  13.552  0.00  0.00    +0.000 A 
ATOM      6  C   UNL     1       6.118   3.852  13.995  0.00  0.00    +0.000 A 
ATOM      7  C   UNL     1       6.105   4.090  15.383  0.00  0.00    +0.000 A 
ATOM      8  N   UNL     1       5.505   3.732  16.557  0.00  0.00    +0.000 N 
ATOM      9  H   UNL     1       4.778   3.030  16.648  0.00  0.00    +0.000 HD
ENDROOT
BRANCH   1  11
ATOM     10  O   UNL     1       5.395   5.332  19.703  0.00  0.00    +0.000 OA
ATOM     11  C   UNL     1       5.543   4.398  18.931  0.00  0.00    +0.000 C 
BRANCH  11  12
ATOM     12  OXT UNL     1       5.325   3.111  19.283  0.00  0.00    +0.000 OA
ATOM     13  HXT UNL     1       5.609   2.481  18.597  0.00  0.00    +0.000 HD
ENDBRANCH  11  12
ENDBRANCH   1  11
TORSDOF 2
ENDMDL
MODEL 2
REMARK VINA RESULT:      -5.6      2.298      4.363
REMARK  Name = 
REMARK  2 active torsions:
REMARK  status: ('A' for Active; 'I' for Inactive)
REMARK    1  A    between atoms: C_2  and  OXT_3
REMARK    2  A    between atoms: C_2  and  CA_4
REMARK                            x       y       z     vdW  Elec       q    Type
REMARK                         _______ _______ _______ _____ _____    ______ ____
ROOT
ATOM      1  CA  UNL     1       5.936   4.323  17.209  0.00  0.00    +0.000 A 
ATOM      2  C   UNL     1       4.736   4.257  16.501  0.00  0.00    +0.000 A 
ATOM      3  C   UNL     1       3.814   3.760  17.435  0.00  0.00    +0.000 A 
ATOM      4  O   UNL     1       2.492   3.464  17.480  0.00  0.00    +0.000 OA
ATOM      5  C   UNL     1       2.285   3.032  18.758  0.00  0.00    +0.000 A 
ATOM      6  C   UNL     1       3.434   3.031  19.521  0.00  0.00    +0.000 A 
ATOM      7  C   UNL     1       4.405   3.503  18.617  0.00  0.00    +0.000 A 
ATOM      8  N   UNL     1       5.731   3.805  18.482  0.00  0.00    +0.000 N 
ATOM      9  H   UNL     1       6.430   3.692  19.209  0.00  0.00    +0.000 HD
ENDROOT
BRANCH   1  11
ATOM     10  O   UNL     1       7.444   5.629  15.940  0.00  0.00    +0.000 OA
ATOM     11  C   UNL     1       7.242   4.783  16.796  0.00  0.00    +0.000 C 
BRANCH  11  12
ATOM     12  OXT UNL     1       8.238   4.120  17.424  0.00  0.00    +0.000 OA
ATOM     13  HXT UNL     1       8.063   3.991  18.374  0.00  0.00    +0.000 HD
ENDBRANCH  11  12
ENDBRANCH   1  11
TORSDOF 2
ENDMDL
MODEL 3
REMARK VINA RESULT:      -5.5      2.456      4.079
REMARK  Name = 
REMARK  2 active torsions:
REMARK  status: ('A' for Active; 'I' for Inactive)
REMARK    1  A    between atoms: C_2  and  OXT_3
REMARK    2  A    between atoms: C_2  and  CA_4
REMARK                            x       y       z     vdW  Elec       q    Type
REMARK                         _______ _______ _______ _____ _____    ______ ____
ROOT
ATOM      1  CA  UNL     1       5.757   4.840  16.953  0.00  0.00    +0.000 A 
ATOM      2  C   UNL     1       4.784   5.767  17.326  0.00  0.00    +0.000 A 
ATOM      3  C   UNL     1       3.635   4.990  17.539  0.00  0.00    +0.000 A 
ATOM      4  O   UNL     1       2.351   5.183  17.930  0.00  0.00    +0.000 OA
ATOM      5  C   UNL     1       1.804   3.934  17.926  0.00  0.00    +0.000 A 
ATOM      6  C   UNL     1       2.693   2.955  17.532  0.00  0.00    +0.000 A 
ATOM      7  C   UNL     1       3.868   3.689  17.281  0.00  0.00    +0.000 A 
ATOM      8  N   UNL     1       5.168   3.583  16.875  0.00  0.00    +0.000 N 
ATOM      9  H   UNL     1       5.621   2.720  16.594  0.00  0.00    +0.000 HD
ENDROOT
BRANCH   1  11
ATOM     10  O   UNL     1       7.584   5.855  15.848  0.00  0.00    +0.000 OA
ATOM     11  C   UNL     1       7.154   5.027  16.634  0.00  0.00    +0.000 C 
BRANCH  11  12
ATOM     12  OXT UNL     1       7.945   4.128  17.262  0.00  0.00    +0.000 OA
ATOM     13  HXT UNL     1       7.964   4.254  18.227  0.00  0.00    +0.000 HD
ENDBRANCH  11  12
ENDBRANCH   1  11
TORSDOF 2
ENDMDL
MODEL 4
REMARK VINA RESULT:      -5.5      2.537      4.265
REMARK  Name = 
REMARK  2 active torsions:
REMARK  status: ('A' for Active; 'I' for Inactive)
REMARK    1  A    between atoms: C_2  and  OXT_3
REMARK    2  A    between atoms: C_2  and  CA_4
REMARK                            x       y       z     vdW  Elec       q    Type
REMARK                         _______ _______ _______ _____ _____    ______ ____
ROOT
ATOM      1  CA  UNL     1       5.813   4.123  17.639  0.00  0.00    +0.000 A 
ATOM      2  C   UNL     1       4.806   4.172  16.676  0.00  0.00    +0.000 A 
ATOM      3  C   UNL     1       3.707   3.560  17.297  0.00  0.00    +0.000 A 
ATOM      4  O   UNL     1       2.415   3.277  16.998  0.00  0.00    +0.000 OA
ATOM      5  C   UNL     1       1.933   2.672  18.122  0.00  0.00    +0.000 A 
ATOM      6  C   UNL     1       2.879   2.549  19.119  0.00  0.00    +0.000 A 
ATOM      7  C   UNL     1       4.020   3.132  18.534  0.00  0.00    +0.000 A 
ATOM      8  N   UNL     1       5.335   3.433  18.747  0.00  0.00    +0.000 N 
ATOM      9  H   UNL     1       5.854   3.211  19.591  0.00  0.00    +0.000 HD
ENDROOT
BRANCH   1  11
ATOM     10  O   UNL     1       7.855   4.849  18.585  0.00  0.00    +0.000 OA
ATOM     11  C   UNL     1       7.169   4.621  17.602  0.00  0.00    +0.000 C 
BRANCH  11  12
ATOM     12  OXT UNL     1       7.584   4.873  16.341  0.00  0.00    +0.000 OA
ATOM     13  HXT UNL     1       8.211   4.205  16.011  0.00  0.00    +0.000 HD
ENDBRANCH  11  12
ENDBRANCH   1  11
TORSDOF 2
ENDMDL
MODEL 5
REMARK VINA RESULT:      -5.4      2.577      4.239
REMARK  Name = 
REMARK  2 active torsions:
REMARK  status: ('A' for Active; 'I' for Inactive)
REMARK    1  A    between atoms: C_2  and  OXT_3
REMARK    2  A    between atoms: C_2  and  CA_4
REMARK                            x       y       z     vdW  Elec       q    Type
REMARK                         _______ _______ _______ _____ _____    ______ ____
ROOT
ATOM      1  CA  UNL     1       5.713   4.792  16.957  0.00  0.00    +0.000 A 
ATOM      2  C   UNL     1       4.950   3.720  16.493  0.00  0.00    +0.000 A 
ATOM      3  C   UNL     1       3.673   3.953  17.026  0.00  0.00    +0.000 A 
ATOM      4  O   UNL     1       2.449   3.373  16.988  0.00  0.00    +0.000 OA
ATOM      5  C   UNL     1       1.663   4.189  17.748  0.00  0.00    +0.000 A 
ATOM      6  C   UNL     1       2.351   5.261  18.279  0.00  0.00    +0.000 A 
ATOM      7  C   UNL     1       3.656   5.062  17.790  0.00  0.00    +0.000 A 
ATOM      8  N   UNL     1       4.924   5.571  17.794  0.00  0.00    +0.000 N 
ATOM      9  H   UNL     1       5.217   6.397  18.305  0.00  0.00    +0.000 HD
ENDROOT
BRANCH   1  11
ATOM     10  O   UNL     1       7.487   6.132  16.151  0.00  0.00    +0.000 OA
ATOM     11  C   UNL     1       7.099   5.124  16.720  0.00  0.00    +0.000 C 
BRANCH  11  12
ATOM     12  OXT UNL     1       7.936   4.152  17.147  0.00  0.00    +0.000 OA
ATOM     13  HXT UNL     1       7.925   4.045  18.115  0.00  0.00    +0.000 HD
ENDBRANCH  11  12
ENDBRANCH   1  11
TORSDOF 2
ENDMDL
MODEL 6
REMARK VINA RESULT:      -5.4      3.268      3.866
REMARK  Name = 
REMARK  2 active torsions:
REMARK  status: ('A' for Active; 'I' for Inactive)
REMARK    1  A    between atoms: C_2  and  OXT_3
REMARK    2  A    between atoms: C_2  and  CA_4
REMARK                            x       y       z     vdW  Elec       q    Type
REMARK                         _______ _______ _______ _____ _____    ______ ____
ROOT
ATOM      1  CA  UNL     1       6.201   5.288  18.790  0.00  0.00    +0.000 A 
ATOM      2  C   UNL     1       5.115   5.871  18.137  0.00  0.00    +0.000 A 
ATOM      3  C   UNL     1       4.195   4.821  17.997  0.00  0.00    +0.000 A 
ATOM      4  O   UNL     1       2.947   4.640  17.500  0.00  0.00    +0.000 OA
ATOM      5  C   UNL     1       2.677   3.323  17.732  0.00  0.00    +0.000 A 
ATOM      6  C   UNL     1       3.718   2.658  18.346  0.00  0.00    +0.000 A 
ATOM      7  C   UNL     1       4.687   3.669  18.491  0.00  0.00    +0.000 A 
ATOM      8  N   UNL     1       5.948   3.930  18.948  0.00  0.00    +0.000 N 
ATOM      9  H   UNL     1       6.572   3.243  19.358  0.00  0.00    +0.000 HD
ENDROOT
BRANCH   1  11
ATOM     10  O   UNL     1       8.096   6.691  18.614  0.00  0.00    +0.000 OA
ATOM     11  C   UNL     1       7.445   5.869  19.239  0.00  0.00    +0.000 C 
BRANCH  11  12
ATOM     12  OXT UNL     1       7.854   5.350  20.418  0.00  0.00    +0.000 OA
ATOM     13  HXT UNL     1       7.234   5.534  21.145  0.00  0.00    +0.000 HD
ENDBRANCH  11  12
ENDBRANCH   1  11
TORSDOF 2
ENDMDL
MODEL 7
REMARK VINA RESULT:      -5.3      2.209      4.260
REMARK  Name = 
REMARK  2 active torsions:
REMARK  status: ('A' for Active; 'I' for Inactive)
REMARK    1  A    between atoms: C_2  and  OXT_3
REMARK    2  A    between atoms: C_2  and  CA_4
REMARK                            x       y       z     vdW  Elec       q    Type
REMARK                         _______ _______ _______ _____ _____    ______ ____
ROOT
ATOM      1  CA  UNL     1       5.972   4.413  17.605  0.00  0.00    +0.000 A 
ATOM      2  C   UNL     1       5.357   4.709  18.821  0.00  0.00    +0.000 A 
ATOM      3  C   UNL     1       4.134   4.023  18.762  0.00  0.00    +0.000 A 
ATOM      4  O   UNL     1       3.054   3.826  19.558  0.00  0.00    +0.000 OA
ATOM      5  C   UNL     1       2.239   3.011  18.828  0.00  0.00    +0.000 A 
ATOM      6  C   UNL     1       2.758   2.697  17.589  0.00  0.00    +0.000 A 
ATOM      7  C   UNL     1       3.987   3.384  17.586  0.00  0.00    +0.000 A 
ATOM      8  N   UNL     1       5.099   3.650  16.838  0.00  0.00    +0.000 N 
ATOM      9  H   UNL     1       5.259   3.315  15.894  0.00  0.00    +0.000 HD
ENDROOT
BRANCH   1  11
ATOM     10  O   UNL     1       7.447   5.650  16.232  0.00  0.00    +0.000 OA
ATOM     11  C   UNL     1       7.265   4.803  17.092  0.00  0.00    +0.000 C 
BRANCH  11  12
ATOM     12  OXT UNL     1       8.268   4.073  17.628  0.00  0.00    +0.000 OA
ATOM     13  HXT UNL     1       8.496   3.295  17.089  0.00  0.00    +0.000 HD
ENDBRANCH  11  12
ENDBRANCH   1  11
TORSDOF 2
ENDMDL
MODEL 8
REMARK VINA RESULT:      -5.3      1.580      4.598
REMARK  Name = 
REMARK  2 active torsions:
REMARK  status: ('A' for Active; 'I' for Inactive)
REMARK    1  A    between atoms: C_2  and  OXT_3
REMARK    2  A    between atoms: C_2  and  CA_4
REMARK                            x       y       z     vdW  Elec       q    Type
REMARK                         _______ _______ _______ _____ _____    ______ ____
ROOT
ATOM      1  CA  UNL     1       6.807   4.737  15.307  0.00  0.00    +0.000 A 
ATOM      2  C   UNL     1       6.162   3.974  16.281  0.00  0.00    +0.000 A 
ATOM      3  C   UNL     1       6.490   4.611  17.488  0.00  0.00    +0.000 A 
ATOM      4  O   UNL     1       6.218   4.462  18.807  0.00  0.00    +0.000 OA
ATOM      5  C   UNL     1       6.884   5.490  19.409  0.00  0.00    +0.000 A 
ATOM      6  C   UNL     1       7.581   6.278  18.517  0.00  0.00    +0.000 A 
ATOM      7  C   UNL     1       7.304   5.664  17.280  0.00  0.00    +0.000 A 
ATOM      8  N   UNL     1       7.546   5.731  15.937  0.00  0.00    +0.000 N 
ATOM      9  H   UNL     1       8.145   6.416  15.488  0.00  0.00    +0.000 HD
ENDROOT
BRANCH   1  11
ATOM     10  O   UNL     1       6.183   3.770  13.241  0.00  0.00    +0.000 OA
ATOM     11  C   UNL     1       6.821   4.599  13.869  0.00  0.00    +0.000 C 
BRANCH  11  12
ATOM     12  OXT UNL     1       7.684   5.460  13.284  0.00  0.00    +0.000 OA
ATOM     13  HXT UNL     1       7.925   6.203  13.865  0.00  0.00    +0.000 HD
ENDBRANCH  11  12
ENDBRANCH   1  11
TORSDOF 2
ENDMDL
MODEL 9
REMARK VINA RESULT:      -5.3      2.668      3.756
REMARK  Name = 
REMARK  2 active torsions:
REMARK  status: ('A' for Active; 'I' for Inactive)
REMARK    1  A    between atoms: C_2  and  OXT_3
REMARK    2  A    between atoms: C_2  and  CA_4
REMARK                            x       y       z     vdW  Elec       q    Type
REMARK                         _______ _______ _______ _____ _____    ______ ____
ROOT
ATOM      1  CA  UNL     1       4.046   3.553  17.964  0.00  0.00    +0.000 A 
ATOM      2  C   UNL     1       4.333   4.205  19.163  0.00  0.00    +0.000 A 
ATOM      3  C   UNL     1       5.631   4.705  18.979  0.00  0.00    +0.000 A 
ATOM      4  O   UNL     1       6.532   5.440  19.676  0.00  0.00    +0.000 OA
ATOM      5  C   UNL     1       7.601   5.553  18.836  0.00  0.00    +0.000 A 
ATOM      6  C   UNL     1       7.414   4.902  17.633  0.00  0.00    +0.000 A 
ATOM      7  C   UNL     1       6.124   4.358  17.774  0.00  0.00    +0.000 A 
ATOM      8  N   UNL     1       5.170   3.605  17.148  0.00  0.00    +0.000 N 
ATOM      9  H   UNL     1       5.270   3.187  16.229  0.00  0.00    +0.000 HD
ENDROOT
BRANCH   1  11
ATOM     10  O   UNL     1       1.916   3.390  16.949  0.00  0.00    +0.000 OA
ATOM     11  C   UNL     1       2.849   2.866  17.536  0.00  0.00    +0.000 C 
BRANCH  11  12
ATOM     12  OXT UNL     1       2.842   1.569  17.918  0.00  0.00    +0.000 OA
ATOM     13  HXT UNL     1       3.586   1.347  18.505  0.00  0.00    +0.000 HD
ENDBRANCH  11  12
ENDBRANCH   1  11
TORSDOF 2
ENDMDL
