MODEL 1
REMARK VINA RESULT:      -8.8      0.000      0.000
REMARK  Name = 
REMARK  6 active torsions:
REMARK  status: ('A' for Active; 'I' for Inactive)
REMARK    1  A    between atoms: C_1  and  S_2
REMARK    2  A    between atoms: S_2  and  C_3
REMARK    3  A    between atoms: C_7  and  N_8
REMARK    4  A    between atoms: C_9  and  C_11
REMARK    5  A    between atoms: C_11  and  N_12
REMARK    6  A    between atoms: C_20  and  C_21
REMARK                            x       y       z     vdW  Elec       q    Type
REMARK                         _______ _______ _______ _____ _____    ______ ____
ROOT
ATOM      1  N   UNL     1       5.386   4.836  18.834  0.00  0.00    +0.000 N 
ATOM      2  N   UNL     1       4.571   5.947  18.906  0.00  0.00    +0.000 NA
ATOM      3  C   UNL     1       3.503   5.493  19.501  0.00  0.00    +0.000 A 
ATOM      4  C   UNL     1       2.246   6.268  19.883  0.00  0.00    +0.000 A 
ATOM      5  N   UNL     1       2.123   7.622  19.594  0.00  0.00    +0.000 N 
ATOM      6  C   UNL     1       2.780   8.283  18.470  0.00  0.00    +0.000 C 
ATOM      7  C   UNL     1       1.740   9.054  17.660  0.00  0.00    +0.000 C 
ATOM      8  C   UNL     1       0.965  10.032  18.537  0.00  0.00    +0.000 C 
ATOM      9  C   UNL     1       0.340   9.311  19.739  0.00  0.00    +0.000 C 
ATOM     10  C   UNL     1      -0.355  10.312  20.659  0.00  0.00    +0.000 C 
ATOM     11  C   UNL     1       1.405   8.516  20.505  0.00  0.00    +0.000 C 
ATOM     12  N   UNL     1       1.288   5.629  20.518  0.00  0.00    +0.000 NA
ATOM     13  C   UNL     1       1.439   4.286  20.786  0.00  0.00    +0.000 A 
ATOM     14  C   UNL     1       2.523   3.563  20.481  0.00  0.00    +0.000 A 
ATOM     15  N   UNL     1       3.541   4.188  19.840  0.00  0.00    +0.000 N 
ATOM     16  C   UNL     1       4.772   3.728  19.451  0.00  0.00    +0.000 A 
ATOM     17  O   UNL     1       5.248   2.618  19.614  0.00  0.00    +0.000 OA
ENDROOT
BRANCH   1  18
ATOM     18  C   UNL     1       6.754   4.899  18.379  0.00  0.00    +0.000 C 
BRANCH  18  20
ATOM     19  N   UNL     1       6.673   4.277  15.992  0.00  0.00    +0.000 N 
ATOM     20  C   UNL     1       6.933   5.281  16.910  0.00  0.00    +0.000 C 
ATOM     21  O   UNL     1       7.314   6.420  16.634  0.00  0.00    +0.000 OA
ATOM     22  H   UNL     1       6.460   3.366  16.386  0.00  0.00    +0.000 HD
BRANCH  19  27
ATOM     23  C   UNL     1       6.114   3.559  12.392  0.00  0.00    +0.000 A 
ATOM     24  C   UNL     1       7.027   4.429  11.791  0.00  0.00    +0.000 A 
ATOM     25  C   UNL     1       7.790   5.289  12.577  0.00  0.00    +0.000 A 
ATOM     26  C   UNL     1       7.671   5.260  13.967  0.00  0.00    +0.000 A 
ATOM     27  C   UNL     1       6.783   4.379  14.588  0.00  0.00    +0.000 A 
ATOM     28  C   UNL     1       5.983   3.552  13.790  0.00  0.00    +0.000 A 
BRANCH  23  30
ATOM     29  C   UNL     1       3.824   3.354  10.823  0.00  0.00    +0.000 C 
ATOM     30  S   UNL     1       5.204   2.351  11.436  0.00  0.00    +0.000 S 
ENDBRANCH  23  30
ENDBRANCH  19  27
ENDBRANCH  18  20
ENDBRANCH   1  18
TORSDOF 4
ENDMDL
MODEL 2
REMARK VINA RESULT:      -8.2      3.511      8.079
REMARK  Name = 
REMARK  6 active torsions:
REMARK  status: ('A' for Active; 'I' for Inactive)
REMARK    1  A    between atoms: C_1  and  S_2
REMARK    2  A    between atoms: S_2  and  C_3
REMARK    3  A    between atoms: C_7  and  N_8
REMARK    4  A    between atoms: C_9  and  C_11
REMARK    5  A    between atoms: C_11  and  N_12
REMARK    6  A    between atoms: C_20  and  C_21
REMARK                            x       y       z     vdW  Elec       q    Type
REMARK                         _______ _______ _______ _____ _____    ______ ____
ROOT
ATOM      1  N   UNL     1       2.518   6.168  19.700  0.00  0.00    +0.000 N 
ATOM      2  N   UNL     1       3.368   6.029  18.622  0.00  0.00    +0.000 NA
ATOM      3  C   UNL     1       3.227   4.774  18.295  0.00  0.00    +0.000 A 
ATOM      4  C   UNL     1       3.903   4.025  17.151  0.00  0.00    +0.000 A 
ATOM      5  N   UNL     1       4.802   4.666  16.308  0.00  0.00    +0.000 N 
ATOM      6  C   UNL     1       5.631   5.801  16.704  0.00  0.00    +0.000 C 
ATOM      7  C   UNL     1       7.090   5.502  16.367  0.00  0.00    +0.000 C 
ATOM      8  C   UNL     1       7.260   5.146  14.893  0.00  0.00    +0.000 C 
ATOM      9  C   UNL     1       6.330   3.990  14.501  0.00  0.00    +0.000 C 
ATOM     10  C   UNL     1       6.439   3.702  13.005  0.00  0.00    +0.000 C 
ATOM     11  C   UNL     1       4.880   4.307  14.890  0.00  0.00    +0.000 C 
ATOM     12  N   UNL     1       3.594   2.761  16.963  0.00  0.00    +0.000 NA
ATOM     13  C   UNL     1       2.701   2.153  17.819  0.00  0.00    +0.000 A 
ATOM     14  C   UNL     1       2.075   2.766  18.832  0.00  0.00    +0.000 A 
ATOM     15  N   UNL     1       2.353   4.075  19.049  0.00  0.00    +0.000 N 
ATOM     16  C   UNL     1       1.841   4.961  19.960  0.00  0.00    +0.000 A 
ATOM     17  O   UNL     1       0.978   4.766  20.799  0.00  0.00    +0.000 OA
ENDROOT
BRANCH   1  18
ATOM     18  C   UNL     1       2.230   7.446  20.306  0.00  0.00    +0.000 C 
BRANCH  18  20
ATOM     19  N   UNL     1       0.727   9.379  19.993  0.00  0.00    +0.000 N 
ATOM     20  C   UNL     1       1.573   8.471  19.380  0.00  0.00    +0.000 C 
ATOM     21  O   UNL     1       1.806   8.414  18.171  0.00  0.00    +0.000 OA
ATOM     22  H   UNL     1       0.569   9.232  20.985  0.00  0.00    +0.000 HD
BRANCH  19  27
ATOM     23  C   UNL     1      -1.961  11.051  18.052  0.00  0.00    +0.000 A 
ATOM     24  C   UNL     1      -1.463  12.352  17.952  0.00  0.00    +0.000 A 
ATOM     25  C   UNL     1      -0.261  12.686  18.571  0.00  0.00    +0.000 A 
ATOM     26  C   UNL     1       0.465  11.716  19.264  0.00  0.00    +0.000 A 
ATOM     27  C   UNL     1      -0.004  10.404  19.353  0.00  0.00    +0.000 A 
ATOM     28  C   UNL     1      -1.236  10.086  18.770  0.00  0.00    +0.000 A 
BRANCH  23  30
ATOM     29  C   UNL     1      -2.959  10.892  15.458  0.00  0.00    +0.000 C 
ATOM     30  S   UNL     1      -3.434  10.542  17.172  0.00  0.00    +0.000 S 
ENDBRANCH  23  30
ENDBRANCH  19  27
ENDBRANCH  18  20
ENDBRANCH   1  18
TORSDOF 4
ENDMDL
MODEL 3
REMARK VINA RESULT:      -8.1      0.982      1.127
REMARK  Name = 
REMARK  6 active torsions:
REMARK  status: ('A' for Active; 'I' for Inactive)
REMARK    1  A    between atoms: C_1  and  S_2
REMARK    2  A    between atoms: S_2  and  C_3
REMARK    3  A    between atoms: C_7  and  N_8
REMARK    4  A    between atoms: C_9  and  C_11
REMARK    5  A    between atoms: C_11  and  N_12
REMARK    6  A    between atoms: C_20  and  C_21
REMARK                            x       y       z     vdW  Elec       q    Type
REMARK                         _______ _______ _______ _____ _____    ______ ____
ROOT
ATOM      1  N   UNL     1       4.799   5.627  18.412  0.00  0.00    +0.000 N 
ATOM      2  N   UNL     1       3.958   6.589  18.934  0.00  0.00    +0.000 NA
ATOM      3  C   UNL     1       3.052   5.884  19.554  0.00  0.00    +0.000 A 
ATOM      4  C   UNL     1       1.856   6.394  20.352  0.00  0.00    +0.000 A 
ATOM      5  N   UNL     1       1.609   7.755  20.480  0.00  0.00    +0.000 N 
ATOM      6  C   UNL     1       1.997   8.756  19.491  0.00  0.00    +0.000 C 
ATOM      7  C   UNL     1       0.780   9.602  19.124  0.00  0.00    +0.000 C 
ATOM      8  C   UNL     1       0.142  10.226  20.361  0.00  0.00    +0.000 C 
ATOM      9  C   UNL     1      -0.197   9.150  21.403  0.00  0.00    +0.000 C 
ATOM     10  C   UNL     1      -0.748   9.792  22.673  0.00  0.00    +0.000 C 
ATOM     11  C   UNL     1       1.038   8.295  21.717  0.00  0.00    +0.000 C 
ATOM     12  N   UNL     1       1.076   5.513  20.938  0.00  0.00    +0.000 NA
ATOM     13  C   UNL     1       1.346   4.170  20.788  0.00  0.00    +0.000 A 
ATOM     14  C   UNL     1       2.385   3.671  20.107  0.00  0.00    +0.000 A 
ATOM     15  N   UNL     1       3.223   4.547  19.501  0.00  0.00    +0.000 N 
ATOM     16  C   UNL     1       4.377   4.337  18.790  0.00  0.00    +0.000 A 
ATOM     17  O   UNL     1       4.932   3.280  18.549  0.00  0.00    +0.000 OA
ENDROOT
BRANCH   1  18
ATOM     18  C   UNL     1       6.046   5.951  17.762  0.00  0.00    +0.000 C 
BRANCH  18  20
ATOM     19  N   UNL     1       6.796   4.995  15.613  0.00  0.00    +0.000 N 
ATOM     20  C   UNL     1       6.002   5.946  16.233  0.00  0.00    +0.000 C 
ATOM     21  O   UNL     1       5.305   6.781  15.656  0.00  0.00    +0.000 OA
ATOM     22  H   UNL     1       7.384   4.443  16.230  0.00  0.00    +0.000 HD
BRANCH  19  27
ATOM     23  C   UNL     1       6.300   3.558  12.225  0.00  0.00    +0.000 A 
ATOM     24  C   UNL     1       7.242   4.273  11.481  0.00  0.00    +0.000 A 
ATOM     25  C   UNL     1       8.005   5.265  12.092  0.00  0.00    +0.000 A 
ATOM     26  C   UNL     1       7.855   5.525  13.454  0.00  0.00    +0.000 A 
ATOM     27  C   UNL     1       6.937   4.804  14.221  0.00  0.00    +0.000 A 
ATOM     28  C   UNL     1       6.139   3.842  13.592  0.00  0.00    +0.000 A 
BRANCH  23  30
ATOM     29  C   UNL     1       3.831   3.005  11.065  0.00  0.00    +0.000 C 
ATOM     30  S   UNL     1       5.386   2.193  11.517  0.00  0.00    +0.000 S 
ENDBRANCH  23  30
ENDBRANCH  19  27
ENDBRANCH  18  20
ENDBRANCH   1  18
TORSDOF 4
ENDMDL
MODEL 4
REMARK VINA RESULT:      -7.9      3.690      8.283
REMARK  Name = 
REMARK  6 active torsions:
REMARK  status: ('A' for Active; 'I' for Inactive)
REMARK    1  A    between atoms: C_1  and  S_2
REMARK    2  A    between atoms: S_2  and  C_3
REMARK    3  A    between atoms: C_7  and  N_8
REMARK    4  A    between atoms: C_9  and  C_11
REMARK    5  A    between atoms: C_11  and  N_12
REMARK    6  A    between atoms: C_20  and  C_21
REMARK                            x       y       z     vdW  Elec       q    Type
REMARK                         _______ _______ _______ _____ _____    ______ ____
ROOT
ATOM      1  N   UNL     1       2.421   6.112  19.737  0.00  0.00    +0.000 N 
ATOM      2  N   UNL     1       3.298   5.994  18.679  0.00  0.00    +0.000 NA
ATOM      3  C   UNL     1       3.162   4.748  18.319  0.00  0.00    +0.000 A 
ATOM      4  C   UNL     1       3.865   4.023  17.176  0.00  0.00    +0.000 A 
ATOM      5  N   UNL     1       4.789   4.680  16.372  0.00  0.00    +0.000 N 
ATOM      6  C   UNL     1       5.610   5.802  16.816  0.00  0.00    +0.000 C 
ATOM      7  C   UNL     1       7.077   5.506  16.510  0.00  0.00    +0.000 C 
ATOM      8  C   UNL     1       7.284   5.183  15.034  0.00  0.00    +0.000 C 
ATOM      9  C   UNL     1       6.361   4.039  14.591  0.00  0.00    +0.000 C 
ATOM     10  C   UNL     1       6.509   3.785  13.093  0.00  0.00    +0.000 C 
ATOM     11  C   UNL     1       4.903   4.353  14.949  0.00  0.00    +0.000 C 
ATOM     12  N   UNL     1       3.558   2.764  16.952  0.00  0.00    +0.000 NA
ATOM     13  C   UNL     1       2.641   2.140  17.770  0.00  0.00    +0.000 A 
ATOM     14  C   UNL     1       1.990   2.732  18.780  0.00  0.00    +0.000 A 
ATOM     15  N   UNL     1       2.267   4.035  19.034  0.00  0.00    +0.000 N 
ATOM     16  C   UNL     1       1.733   4.902  19.951  0.00  0.00    +0.000 A 
ATOM     17  O   UNL     1       0.848   4.690  20.763  0.00  0.00    +0.000 OA
ENDROOT
BRANCH   1  18
ATOM     18  C   UNL     1       2.120   7.377  20.364  0.00  0.00    +0.000 C 
BRANCH  18  20
ATOM     19  N   UNL     1       0.927   9.509  20.009  0.00  0.00    +0.000 N 
ATOM     20  C   UNL     1       1.628   8.471  19.416  0.00  0.00    +0.000 C 
ATOM     21  O   UNL     1       1.852   8.357  18.210  0.00  0.00    +0.000 OA
ATOM     22  H   UNL     1       0.746   9.406  21.003  0.00  0.00    +0.000 HD
BRANCH  19  27
ATOM     23  C   UNL     1       0.533  12.970  18.724  0.00  0.00    +0.000 A 
ATOM     24  C   UNL     1      -0.743  12.913  18.159  0.00  0.00    +0.000 A 
ATOM     25  C   UNL     1      -1.451  11.713  18.159  0.00  0.00    +0.000 A 
ATOM     26  C   UNL     1      -0.903  10.575  18.753  0.00  0.00    +0.000 A 
ATOM     27  C   UNL     1       0.361  10.619  19.346  0.00  0.00    +0.000 A 
ATOM     28  C   UNL     1       1.088  11.815  19.299  0.00  0.00    +0.000 A 
BRANCH  23  30
ATOM     29  C   UNL     1       3.097  13.997  18.375  0.00  0.00    +0.000 C 
ATOM     30  S   UNL     1       1.429  14.514  18.858  0.00  0.00    +0.000 S 
ENDBRANCH  23  30
ENDBRANCH  19  27
ENDBRANCH  18  20
ENDBRANCH   1  18
TORSDOF 4
ENDMDL
MODEL 5
REMARK VINA RESULT:      -7.7      4.619      5.983
REMARK  Name = 
REMARK  6 active torsions:
REMARK  status: ('A' for Active; 'I' for Inactive)
REMARK    1  A    between atoms: C_1  and  S_2
REMARK    2  A    between atoms: S_2  and  C_3
REMARK    3  A    between atoms: C_7  and  N_8
REMARK    4  A    between atoms: C_9  and  C_11
REMARK    5  A    between atoms: C_11  and  N_12
REMARK    6  A    between atoms: C_20  and  C_21
REMARK                            x       y       z     vdW  Elec       q    Type
REMARK                         _______ _______ _______ _____ _____    ______ ____
ROOT
ATOM      1  N   UNL     1       5.611   6.476  17.614  0.00  0.00    +0.000 N 
ATOM      2  N   UNL     1       4.593   7.221  18.173  0.00  0.00    +0.000 NA
ATOM      3  C   UNL     1       3.889   6.327  18.810  0.00  0.00    +0.000 A 
ATOM      4  C   UNL     1       2.634   6.551  19.649  0.00  0.00    +0.000 A 
ATOM      5  N   UNL     1       2.093   7.821  19.802  0.00  0.00    +0.000 N 
ATOM      6  C   UNL     1       2.215   8.890  18.815  0.00  0.00    +0.000 C 
ATOM      7  C   UNL     1       0.829   9.443  18.495  0.00  0.00    +0.000 C 
ATOM      8  C   UNL     1       0.106   9.901  19.758  0.00  0.00    +0.000 C 
ATOM      9  C   UNL     1       0.050   8.770  20.795  0.00  0.00    +0.000 C 
ATOM     10  C   UNL     1      -0.591   9.265  22.089  0.00  0.00    +0.000 C 
ATOM     11  C   UNL     1       1.454   8.212  21.062  0.00  0.00    +0.000 C 
ATOM     12  N   UNL     1       2.090   5.514  20.247  0.00  0.00    +0.000 NA
ATOM     13  C   UNL     1       2.649   4.267  20.071  0.00  0.00    +0.000 A 
ATOM     14  C   UNL     1       3.752   4.018  19.354  0.00  0.00    +0.000 A 
ATOM     15  N   UNL     1       4.353   5.063  18.735  0.00  0.00    +0.000 N 
ATOM     16  C   UNL     1       5.501   5.122  17.987  0.00  0.00    +0.000 A 
ATOM     17  O   UNL     1       6.272   4.217  17.716  0.00  0.00    +0.000 OA
ENDROOT
BRANCH   1  18
ATOM     18  C   UNL     1       6.734   7.075  16.932  0.00  0.00    +0.000 C 
BRANCH  18  20
ATOM     19  N   UNL     1       7.894   9.144  17.614  0.00  0.00    +0.000 N 
ATOM     20  C   UNL     1       7.739   7.786  17.838  0.00  0.00    +0.000 C 
ATOM     21  O   UNL     1       8.357   7.125  18.674  0.00  0.00    +0.000 OA
ATOM     22  H   UNL     1       7.379   9.521  16.824  0.00  0.00    +0.000 HD
BRANCH  19  27
ATOM     23  C   UNL     1      10.375  11.842  18.211  0.00  0.00    +0.000 A 
ATOM     24  C   UNL     1      10.619  11.696  19.579  0.00  0.00    +0.000 A 
ATOM     25  C   UNL     1       9.924  10.736  20.312  0.00  0.00    +0.000 A 
ATOM     26  C   UNL     1       9.008   9.897  19.677  0.00  0.00    +0.000 A 
ATOM     27  C   UNL     1       8.768  10.011  18.306  0.00  0.00    +0.000 A 
ATOM     28  C   UNL     1       9.433  11.009  17.584  0.00  0.00    +0.000 A 
BRANCH  23  30
ATOM     29  C   UNL     1      12.331  13.806  18.464  0.00  0.00    +0.000 C 
ATOM     30  S   UNL     1      11.330  12.972  17.205  0.00  0.00    +0.000 S 
ENDBRANCH  23  30
ENDBRANCH  19  27
ENDBRANCH  18  20
ENDBRANCH   1  18
TORSDOF 4
ENDMDL
MODEL 6
REMARK VINA RESULT:      -7.7      4.755      9.109
REMARK  Name = 
REMARK  6 active torsions:
REMARK  status: ('A' for Active; 'I' for Inactive)
REMARK    1  A    between atoms: C_1  and  S_2
REMARK    2  A    between atoms: S_2  and  C_3
REMARK    3  A    between atoms: C_7  and  N_8
REMARK    4  A    between atoms: C_9  and  C_11
REMARK    5  A    between atoms: C_11  and  N_12
REMARK    6  A    between atoms: C_20  and  C_21
REMARK                            x       y       z     vdW  Elec       q    Type
REMARK                         _______ _______ _______ _____ _____    ______ ____
ROOT
ATOM      1  N   UNL     1       1.467   9.071  19.316  0.00  0.00    +0.000 N 
ATOM      2  N   UNL     1       1.700   7.792  19.777  0.00  0.00    +0.000 NA
ATOM      3  C   UNL     1       2.541   7.312  18.904  0.00  0.00    +0.000 A 
ATOM      4  C   UNL     1       3.188   5.930  18.892  0.00  0.00    +0.000 A 
ATOM      5  N   UNL     1       2.900   4.996  19.880  0.00  0.00    +0.000 N 
ATOM      6  C   UNL     1       1.637   4.936  20.608  0.00  0.00    +0.000 C 
ATOM      7  C   UNL     1       1.075   3.518  20.527  0.00  0.00    +0.000 C 
ATOM      8  C   UNL     1       2.083   2.490  21.028  0.00  0.00    +0.000 C 
ATOM      9  C   UNL     1       3.417   2.624  20.281  0.00  0.00    +0.000 C 
ATOM     10  C   UNL     1       4.449   1.654  20.852  0.00  0.00    +0.000 C 
ATOM     11  C   UNL     1       3.932   4.068  20.349  0.00  0.00    +0.000 C 
ATOM     12  N   UNL     1       4.047   5.651  17.936  0.00  0.00    +0.000 NA
ATOM     13  C   UNL     1       4.307   6.598  16.969  0.00  0.00    +0.000 A 
ATOM     14  C   UNL     1       3.773   7.826  16.938  0.00  0.00    +0.000 A 
ATOM     15  N   UNL     1       2.895   8.159  17.915  0.00  0.00    +0.000 N 
ATOM     16  C   UNL     1       2.239   9.336  18.168  0.00  0.00    +0.000 A 
ATOM     17  O   UNL     1       2.314  10.387  17.556  0.00  0.00    +0.000 OA
ENDROOT
BRANCH   1  18
ATOM     18  C   UNL     1       0.701  10.043  20.060  0.00  0.00    +0.000 C 
BRANCH  18  20
ATOM     19  N   UNL     1      -1.231  10.003  18.525  0.00  0.00    +0.000 N 
ATOM     20  C   UNL     1      -0.356  10.794  19.251  0.00  0.00    +0.000 C 
ATOM     21  O   UNL     1      -0.353  12.026  19.268  0.00  0.00    +0.000 OA
ATOM     22  H   UNL     1      -1.040   9.006  18.543  0.00  0.00    +0.000 HD
BRANCH  19  27
ATOM     23  C   UNL     1      -4.438  11.571  17.501  0.00  0.00    +0.000 A 
ATOM     24  C   UNL     1      -4.456  11.296  16.131  0.00  0.00    +0.000 A 
ATOM     25  C   UNL     1      -3.381  10.636  15.540  0.00  0.00    +0.000 A 
ATOM     26  C   UNL     1      -2.301  10.218  16.317  0.00  0.00    +0.000 A 
ATOM     27  C   UNL     1      -2.276  10.460  17.693  0.00  0.00    +0.000 A 
ATOM     28  C   UNL     1      -3.336  11.167  18.273  0.00  0.00    +0.000 A 
BRANCH  23  30
ATOM     29  C   UNL     1      -6.806  10.828  18.762  0.00  0.00    +0.000 C 
ATOM     30  S   UNL     1      -5.846  12.303  18.327  0.00  0.00    +0.000 S 
ENDBRANCH  23  30
ENDBRANCH  19  27
ENDBRANCH  18  20
ENDBRANCH   1  18
TORSDOF 4
ENDMDL
MODEL 7
REMARK VINA RESULT:      -7.6      3.914      8.693
REMARK  Name = 
REMARK  6 active torsions:
REMARK  status: ('A' for Active; 'I' for Inactive)
REMARK    1  A    between atoms: C_1  and  S_2
REMARK    2  A    between atoms: S_2  and  C_3
REMARK    3  A    between atoms: C_7  and  N_8
REMARK    4  A    between atoms: C_9  and  C_11
REMARK    5  A    between atoms: C_11  and  N_12
REMARK    6  A    between atoms: C_20  and  C_21
REMARK                            x       y       z     vdW  Elec       q    Type
REMARK                         _______ _______ _______ _____ _____    ______ ____
ROOT
ATOM      1  N   UNL     1       2.510   6.275  19.709  0.00  0.00    +0.000 N 
ATOM      2  N   UNL     1       3.367   6.115  18.640  0.00  0.00    +0.000 NA
ATOM      3  C   UNL     1       3.203   4.862  18.314  0.00  0.00    +0.000 A 
ATOM      4  C   UNL     1       3.874   4.097  17.178  0.00  0.00    +0.000 A 
ATOM      5  N   UNL     1       4.794   4.717  16.342  0.00  0.00    +0.000 N 
ATOM      6  C   UNL     1       5.642   5.835  16.743  0.00  0.00    +0.000 C 
ATOM      7  C   UNL     1       7.098   5.506  16.420  0.00  0.00    +0.000 C 
ATOM      8  C   UNL     1       7.274   5.142  14.949  0.00  0.00    +0.000 C 
ATOM      9  C   UNL     1       6.324   4.004  14.551  0.00  0.00    +0.000 C 
ATOM     10  C   UNL     1       6.440   3.710  13.057  0.00  0.00    +0.000 C 
ATOM     11  C   UNL     1       4.877   4.353  14.926  0.00  0.00    +0.000 C 
ATOM     12  N   UNL     1       3.540   2.839  16.991  0.00  0.00    +0.000 NA
ATOM     13  C   UNL     1       2.627   2.251  17.840  0.00  0.00    +0.000 A 
ATOM     14  C   UNL     1       2.005   2.880  18.845  0.00  0.00    +0.000 A 
ATOM     15  N   UNL     1       2.308   4.183  19.062  0.00  0.00    +0.000 N 
ATOM     16  C   UNL     1       1.806   5.082  19.966  0.00  0.00    +0.000 A 
ATOM     17  O   UNL     1       0.932   4.907  20.797  0.00  0.00    +0.000 OA
ENDROOT
BRANCH   1  18
ATOM     18  C   UNL     1       2.243   7.560  20.310  0.00  0.00    +0.000 C 
BRANCH  18  20
ATOM     19  N   UNL     1       0.415   9.200  20.055  0.00  0.00    +0.000 N 
ATOM     20  C   UNL     1       1.459   8.536  19.432  0.00  0.00    +0.000 C 
ATOM     21  O   UNL     1       1.773   8.652  18.246  0.00  0.00    +0.000 OA
ATOM     22  H   UNL     1       0.227   8.921  21.014  0.00  0.00    +0.000 HD
BRANCH  19  27
ATOM     23  C   UNL     1      -1.797  12.158  19.675  0.00  0.00    +0.000 A 
ATOM     24  C   UNL     1      -2.295  11.967  18.384  0.00  0.00    +0.000 A 
ATOM     25  C   UNL     1      -1.858  10.886  17.622  0.00  0.00    +0.000 A 
ATOM     26  C   UNL     1      -0.949   9.973  18.157  0.00  0.00    +0.000 A 
ATOM     27  C   UNL     1      -0.459  10.131  19.455  0.00  0.00    +0.000 A 
ATOM     28  C   UNL     1      -0.865  11.247  20.198  0.00  0.00    +0.000 A 
BRANCH  23  30
ATOM     29  C   UNL     1      -4.162  12.982  20.890  0.00  0.00    +0.000 C 
ATOM     30  S   UNL     1      -2.420  13.457  20.736  0.00  0.00    +0.000 S 
ENDBRANCH  23  30
ENDBRANCH  19  27
ENDBRANCH  18  20
ENDBRANCH   1  18
TORSDOF 4
ENDMDL
MODEL 8
REMARK VINA RESULT:      -7.6      5.296      8.757
REMARK  Name = 
REMARK  6 active torsions:
REMARK  status: ('A' for Active; 'I' for Inactive)
REMARK    1  A    between atoms: C_1  and  S_2
REMARK    2  A    between atoms: S_2  and  C_3
REMARK    3  A    between atoms: C_7  and  N_8
REMARK    4  A    between atoms: C_9  and  C_11
REMARK    5  A    between atoms: C_11  and  N_12
REMARK    6  A    between atoms: C_20  and  C_21
REMARK                            x       y       z     vdW  Elec       q    Type
REMARK                         _______ _______ _______ _____ _____    ______ ____
ROOT
ATOM      1  N   UNL     1      -0.510  11.131  22.519  0.00  0.00    +0.000 N 
ATOM      2  N   UNL     1       0.409  11.838  21.770  0.00  0.00    +0.000 NA
ATOM      3  C   UNL     1      -0.112  13.032  21.714  0.00  0.00    +0.000 A 
ATOM      4  C   UNL     1       0.461  14.271  21.033  0.00  0.00    +0.000 A 
ATOM      5  N   UNL     1       1.673  14.218  20.354  0.00  0.00    +0.000 N 
ATOM      6  C   UNL     1       2.200  13.019  19.709  0.00  0.00    +0.000 C 
ATOM      7  C   UNL     1       2.562  13.343  18.261  0.00  0.00    +0.000 C 
ATOM      8  C   UNL     1       3.530  14.519  18.179  0.00  0.00    +0.000 C 
ATOM      9  C   UNL     1       2.968  15.741  18.919  0.00  0.00    +0.000 C 
ATOM     10  C   UNL     1       3.983  16.881  18.911  0.00  0.00    +0.000 C 
ATOM     11  C   UNL     1       2.578  15.369  20.356  0.00  0.00    +0.000 C 
ATOM     12  N   UNL     1      -0.206  15.399  21.125  0.00  0.00    +0.000 NA
ATOM     13  C   UNL     1      -1.406  15.418  21.802  0.00  0.00    +0.000 A 
ATOM     14  C   UNL     1      -1.949  14.363  22.424  0.00  0.00    +0.000 A 
ATOM     15  N   UNL     1      -1.284  13.183  22.366  0.00  0.00    +0.000 N 
ATOM     16  C   UNL     1      -1.563  11.968  22.936  0.00  0.00    +0.000 A 
ATOM     17  O   UNL     1      -2.498  11.672  23.660  0.00  0.00    +0.000 OA
ENDROOT
BRANCH   1  18
ATOM     18  C   UNL     1      -0.275   9.780  22.971  0.00  0.00    +0.000 C 
BRANCH  18  20
ATOM     19  N   UNL     1       1.236   8.808  21.278  0.00  0.00    +0.000 N 
ATOM     20  C   UNL     1      -0.019   8.759  21.862  0.00  0.00    +0.000 C 
ATOM     21  O   UNL     1      -0.928   7.992  21.540  0.00  0.00    +0.000 OA
ATOM     22  H   UNL     1       1.838   9.563  21.593  0.00  0.00    +0.000 HD
BRANCH  19  27
ATOM     23  C   UNL     1       2.519   5.803  19.514  0.00  0.00    +0.000 A 
ATOM     24  C   UNL     1       2.751   6.312  18.233  0.00  0.00    +0.000 A 
ATOM     25  C   UNL     1       2.434   7.637  17.942  0.00  0.00    +0.000 A 
ATOM     26  C   UNL     1       1.917   8.468  18.936  0.00  0.00    +0.000 A 
ATOM     27  C   UNL     1       1.702   7.986  20.229  0.00  0.00    +0.000 A 
ATOM     28  C   UNL     1       1.976   6.641  20.502  0.00  0.00    +0.000 A 
BRANCH  23  30
ATOM     29  C   UNL     1       3.694   3.540  18.399  0.00  0.00    +0.000 C 
ATOM     30  S   UNL     1       3.024   4.148  19.969  0.00  0.00    +0.000 S 
ENDBRANCH  23  30
ENDBRANCH  19  27
ENDBRANCH  18  20
ENDBRANCH   1  18
TORSDOF 4
ENDMDL
MODEL 9
REMARK VINA RESULT:      -7.5      4.728      8.812
REMARK  Name = 
REMARK  6 active torsions:
REMARK  status: ('A' for Active; 'I' for Inactive)
REMARK    1  A    between atoms: C_1  and  S_2
REMARK    2  A    between atoms: S_2  and  C_3
REMARK    3  A    between atoms: C_7  and  N_8
REMARK    4  A    between atoms: C_9  and  C_11
REMARK    5  A    between atoms: C_11  and  N_12
REMARK    6  A    between atoms: C_20  and  C_21
REMARK                            x       y       z     vdW  Elec       q    Type
REMARK                         _______ _______ _______ _____ _____    ______ ____
ROOT
ATOM      1  N   UNL     1       1.670   8.667  19.773  0.00  0.00    +0.000 N 
ATOM      2  N   UNL     1       2.547   8.068  18.892  0.00  0.00    +0.000 NA
ATOM      3  C   UNL     1       2.576   6.830  19.299  0.00  0.00    +0.000 A 
ATOM      4  C   UNL     1       3.361   5.668  18.700  0.00  0.00    +0.000 A 
ATOM      5  N   UNL     1       4.181   5.853  17.593  0.00  0.00    +0.000 N 
ATOM      6  C   UNL     1       4.848   7.110  17.268  0.00  0.00    +0.000 C 
ATOM      7  C   UNL     1       6.338   6.852  17.059  0.00  0.00    +0.000 C 
ATOM      8  C   UNL     1       6.575   5.779  16.001  0.00  0.00    +0.000 C 
ATOM      9  C   UNL     1       5.811   4.494  16.347  0.00  0.00    +0.000 C 
ATOM     10  C   UNL     1       5.979   3.459  15.237  0.00  0.00    +0.000 C 
ATOM     11  C   UNL     1       4.326   4.796  16.588  0.00  0.00    +0.000 C 
ATOM     12  N   UNL     1       3.224   4.477  19.240  0.00  0.00    +0.000 NA
ATOM     13  C   UNL     1       2.406   4.327  20.339  0.00  0.00    +0.000 A 
ATOM     14  C   UNL     1       1.690   5.311  20.898  0.00  0.00    +0.000 A 
ATOM     15  N   UNL     1       1.791   6.551  20.360  0.00  0.00    +0.000 N 
ATOM     16  C   UNL     1       1.153   7.721  20.681  0.00  0.00    +0.000 A 
ATOM     17  O   UNL     1       0.311   7.910  21.542  0.00  0.00    +0.000 OA
ENDROOT
BRANCH   1  18
ATOM     18  C   UNL     1       1.207  10.025  19.614  0.00  0.00    +0.000 C 
BRANCH  18  20
ATOM     19  N   UNL     1      -0.566  10.380  17.933  0.00  0.00    +0.000 N 
ATOM     20  C   UNL     1      -0.276  10.169  19.271  0.00  0.00    +0.000 C 
ATOM     21  O   UNL     1      -1.104  10.118  20.182  0.00  0.00    +0.000 OA
ATOM     22  H   UNL     1       0.238  10.490  17.322  0.00  0.00    +0.000 HD
BRANCH  19  27
ATOM     23  C   UNL     1      -4.100  11.468  17.601  0.00  0.00    +0.000 A 
ATOM     24  C   UNL     1      -4.465  10.862  16.396  0.00  0.00    +0.000 A 
ATOM     25  C   UNL     1      -3.525  10.135  15.670  0.00  0.00    +0.000 A 
ATOM     26  C   UNL     1      -2.227   9.982  16.159  0.00  0.00    +0.000 A 
ATOM     27  C   UNL     1      -1.850  10.559  17.374  0.00  0.00    +0.000 A 
ATOM     28  C   UNL     1      -2.785  11.329  18.075  0.00  0.00    +0.000 A 
BRANCH  23  30
ATOM     29  C   UNL     1      -6.680  12.505  17.469  0.00  0.00    +0.000 C 
ATOM     30  S   UNL     1      -5.302  12.305  18.629  0.00  0.00    +0.000 S 
ENDBRANCH  23  30
ENDBRANCH  19  27
ENDBRANCH  18  20
ENDBRANCH   1  18
TORSDOF 4
ENDMDL
