MODEL 1
REMARK VINA RESULT:      -7.3      0.000      0.000
REMARK  Name = 
REMARK  5 active torsions:
REMARK  status: ('A' for Active; 'I' for Inactive)
REMARK    1  A    between atoms: C_6  and  C_7
REMARK    2  A    between atoms: N_15  and  CA_16
REMARK    3  A    between atoms: CA_16  and  C_17
REMARK    4  A    between atoms: CA_16  and  C_19
REMARK    5  A    between atoms: C_17  and  O_18
REMARK                            x       y       z     vdW  Elec       q    Type
REMARK                         _______ _______ _______ _____ _____    ______ ____
ROOT
ATOM      1  O   UNL     1       0.468   9.432  21.608  0.00  0.00    +0.000 OA
ATOM      2  C   UNL     1       1.062   8.694  20.829  0.00  0.00    +0.000 C 
ATOM      3  N   UNL     1       1.269   7.380  21.144  0.00  0.00    +0.000 N 
ATOM      4  C   UNL     1       1.922   6.488  20.343  0.00  0.00    +0.000 A 
ATOM      5  N   UNL     1       2.589   6.756  19.246  0.00  0.00    +0.000 NA
ATOM      6  C   UNL     1       3.106   5.585  18.716  0.00  0.00    +0.000 A 
ATOM      7  C   UNL     1       2.748   4.441  19.407  0.00  0.00    +0.000 A 
ATOM      8  S   UNL     1       1.844   4.857  20.813  0.00  0.00    +0.000 S 
ATOM      9  N   UNL     1       1.492   9.095  19.605  0.00  0.00    +0.000 N 
ATOM     10  H   UNL     1       0.858   7.050  22.004  0.00  0.00    +0.000 HD
ATOM     11  H   UNL     1       2.073   8.447  19.081  0.00  0.00    +0.000 HD
ENDROOT
BRANCH   6  12
ATOM     12  C   UNL     1       3.947   5.613  17.526  0.00  0.00    +0.000 A 
ATOM     13  C   UNL     1       4.366   4.436  16.902  0.00  0.00    +0.000 A 
ATOM     14  C   UNL     1       5.188   4.530  15.791  0.00  0.00    +0.000 A 
ATOM     15  N   UNL     1       5.616   5.700  15.270  0.00  0.00    +0.000 NA
ATOM     16  C   UNL     1       5.211   6.826  15.895  0.00  0.00    +0.000 A 
ATOM     17  C   UNL     1       4.390   6.835  17.012  0.00  0.00    +0.000 A 
ENDBRANCH   6  12
BRANCH   9  18
ATOM     18  CA  UNL     1       1.253  10.402  19.013  0.00  0.00    +0.000 C 
BRANCH  18  19
ATOM     19  C   UNL     1      -0.222  10.520  18.613  0.00  0.00    +0.000 A 
ATOM     20  C   UNL     1      -1.054  11.481  19.227  0.00  0.00    +0.000 A 
ATOM     21  C   UNL     1      -2.405  11.596  18.891  0.00  0.00    +0.000 A 
ATOM     22  C   UNL     1      -2.950  10.776  17.910  0.00  0.00    +0.000 A 
ATOM     23  C   UNL     1      -2.140   9.850  17.260  0.00  0.00    +0.000 A 
ATOM     24  C   UNL     1      -0.790   9.728  17.604  0.00  0.00    +0.000 A 
ENDBRANCH  18  19
BRANCH  18  25
ATOM     25  C   UNL     1       2.278  10.612  17.872  0.00  0.00    +0.000 C 
BRANCH  25  26
ATOM     26  O   UNL     1       2.441  11.996  17.541  0.00  0.00    +0.000 OA
ATOM     27  H   UNL     1       2.877  12.410  18.307  0.00  0.00    +0.000 HD
ENDBRANCH  25  26
ENDBRANCH  18  25
ENDBRANCH   9  18
TORSDOF 5
ENDMDL
MODEL 2
REMARK VINA RESULT:      -7.2      0.045      1.373
REMARK  Name = 
REMARK  5 active torsions:
REMARK  status: ('A' for Active; 'I' for Inactive)
REMARK    1  A    between atoms: C_6  and  C_7
REMARK    2  A    between atoms: N_15  and  CA_16
REMARK    3  A    between atoms: CA_16  and  C_17
REMARK    4  A    between atoms: CA_16  and  C_19
REMARK    5  A    between atoms: C_17  and  O_18
REMARK                            x       y       z     vdW  Elec       q    Type
REMARK                         _______ _______ _______ _____ _____    ______ ____
ROOT
ATOM      1  O   UNL     1       0.453   9.459  21.614  0.00  0.00    +0.000 OA
ATOM      2  C   UNL     1       1.058   8.725  20.839  0.00  0.00    +0.000 C 
ATOM      3  N   UNL     1       1.263   7.410  21.152  0.00  0.00    +0.000 N 
ATOM      4  C   UNL     1       1.929   6.522  20.355  0.00  0.00    +0.000 A 
ATOM      5  N   UNL     1       2.609   6.796  19.267  0.00  0.00    +0.000 NA
ATOM      6  C   UNL     1       3.134   5.628  18.739  0.00  0.00    +0.000 A 
ATOM      7  C   UNL     1       2.770   4.481  19.421  0.00  0.00    +0.000 A 
ATOM      8  S   UNL     1       1.848   4.889  20.817  0.00  0.00    +0.000 S 
ATOM      9  N   UNL     1       1.503   9.132  19.623  0.00  0.00    +0.000 N 
ATOM     10  H   UNL     1       0.842   7.075  22.005  0.00  0.00    +0.000 HD
ATOM     11  H   UNL     1       2.091   8.487  19.103  0.00  0.00    +0.000 HD
ENDROOT
BRANCH   6  12
ATOM     12  C   UNL     1       3.990   5.662  17.560  0.00  0.00    +0.000 A 
ATOM     13  C   UNL     1       4.405   6.870  16.995  0.00  0.00    +0.000 A 
ATOM     14  C   UNL     1       5.195   6.834  15.857  0.00  0.00    +0.000 A 
ATOM     15  N   UNL     1       5.590   5.694  15.253  0.00  0.00    +0.000 NA
ATOM     16  C   UNL     1       5.168   4.537  15.806  0.00  0.00    +0.000 A 
ATOM     17  C   UNL     1       4.376   4.469  16.941  0.00  0.00    +0.000 A 
ENDBRANCH   6  12
BRANCH   9  18
ATOM     18  CA  UNL     1       1.269  10.441  19.033  0.00  0.00    +0.000 C 
BRANCH  18  19
ATOM     19  C   UNL     1      -0.205  10.566  18.636  0.00  0.00    +0.000 A 
ATOM     20  C   UNL     1      -0.751   9.727  17.641  0.00  0.00    +0.000 A 
ATOM     21  C   UNL     1      -2.089   9.834  17.250  0.00  0.00    +0.000 A 
ATOM     22  C   UNL     1      -2.921  10.760  17.868  0.00  0.00    +0.000 A 
ATOM     23  C   UNL     1      -2.418  11.570  18.881  0.00  0.00    +0.000 A 
ATOM     24  C   UNL     1      -1.076  11.470  19.264  0.00  0.00    +0.000 A 
ENDBRANCH  18  19
BRANCH  18  25
ATOM     25  C   UNL     1       2.294  10.648  17.891  0.00  0.00    +0.000 C 
BRANCH  25  26
ATOM     26  O   UNL     1       2.428  12.028  17.532  0.00  0.00    +0.000 OA
ATOM     27  H   UNL     1       2.499  12.522  18.368  0.00  0.00    +0.000 HD
ENDBRANCH  25  26
ENDBRANCH  18  25
ENDBRANCH   9  18
TORSDOF 5
ENDMDL
MODEL 3
REMARK VINA RESULT:      -6.7      3.806      7.295
REMARK  Name = 
REMARK  5 active torsions:
REMARK  status: ('A' for Active; 'I' for Inactive)
REMARK    1  A    between atoms: C_6  and  C_7
REMARK    2  A    between atoms: N_15  and  CA_16
REMARK    3  A    between atoms: CA_16  and  C_17
REMARK    4  A    between atoms: CA_16  and  C_19
REMARK    5  A    between atoms: C_17  and  O_18
REMARK                            x       y       z     vdW  Elec       q    Type
REMARK                         _______ _______ _______ _____ _____    ______ ____
ROOT
ATOM      1  O   UNL     1       4.529   1.321  17.519  0.00  0.00    +0.000 OA
ATOM      2  C   UNL     1       4.065   2.380  17.929  0.00  0.00    +0.000 C 
ATOM      3  N   UNL     1       3.038   2.381  18.831  0.00  0.00    +0.000 N 
ATOM      4  C   UNL     1       2.456   3.509  19.337  0.00  0.00    +0.000 A 
ATOM      5  N   UNL     1       2.656   4.744  18.941  0.00  0.00    +0.000 NA
ATOM      6  C   UNL     1       1.886   5.607  19.703  0.00  0.00    +0.000 A 
ATOM      7  C   UNL     1       1.169   4.990  20.713  0.00  0.00    +0.000 A 
ATOM      8  S   UNL     1       1.375   3.283  20.627  0.00  0.00    +0.000 S 
ATOM      9  N   UNL     1       4.560   3.594  17.578  0.00  0.00    +0.000 N 
ATOM     10  H   UNL     1       2.738   1.483  19.177  0.00  0.00    +0.000 HD
ATOM     11  H   UNL     1       4.038   4.413  17.877  0.00  0.00    +0.000 HD
ENDROOT
BRANCH   6  12
ATOM     12  C   UNL     1       1.874   7.037  19.423  0.00  0.00    +0.000 A 
ATOM     13  C   UNL     1       1.396   7.959  20.358  0.00  0.00    +0.000 A 
ATOM     14  C   UNL     1       1.384   9.302  20.019  0.00  0.00    +0.000 A 
ATOM     15  N   UNL     1       1.807   9.781  18.830  0.00  0.00    +0.000 NA
ATOM     16  C   UNL     1       2.253   8.873  17.935  0.00  0.00    +0.000 A 
ATOM     17  C   UNL     1       2.303   7.510  18.179  0.00  0.00    +0.000 A 
ENDBRANCH   6  12
BRANCH   9  18
ATOM     18  CA  UNL     1       5.734   3.820  16.747  0.00  0.00    +0.000 C 
BRANCH  18  19
ATOM     19  C   UNL     1       6.548   4.985  17.320  0.00  0.00    +0.000 A 
ATOM     20  C   UNL     1       6.525   6.250  16.693  0.00  0.00    +0.000 A 
ATOM     21  C   UNL     1       7.272   7.322  17.187  0.00  0.00    +0.000 A 
ATOM     22  C   UNL     1       8.035   7.165  18.339  0.00  0.00    +0.000 A 
ATOM     23  C   UNL     1       8.040   5.941  19.000  0.00  0.00    +0.000 A 
ATOM     24  C   UNL     1       7.300   4.865  18.499  0.00  0.00    +0.000 A 
ENDBRANCH  18  19
BRANCH  18  25
ATOM     25  C   UNL     1       5.265   3.983  15.280  0.00  0.00    +0.000 C 
BRANCH  25  26
ATOM     26  O   UNL     1       6.257   3.542  14.346  0.00  0.00    +0.000 OA
ATOM     27  H   UNL     1       5.906   3.743  13.461  0.00  0.00    +0.000 HD
ENDBRANCH  25  26
ENDBRANCH  18  25
ENDBRANCH   9  18
TORSDOF 5
ENDMDL
MODEL 4
REMARK VINA RESULT:      -6.6      3.663      7.227
REMARK  Name = 
REMARK  5 active torsions:
REMARK  status: ('A' for Active; 'I' for Inactive)
REMARK    1  A    between atoms: C_6  and  C_7
REMARK    2  A    between atoms: N_15  and  CA_16
REMARK    3  A    between atoms: CA_16  and  C_17
REMARK    4  A    between atoms: CA_16  and  C_19
REMARK    5  A    between atoms: C_17  and  O_18
REMARK                            x       y       z     vdW  Elec       q    Type
REMARK                         _______ _______ _______ _____ _____    ______ ____
ROOT
ATOM      1  O   UNL     1       4.498   1.719  17.404  0.00  0.00    +0.000 OA
ATOM      2  C   UNL     1       4.027   2.768  17.832  0.00  0.00    +0.000 C 
ATOM      3  N   UNL     1       3.008   2.747  18.743  0.00  0.00    +0.000 N 
ATOM      4  C   UNL     1       2.420   3.862  19.269  0.00  0.00    +0.000 A 
ATOM      5  N   UNL     1       2.603   5.104  18.887  0.00  0.00    +0.000 NA
ATOM      6  C   UNL     1       1.832   5.950  19.667  0.00  0.00    +0.000 A 
ATOM      7  C   UNL     1       1.130   5.313  20.675  0.00  0.00    +0.000 A 
ATOM      8  S   UNL     1       1.353   3.609  20.566  0.00  0.00    +0.000 S 
ATOM      9  N   UNL     1       4.507   3.992  17.492  0.00  0.00    +0.000 N 
ATOM     10  H   UNL     1       2.720   1.841  19.080  0.00  0.00    +0.000 HD
ATOM     11  H   UNL     1       3.979   4.801  17.806  0.00  0.00    +0.000 HD
ENDROOT
BRANCH   6  12
ATOM     12  C   UNL     1       1.803   7.383  19.406  0.00  0.00    +0.000 A 
ATOM     13  C   UNL     1       1.360   8.292  20.370  0.00  0.00    +0.000 A 
ATOM     14  C   UNL     1       1.329   9.639  20.048  0.00  0.00    +0.000 A 
ATOM     15  N   UNL     1       1.702  10.133  18.849  0.00  0.00    +0.000 NA
ATOM     16  C   UNL     1       2.114   9.239  17.926  0.00  0.00    +0.000 A 
ATOM     17  C   UNL     1       2.180   7.874  18.151  0.00  0.00    +0.000 A 
ENDBRANCH   6  12
BRANCH   9  18
ATOM     18  CA  UNL     1       5.670   4.240  16.653  0.00  0.00    +0.000 C 
BRANCH  18  19
ATOM     19  C   UNL     1       6.552   5.308  17.308  0.00  0.00    +0.000 A 
ATOM     20  C   UNL     1       7.245   5.028  18.505  0.00  0.00    +0.000 A 
ATOM     21  C   UNL     1       8.042   5.991  19.129  0.00  0.00    +0.000 A 
ATOM     22  C   UNL     1       8.192   7.248  18.553  0.00  0.00    +0.000 A 
ATOM     23  C   UNL     1       7.554   7.534  17.350  0.00  0.00    +0.000 A 
ATOM     24  C   UNL     1       6.748   6.573  16.732  0.00  0.00    +0.000 A 
ENDBRANCH  18  19
BRANCH  18  25
ATOM     25  C   UNL     1       5.176   4.560  15.221  0.00  0.00    +0.000 C 
BRANCH  25  26
ATOM     26  O   UNL     1       5.804   3.730  14.237  0.00  0.00    +0.000 OA
ATOM     27  H   UNL     1       6.681   3.502  14.593  0.00  0.00    +0.000 HD
ENDBRANCH  25  26
ENDBRANCH  18  25
ENDBRANCH   9  18
TORSDOF 5
ENDMDL
MODEL 5
REMARK VINA RESULT:      -6.5      3.656      7.194
REMARK  Name = 
REMARK  5 active torsions:
REMARK  status: ('A' for Active; 'I' for Inactive)
REMARK    1  A    between atoms: C_6  and  C_7
REMARK    2  A    between atoms: N_15  and  CA_16
REMARK    3  A    between atoms: CA_16  and  C_17
REMARK    4  A    between atoms: CA_16  and  C_19
REMARK    5  A    between atoms: C_17  and  O_18
REMARK                            x       y       z     vdW  Elec       q    Type
REMARK                         _______ _______ _______ _____ _____    ______ ____
ROOT
ATOM      1  O   UNL     1       4.499   1.630  17.638  0.00  0.00    +0.000 OA
ATOM      2  C   UNL     1       4.025   2.697  18.014  0.00  0.00    +0.000 C 
ATOM      3  N   UNL     1       2.999   2.717  18.917  0.00  0.00    +0.000 N 
ATOM      4  C   UNL     1       2.407   3.855  19.388  0.00  0.00    +0.000 A 
ATOM      5  N   UNL     1       2.593   5.078  18.952  0.00  0.00    +0.000 NA
ATOM      6  C   UNL     1       1.817   5.958  19.687  0.00  0.00    +0.000 A 
ATOM      7  C   UNL     1       1.107   5.367  20.717  0.00  0.00    +0.000 A 
ATOM      8  S   UNL     1       1.330   3.660  20.687  0.00  0.00    +0.000 S 
ATOM      9  N   UNL     1       4.507   3.905  17.623  0.00  0.00    +0.000 N 
ATOM     10  H   UNL     1       2.708   1.828  19.293  0.00  0.00    +0.000 HD
ATOM     11  H   UNL     1       3.977   4.727  17.896  0.00  0.00    +0.000 HD
ENDROOT
BRANCH   6  12
ATOM     12  C   UNL     1       1.789   7.378  19.361  0.00  0.00    +0.000 A 
ATOM     13  C   UNL     1       2.280   7.857  18.144  0.00  0.00    +0.000 A 
ATOM     14  C   UNL     1       2.251   9.222  17.908  0.00  0.00    +0.000 A 
ATOM     15  N   UNL     1       1.776  10.127  18.790  0.00  0.00    +0.000 NA
ATOM     16  C   UNL     1       1.318   9.646  19.965  0.00  0.00    +0.000 A 
ATOM     17  C   UNL     1       1.305   8.300  20.295  0.00  0.00    +0.000 A 
ENDBRANCH   6  12
BRANCH   9  18
ATOM     18  CA  UNL     1       5.677   4.115  16.783  0.00  0.00    +0.000 C 
BRANCH  18  19
ATOM     19  C   UNL     1       6.547   5.222  17.388  0.00  0.00    +0.000 A 
ATOM     20  C   UNL     1       6.586   6.503  16.797  0.00  0.00    +0.000 A 
ATOM     21  C   UNL     1       7.385   7.523  17.320  0.00  0.00    +0.000 A 
ATOM     22  C   UNL     1       8.138   7.297  18.467  0.00  0.00    +0.000 A 
ATOM     23  C   UNL     1       8.081   6.056  19.094  0.00  0.00    +0.000 A 
ATOM     24  C   UNL     1       7.291   5.032  18.563  0.00  0.00    +0.000 A 
ENDBRANCH  18  19
BRANCH  18  25
ATOM     25  C   UNL     1       5.195   4.355  15.332  0.00  0.00    +0.000 C 
BRANCH  25  26
ATOM     26  O   UNL     1       6.115   3.834  14.365  0.00  0.00    +0.000 OA
ATOM     27  H   UNL     1       5.689   3.046  13.982  0.00  0.00    +0.000 HD
ENDBRANCH  25  26
ENDBRANCH  18  25
ENDBRANCH   9  18
TORSDOF 5
ENDMDL
MODEL 6
REMARK VINA RESULT:      -6.5      1.965      3.648
REMARK  Name = 
REMARK  5 active torsions:
REMARK  status: ('A' for Active; 'I' for Inactive)
REMARK    1  A    between atoms: C_6  and  C_7
REMARK    2  A    between atoms: N_15  and  CA_16
REMARK    3  A    between atoms: CA_16  and  C_17
REMARK    4  A    between atoms: CA_16  and  C_19
REMARK    5  A    between atoms: C_17  and  O_18
REMARK                            x       y       z     vdW  Elec       q    Type
REMARK                         _______ _______ _______ _____ _____    ______ ____
ROOT
ATOM      1  O   UNL     1       1.800  11.070  18.076  0.00  0.00    +0.000 OA
ATOM      2  C   UNL     1       1.902   9.866  18.287  0.00  0.00    +0.000 C 
ATOM      3  N   UNL     1       2.881   9.138  17.670  0.00  0.00    +0.000 N 
ATOM      4  C   UNL     1       3.067   7.795  17.840  0.00  0.00    +0.000 A 
ATOM      5  N   UNL     1       2.272   6.963  18.470  0.00  0.00    +0.000 NA
ATOM      6  C   UNL     1       2.807   5.686  18.430  0.00  0.00    +0.000 A 
ATOM      7  C   UNL     1       4.046   5.607  17.818  0.00  0.00    +0.000 A 
ATOM      8  S   UNL     1       4.490   7.144  17.180  0.00  0.00    +0.000 S 
ATOM      9  N   UNL     1       1.117   9.196  19.168  0.00  0.00    +0.000 N 
ATOM     10  H   UNL     1       3.534   9.650  17.097  0.00  0.00    +0.000 HD
ATOM     11  H   UNL     1       1.201   8.183  19.189  0.00  0.00    +0.000 HD
ENDROOT
BRANCH   6  12
ATOM     12  C   UNL     1       2.085   4.558  19.003  0.00  0.00    +0.000 A 
ATOM     13  C   UNL     1       1.954   4.400  20.384  0.00  0.00    +0.000 A 
ATOM     14  C   UNL     1       1.281   3.289  20.865  0.00  0.00    +0.000 A 
ATOM     15  N   UNL     1       0.739   2.339  20.075  0.00  0.00    +0.000 NA
ATOM     16  C   UNL     1       0.887   2.502  18.743  0.00  0.00    +0.000 A 
ATOM     17  C   UNL     1       1.544   3.576  18.166  0.00  0.00    +0.000 A 
ENDBRANCH   6  12
BRANCH   9  18
ATOM     18  CA  UNL     1       0.113   9.798  20.033  0.00  0.00    +0.000 C 
BRANCH  18  19
ATOM     19  C   UNL     1      -1.031  10.351  19.178  0.00  0.00    +0.000 A 
ATOM     20  C   UNL     1      -1.703  11.532  19.561  0.00  0.00    +0.000 A 
ATOM     21  C   UNL     1      -2.761  12.046  18.806  0.00  0.00    +0.000 A 
ATOM     22  C   UNL     1      -3.151  11.410  17.633  0.00  0.00    +0.000 A 
ATOM     23  C   UNL     1      -2.476  10.269  17.211  0.00  0.00    +0.000 A 
ATOM     24  C   UNL     1      -1.425   9.749  17.973  0.00  0.00    +0.000 A 
ENDBRANCH  18  19
BRANCH  18  25
ATOM     25  C   UNL     1       0.819  10.820  20.956  0.00  0.00    +0.000 C 
BRANCH  25  26
ATOM     26  O   UNL     1       1.285  10.219  22.170  0.00  0.00    +0.000 OA
ATOM     27  H   UNL     1       0.761   9.407  22.290  0.00  0.00    +0.000 HD
ENDBRANCH  25  26
ENDBRANCH  18  25
ENDBRANCH   9  18
TORSDOF 5
ENDMDL
MODEL 7
REMARK VINA RESULT:      -6.4      1.953      3.732
REMARK  Name = 
REMARK  5 active torsions:
REMARK  status: ('A' for Active; 'I' for Inactive)
REMARK    1  A    between atoms: C_6  and  C_7
REMARK    2  A    between atoms: N_15  and  CA_16
REMARK    3  A    between atoms: CA_16  and  C_17
REMARK    4  A    between atoms: CA_16  and  C_19
REMARK    5  A    between atoms: C_17  and  O_18
REMARK                            x       y       z     vdW  Elec       q    Type
REMARK                         _______ _______ _______ _____ _____    ______ ____
ROOT
ATOM      1  O   UNL     1       1.862  11.062  17.986  0.00  0.00    +0.000 OA
ATOM      2  C   UNL     1       1.963   9.858  18.199  0.00  0.00    +0.000 C 
ATOM      3  N   UNL     1       2.938   9.126  17.581  0.00  0.00    +0.000 N 
ATOM      4  C   UNL     1       3.122   7.784  17.753  0.00  0.00    +0.000 A 
ATOM      5  N   UNL     1       2.327   6.954  18.386  0.00  0.00    +0.000 NA
ATOM      6  C   UNL     1       2.859   5.677  18.347  0.00  0.00    +0.000 A 
ATOM      7  C   UNL     1       4.097   5.594  17.733  0.00  0.00    +0.000 A 
ATOM      8  S   UNL     1       4.542   7.128  17.091  0.00  0.00    +0.000 S 
ATOM      9  N   UNL     1       1.178   9.191  19.083  0.00  0.00    +0.000 N 
ATOM     10  H   UNL     1       3.592   9.636  17.006  0.00  0.00    +0.000 HD
ATOM     11  H   UNL     1       1.260   8.178  19.106  0.00  0.00    +0.000 HD
ENDROOT
BRANCH   6  12
ATOM     12  C   UNL     1       2.136   4.550  18.924  0.00  0.00    +0.000 A 
ATOM     13  C   UNL     1       1.651   3.510  18.127  0.00  0.00    +0.000 A 
ATOM     14  C   UNL     1       0.946   2.483  18.734  0.00  0.00    +0.000 A 
ATOM     15  N   UNL     1       0.695   2.424  20.058  0.00  0.00    +0.000 NA
ATOM     16  C   UNL     1       1.161   3.445  20.810  0.00  0.00    +0.000 A 
ATOM     17  C   UNL     1       1.874   4.517  20.297  0.00  0.00    +0.000 A 
ENDBRANCH   6  12
BRANCH   9  18
ATOM     18  CA  UNL     1       0.177   9.796  19.949  0.00  0.00    +0.000 C 
BRANCH  18  19
ATOM     19  C   UNL     1      -0.964  10.359  19.095  0.00  0.00    +0.000 A 
ATOM     20  C   UNL     1      -1.343   9.717  17.896  0.00  0.00    +0.000 A 
ATOM     21  C   UNL     1      -2.369  10.221  17.093  0.00  0.00    +0.000 A 
ATOM     22  C   UNL     1      -3.063  11.360  17.485  0.00  0.00    +0.000 A 
ATOM     23  C   UNL     1      -2.737  11.986  18.684  0.00  0.00    +0.000 A 
ATOM     24  C   UNL     1      -1.703  11.487  19.483  0.00  0.00    +0.000 A 
ENDBRANCH  18  19
BRANCH  18  25
ATOM     25  C   UNL     1       0.889  10.812  20.876  0.00  0.00    +0.000 C 
BRANCH  25  26
ATOM     26  O   UNL     1       0.969  10.344  22.227  0.00  0.00    +0.000 OA
ATOM     27  H   UNL     1       0.935   9.372  22.181  0.00  0.00    +0.000 HD
ENDBRANCH  25  26
ENDBRANCH  18  25
ENDBRANCH   9  18
TORSDOF 5
ENDMDL
MODEL 8
REMARK VINA RESULT:      -6.4      5.655      9.447
REMARK  Name = 
REMARK  5 active torsions:
REMARK  status: ('A' for Active; 'I' for Inactive)
REMARK    1  A    between atoms: C_6  and  C_7
REMARK    2  A    between atoms: N_15  and  CA_16
REMARK    3  A    between atoms: CA_16  and  C_17
REMARK    4  A    between atoms: CA_16  and  C_19
REMARK    5  A    between atoms: C_17  and  O_18
REMARK                            x       y       z     vdW  Elec       q    Type
REMARK                         _______ _______ _______ _____ _____    ______ ____
ROOT
ATOM      1  O   UNL     1      -2.285  10.723  16.403  0.00  0.00    +0.000 OA
ATOM      2  C   UNL     1      -2.917  11.117  17.378  0.00  0.00    +0.000 C 
ATOM      3  N   UNL     1      -4.283  11.161  17.342  0.00  0.00    +0.000 N 
ATOM      4  C   UNL     1      -5.069  11.589  18.375  0.00  0.00    +0.000 A 
ATOM      5  N   UNL     1      -4.669  12.170  19.481  0.00  0.00    +0.000 NA
ATOM      6  C   UNL     1      -5.762  12.450  20.283  0.00  0.00    +0.000 A 
ATOM      7  C   UNL     1      -6.969  12.003  19.776  0.00  0.00    +0.000 A 
ATOM      8  S   UNL     1      -6.738  11.322  18.211  0.00  0.00    +0.000 S 
ATOM      9  N   UNL     1      -2.333  11.471  18.551  0.00  0.00    +0.000 N 
ATOM     10  H   UNL     1      -4.727  10.798  16.513  0.00  0.00    +0.000 HD
ATOM     11  H   UNL     1      -2.929  11.893  19.258  0.00  0.00    +0.000 HD
ENDROOT
BRANCH   6  12
ATOM     12  C   UNL     1      -5.598  13.157  21.546  0.00  0.00    +0.000 A 
ATOM     13  C   UNL     1      -4.450  13.000  22.327  0.00  0.00    +0.000 A 
ATOM     14  C   UNL     1      -4.369  13.678  23.532  0.00  0.00    +0.000 A 
ATOM     15  N   UNL     1      -5.339  14.487  24.005  0.00  0.00    +0.000 NA
ATOM     16  C   UNL     1      -6.446  14.617  23.244  0.00  0.00    +0.000 A 
ATOM     17  C   UNL     1      -6.622  13.980  22.025  0.00  0.00    +0.000 A 
ENDBRANCH   6  12
BRANCH   9  18
ATOM     18  CA  UNL     1      -0.914  11.366  18.853  0.00  0.00    +0.000 C 
BRANCH  18  19
ATOM     19  C   UNL     1      -0.733  10.836  20.279  0.00  0.00    +0.000 A 
ATOM     20  C   UNL     1      -1.184  11.588  21.384  0.00  0.00    +0.000 A 
ATOM     21  C   UNL     1      -1.016  11.132  22.694  0.00  0.00    +0.000 A 
ATOM     22  C   UNL     1      -0.421   9.898  22.929  0.00  0.00    +0.000 A 
ATOM     23  C   UNL     1      -0.007   9.118  21.854  0.00  0.00    +0.000 A 
ATOM     24  C   UNL     1      -0.166   9.579  20.544  0.00  0.00    +0.000 A 
ENDBRANCH  18  19
BRANCH  18  25
ATOM     25  C   UNL     1      -0.252  12.734  18.554  0.00  0.00    +0.000 C 
BRANCH  25  26
ATOM     26  O   UNL     1      -1.164  13.824  18.734  0.00  0.00    +0.000 OA
ATOM     27  H   UNL     1      -1.860  13.710  18.062  0.00  0.00    +0.000 HD
ENDBRANCH  25  26
ENDBRANCH  18  25
ENDBRANCH   9  18
TORSDOF 5
ENDMDL
MODEL 9
REMARK VINA RESULT:      -6.4      3.838      5.614
REMARK  Name = 
REMARK  5 active torsions:
REMARK  status: ('A' for Active; 'I' for Inactive)
REMARK    1  A    between atoms: C_6  and  C_7
REMARK    2  A    between atoms: N_15  and  CA_16
REMARK    3  A    between atoms: CA_16  and  C_17
REMARK    4  A    between atoms: CA_16  and  C_19
REMARK    5  A    between atoms: C_17  and  O_18
REMARK                            x       y       z     vdW  Elec       q    Type
REMARK                         _______ _______ _______ _____ _____    ______ ____
ROOT
ATOM      1  O   UNL     1       1.973   2.589  17.745  0.00  0.00    +0.000 OA
ATOM      2  C   UNL     1       2.920   3.363  17.647  0.00  0.00    +0.000 C 
ATOM      3  N   UNL     1       3.857   3.188  16.668  0.00  0.00    +0.000 N 
ATOM      4  C   UNL     1       4.944   3.995  16.486  0.00  0.00    +0.000 A 
ATOM      5  N   UNL     1       5.361   4.947  17.287  0.00  0.00    +0.000 NA
ATOM      6  C   UNL     1       6.493   5.541  16.755  0.00  0.00    +0.000 A 
ATOM      7  C   UNL     1       6.862   5.054  15.513  0.00  0.00    +0.000 A 
ATOM      8  S   UNL     1       5.835   3.747  15.062  0.00  0.00    +0.000 S 
ATOM      9  N   UNL     1       3.072   4.456  18.439  0.00  0.00    +0.000 N 
ATOM     10  H   UNL     1       3.691   2.441  16.010  0.00  0.00    +0.000 HD
ATOM     11  H   UNL     1       3.944   4.970  18.358  0.00  0.00    +0.000 HD
ENDROOT
BRANCH   6  12
ATOM     12  C   UNL     1       7.196   6.589  17.483  0.00  0.00    +0.000 A 
ATOM     13  C   UNL     1       7.244   7.902  17.007  0.00  0.00    +0.000 A 
ATOM     14  C   UNL     1       7.954   8.845  17.732  0.00  0.00    +0.000 A 
ATOM     15  N   UNL     1       8.610   8.573  18.879  0.00  0.00    +0.000 NA
ATOM     16  C   UNL     1       8.564   7.296  19.316  0.00  0.00    +0.000 A 
ATOM     17  C   UNL     1       7.882   6.282  18.663  0.00  0.00    +0.000 A 
ENDBRANCH   6  12
BRANCH   9  18
ATOM     18  CA  UNL     1       2.124   4.909  19.445  0.00  0.00    +0.000 C 
BRANCH  18  19
ATOM     19  C   UNL     1       1.972   6.431  19.356  0.00  0.00    +0.000 A 
ATOM     20  C   UNL     1       1.569   7.176  20.484  0.00  0.00    +0.000 A 
ATOM     21  C   UNL     1       1.408   8.563  20.422  0.00  0.00    +0.000 A 
ATOM     22  C   UNL     1       1.678   9.242  19.239  0.00  0.00    +0.000 A 
ATOM     23  C   UNL     1       2.120   8.535  18.126  0.00  0.00    +0.000 A 
ATOM     24  C   UNL     1       2.270   7.145  18.185  0.00  0.00    +0.000 A 
ENDBRANCH  18  19
BRANCH  18  25
ATOM     25  C   UNL     1       2.575   4.356  20.820  0.00  0.00    +0.000 C 
BRANCH  25  26
ATOM     26  O   UNL     1       1.758   3.263  21.255  0.00  0.00    +0.000 OA
ATOM     27  H   UNL     1       2.106   2.470  20.809  0.00  0.00    +0.000 HD
ENDBRANCH  25  26
ENDBRANCH  18  25
ENDBRANCH   9  18
TORSDOF 5
ENDMDL
