MODEL 1
REMARK VINA RESULT:      -7.2      0.000      0.000
REMARK  Name = 
REMARK  3 active torsions:
REMARK  status: ('A' for Active; 'I' for Inactive)
REMARK    1  A    between atoms: C_1  and  C_2
REMARK    2  A    between atoms: C_2  and  N_3
REMARK    3  A    between atoms: C_12  and  C_13
REMARK                            x       y       z     vdW  Elec       q    Type
REMARK                         _______ _______ _______ _____ _____    ______ ____
ROOT
ATOM      1  N   UNL     1       6.034   5.834  17.530  0.00  0.00    +0.000 N 
ATOM      2  C   UNL     1       4.930   5.235  18.111  0.00  0.00    +0.000 A 
ATOM      3  C   UNL     1       4.355   5.385  19.384  0.00  0.00    +0.000 A 
ATOM      4  C   UNL     1       3.227   4.618  19.692  0.00  0.00    +0.000 A 
ATOM      5  C   UNL     1       2.685   3.735  18.766  0.00  0.00    +0.000 A 
ATOM      6  C   UNL     1       3.259   3.595  17.501  0.00  0.00    +0.000 A 
ATOM      7  C   UNL     1       4.400   4.353  17.164  0.00  0.00    +0.000 A 
ATOM      8  C   UNL     1       5.216   4.433  15.998  0.00  0.00    +0.000 A 
ATOM      9  C   UNL     1       5.221   3.803  14.744  0.00  0.00    +0.000 A 
ATOM     10  C   UNL     1       6.249   4.130  13.854  0.00  0.00    +0.000 A 
ATOM     11  C   UNL     1       7.210   5.078  14.225  0.00  0.00    +0.000 A 
ATOM     12  N   UNL     1       8.306   5.364  13.407  0.00  0.00    +0.000 N 
ATOM     13  N   UNL     1       7.218   5.715  15.416  0.00  0.00    +0.000 NA
ATOM     14  C   UNL     1       6.222   5.355  16.254  0.00  0.00    +0.000 A 
ATOM     15  H   UNL     1       8.078   5.522  12.432  0.00  0.00    +0.000 HD
ATOM     16  H   UNL     1       8.827   6.132  13.822  0.00  0.00    +0.000 HD
ENDROOT
BRANCH   1  18
ATOM     17  C   UNL     1       7.978   6.140  19.020  0.00  0.00    +0.000 C 
ATOM     18  C   UNL     1       6.902   6.802  18.178  0.00  0.00    +0.000 C 
ENDBRANCH   1  18
BRANCH  10  19
ATOM     19  C   UNL     1       6.286   3.493  12.573  0.00  0.00    +0.000 C 
ATOM     20  N   UNL     1       6.296   2.956  11.546  0.00  0.00    +0.000 NA
ENDBRANCH  10  19
TORSDOF 2
ENDMDL
MODEL 2
REMARK VINA RESULT:      -7.1      1.867      3.381
REMARK  Name = 
REMARK  3 active torsions:
REMARK  status: ('A' for Active; 'I' for Inactive)
REMARK    1  A    between atoms: C_1  and  C_2
REMARK    2  A    between atoms: C_2  and  N_3
REMARK    3  A    between atoms: C_12  and  C_13
REMARK                            x       y       z     vdW  Elec       q    Type
REMARK                         _______ _______ _______ _____ _____    ______ ____
ROOT
ATOM      1  N   UNL     1       2.875   5.808  18.989  0.00  0.00    +0.000 N 
ATOM      2  C   UNL     1       2.214   4.592  18.986  0.00  0.00    +0.000 A 
ATOM      3  C   UNL     1       1.135   4.120  19.753  0.00  0.00    +0.000 A 
ATOM      4  C   UNL     1       0.686   2.814  19.527  0.00  0.00    +0.000 A 
ATOM      5  C   UNL     1       1.285   2.006  18.567  0.00  0.00    +0.000 A 
ATOM      6  C   UNL     1       2.354   2.484  17.805  0.00  0.00    +0.000 A 
ATOM      7  C   UNL     1       2.829   3.796  18.015  0.00  0.00    +0.000 A 
ATOM      8  C   UNL     1       3.883   4.562  17.436  0.00  0.00    +0.000 A 
ATOM      9  C   UNL     1       4.853   4.329  16.450  0.00  0.00    +0.000 A 
ATOM     10  C   UNL     1       5.771   5.352  16.184  0.00  0.00    +0.000 A 
ATOM     11  C   UNL     1       5.677   6.563  16.879  0.00  0.00    +0.000 A 
ATOM     12  N   UNL     1       6.628   7.574  16.715  0.00  0.00    +0.000 N 
ATOM     13  N   UNL     1       4.741   6.822  17.818  0.00  0.00    +0.000 NA
ATOM     14  C   UNL     1       3.889   5.803  18.060  0.00  0.00    +0.000 A 
ATOM     15  H   UNL     1       6.856   7.789  15.751  0.00  0.00    +0.000 HD
ATOM     16  H   UNL     1       6.328   8.389  17.243  0.00  0.00    +0.000 HD
ENDROOT
BRANCH   1  18
ATOM     17  C   UNL     1       1.904   8.073  19.138  0.00  0.00    +0.000 C 
ATOM     18  C   UNL     1       2.575   6.923  19.870  0.00  0.00    +0.000 C 
ENDBRANCH   1  18
BRANCH  10  19
ATOM     19  C   UNL     1       6.779   5.138  15.192  0.00  0.00    +0.000 C 
ATOM     20  N   UNL     1       7.612   4.990  14.400  0.00  0.00    +0.000 NA
ENDBRANCH  10  19
TORSDOF 2
ENDMDL
MODEL 3
REMARK VINA RESULT:      -6.9      2.098      5.254
REMARK  Name = 
REMARK  3 active torsions:
REMARK  status: ('A' for Active; 'I' for Inactive)
REMARK    1  A    between atoms: C_1  and  C_2
REMARK    2  A    between atoms: C_2  and  N_3
REMARK    3  A    between atoms: C_12  and  C_13
REMARK                            x       y       z     vdW  Elec       q    Type
REMARK                         _______ _______ _______ _____ _____    ______ ____
ROOT
ATOM      1  N   UNL     1       6.062   5.514  17.526  0.00  0.00    +0.000 N 
ATOM      2  C   UNL     1       6.272   5.093  16.224  0.00  0.00    +0.000 A 
ATOM      3  C   UNL     1       7.303   5.376  15.313  0.00  0.00    +0.000 A 
ATOM      4  C   UNL     1       7.233   4.803  14.039  0.00  0.00    +0.000 A 
ATOM      5  C   UNL     1       6.177   3.971  13.684  0.00  0.00    +0.000 A 
ATOM      6  C   UNL     1       5.158   3.692  14.597  0.00  0.00    +0.000 A 
ATOM      7  C   UNL     1       5.201   4.260  15.887  0.00  0.00    +0.000 A 
ATOM      8  C   UNL     1       4.337   4.192  17.019  0.00  0.00    +0.000 A 
ATOM      9  C   UNL     1       3.120   3.553  17.302  0.00  0.00    +0.000 A 
ATOM     10  C   UNL     1       2.544   3.775  18.558  0.00  0.00    +0.000 A 
ATOM     11  C   UNL     1       3.200   4.592  19.485  0.00  0.00    +0.000 A 
ATOM     12  N   UNL     1       2.617   4.917  20.713  0.00  0.00    +0.000 N 
ATOM     13  N   UNL     1       4.382   5.203  19.247  0.00  0.00    +0.000 NA
ATOM     14  C   UNL     1       4.893   4.980  18.018  0.00  0.00    +0.000 A 
ATOM     15  H   UNL     1       2.225   4.130  21.217  0.00  0.00    +0.000 HD
ATOM     16  H   UNL     1       3.290   5.446  21.261  0.00  0.00    +0.000 HD
ENDROOT
BRANCH   1  18
ATOM     17  C   UNL     1       7.869   5.684  19.199  0.00  0.00    +0.000 C 
ATOM     18  C   UNL     1       6.924   6.420  18.264  0.00  0.00    +0.000 C 
ENDBRANCH   1  18
BRANCH  10  19
ATOM     19  C   UNL     1       1.297   3.147  18.869  0.00  0.00    +0.000 C 
ATOM     20  N   UNL     1       0.299   2.628  19.148  0.00  0.00    +0.000 NA
ENDBRANCH  10  19
TORSDOF 2
ENDMDL
MODEL 4
REMARK VINA RESULT:      -6.9      3.093      6.170
REMARK  Name = 
REMARK  3 active torsions:
REMARK  status: ('A' for Active; 'I' for Inactive)
REMARK    1  A    between atoms: C_1  and  C_2
REMARK    2  A    between atoms: C_2  and  N_3
REMARK    3  A    between atoms: C_12  and  C_13
REMARK                            x       y       z     vdW  Elec       q    Type
REMARK                         _______ _______ _______ _____ _____    ______ ____
ROOT
ATOM      1  N   UNL     1       4.364   4.437  18.450  0.00  0.00    +0.000 N 
ATOM      2  C   UNL     1       5.025   4.544  17.239  0.00  0.00    +0.000 A 
ATOM      3  C   UNL     1       5.908   3.671  16.582  0.00  0.00    +0.000 A 
ATOM      4  C   UNL     1       6.435   4.069  15.350  0.00  0.00    +0.000 A 
ATOM      5  C   UNL     1       6.092   5.292  14.784  0.00  0.00    +0.000 A 
ATOM      6  C   UNL     1       5.209   6.153  15.441  0.00  0.00    +0.000 A 
ATOM      7  C   UNL     1       4.666   5.778  16.687  0.00  0.00    +0.000 A 
ATOM      8  C   UNL     1       3.776   6.414  17.601  0.00  0.00    +0.000 A 
ATOM      9  C   UNL     1       3.097   7.642  17.633  0.00  0.00    +0.000 A 
ATOM     10  C   UNL     1       2.324   7.929  18.764  0.00  0.00    +0.000 A 
ATOM     11  C   UNL     1       2.232   6.989  19.796  0.00  0.00    +0.000 A 
ATOM     12  N   UNL     1       1.549   7.272  20.983  0.00  0.00    +0.000 N 
ATOM     13  N   UNL     1       2.856   5.791  19.782  0.00  0.00    +0.000 NA
ATOM     14  C   UNL     1       3.609   5.562  18.684  0.00  0.00    +0.000 A 
ATOM     15  H   UNL     1       0.631   7.683  20.856  0.00  0.00    +0.000 HD
ATOM     16  H   UNL     1       1.534   6.433  21.555  0.00  0.00    +0.000 HD
ENDROOT
BRANCH   1  18
ATOM     17  C   UNL     1       3.535   2.180  19.012  0.00  0.00    +0.000 C 
ATOM     18  C   UNL     1       4.476   3.318  19.370  0.00  0.00    +0.000 C 
ENDBRANCH   1  18
BRANCH  10  19
ATOM     19  C   UNL     1       1.632   9.180  18.831  0.00  0.00    +0.000 C 
ATOM     20  N   UNL     1       1.048  10.178  18.901  0.00  0.00    +0.000 NA
ENDBRANCH  10  19
TORSDOF 2
ENDMDL
MODEL 5
REMARK VINA RESULT:      -6.8      3.146      4.760
REMARK  Name = 
REMARK  3 active torsions:
REMARK  status: ('A' for Active; 'I' for Inactive)
REMARK    1  A    between atoms: C_1  and  C_2
REMARK    2  A    between atoms: C_2  and  N_3
REMARK    3  A    between atoms: C_12  and  C_13
REMARK                            x       y       z     vdW  Elec       q    Type
REMARK                         _______ _______ _______ _____ _____    ______ ____
ROOT
ATOM      1  N   UNL     1       2.509   6.220  19.758  0.00  0.00    +0.000 N 
ATOM      2  C   UNL     1       2.005   7.497  19.579  0.00  0.00    +0.000 A 
ATOM      3  C   UNL     1       1.099   8.252  20.341  0.00  0.00    +0.000 A 
ATOM      4  C   UNL     1       0.765   9.533  19.890  0.00  0.00    +0.000 A 
ATOM      5  C   UNL     1       1.317  10.050  18.724  0.00  0.00    +0.000 A 
ATOM      6  C   UNL     1       2.221   9.294  17.974  0.00  0.00    +0.000 A 
ATOM      7  C   UNL     1       2.573   7.997  18.403  0.00  0.00    +0.000 A 
ATOM      8  C   UNL     1       3.428   6.987  17.875  0.00  0.00    +0.000 A 
ATOM      9  C   UNL     1       4.245   6.871  16.741  0.00  0.00    +0.000 A 
ATOM     10  C   UNL     1       4.919   5.660  16.542  0.00  0.00    +0.000 A 
ATOM     11  C   UNL     1       4.779   4.630  17.479  0.00  0.00    +0.000 A 
ATOM     12  N   UNL     1       5.355   3.373  17.273  0.00  0.00    +0.000 N 
ATOM     13  N   UNL     1       4.016   4.721  18.591  0.00  0.00    +0.000 NA
ATOM     14  C   UNL     1       3.367   5.896  18.733  0.00  0.00    +0.000 A 
ATOM     15  H   UNL     1       6.325   3.395  16.981  0.00  0.00    +0.000 HD
ATOM     16  H   UNL     1       5.203   2.808  18.104  0.00  0.00    +0.000 HD
ENDROOT
BRANCH   1  18
ATOM     17  C   UNL     1       1.071   4.340  20.458  0.00  0.00    +0.000 C 
ATOM     18  C   UNL     1       2.158   5.325  20.848  0.00  0.00    +0.000 C 
ENDBRANCH   1  18
BRANCH  10  19
ATOM     19  C   UNL     1       5.748   5.509  15.387  0.00  0.00    +0.000 C 
ATOM     20  N   UNL     1       6.437   5.413  14.460  0.00  0.00    +0.000 NA
ENDBRANCH  10  19
TORSDOF 2
ENDMDL
MODEL 6
REMARK VINA RESULT:      -6.5      3.684      6.462
REMARK  Name = 
REMARK  3 active torsions:
REMARK  status: ('A' for Active; 'I' for Inactive)
REMARK    1  A    between atoms: C_1  and  C_2
REMARK    2  A    between atoms: C_2  and  N_3
REMARK    3  A    between atoms: C_12  and  C_13
REMARK                            x       y       z     vdW  Elec       q    Type
REMARK                         _______ _______ _______ _____ _____    ______ ____
ROOT
ATOM      1  N   UNL     1       3.551   5.707  18.247  0.00  0.00    +0.000 N 
ATOM      2  C   UNL     1       3.363   4.693  19.170  0.00  0.00    +0.000 A 
ATOM      3  C   UNL     1       3.840   3.372  19.208  0.00  0.00    +0.000 A 
ATOM      4  C   UNL     1       3.461   2.564  20.284  0.00  0.00    +0.000 A 
ATOM      5  C   UNL     1       2.640   3.053  21.293  0.00  0.00    +0.000 A 
ATOM      6  C   UNL     1       2.172   4.368  21.251  0.00  0.00    +0.000 A 
ATOM      7  C   UNL     1       2.536   5.204  20.175  0.00  0.00    +0.000 A 
ATOM      8  C   UNL     1       2.226   6.552  19.831  0.00  0.00    +0.000 A 
ATOM      9  C   UNL     1       1.450   7.570  20.406  0.00  0.00    +0.000 A 
ATOM     10  C   UNL     1       1.356   8.786  19.720  0.00  0.00    +0.000 A 
ATOM     11  C   UNL     1       2.049   8.955  18.515  0.00  0.00    +0.000 A 
ATOM     12  N   UNL     1       1.908  10.115  17.749  0.00  0.00    +0.000 N 
ATOM     13  N   UNL     1       2.819   8.000  17.949  0.00  0.00    +0.000 NA
ATOM     14  C   UNL     1       2.866   6.836  18.632  0.00  0.00    +0.000 A 
ATOM     15  H   UNL     1       1.984  10.980  18.272  0.00  0.00    +0.000 HD
ATOM     16  H   UNL     1       2.554  10.067  16.966  0.00  0.00    +0.000 HD
ENDROOT
BRANCH   1  18
ATOM     17  C   UNL     1       5.768   6.034  17.212  0.00  0.00    +0.000 C 
ATOM     18  C   UNL     1       4.326   5.595  17.024  0.00  0.00    +0.000 C 
ENDBRANCH   1  18
BRANCH  10  19
ATOM     19  C   UNL     1       0.561   9.837  20.276  0.00  0.00    +0.000 C 
ATOM     20  N   UNL     1      -0.095  10.668  20.747  0.00  0.00    +0.000 NA
ENDBRANCH  10  19
TORSDOF 2
ENDMDL
MODEL 7
REMARK VINA RESULT:      -6.4      2.325      4.233
REMARK  Name = 
REMARK  3 active torsions:
REMARK  status: ('A' for Active; 'I' for Inactive)
REMARK    1  A    between atoms: C_1  and  C_2
REMARK    2  A    between atoms: C_2  and  N_3
REMARK    3  A    between atoms: C_12  and  C_13
REMARK                            x       y       z     vdW  Elec       q    Type
REMARK                         _______ _______ _______ _____ _____    ______ ____
ROOT
ATOM      1  N   UNL     1       3.651   3.323  18.130  0.00  0.00    +0.000 N 
ATOM      2  C   UNL     1       2.724   3.887  18.989  0.00  0.00    +0.000 A 
ATOM      3  C   UNL     1       1.541   3.373  19.545  0.00  0.00    +0.000 A 
ATOM      4  C   UNL     1       0.792   4.202  20.386  0.00  0.00    +0.000 A 
ATOM      5  C   UNL     1       1.207   5.498  20.670  0.00  0.00    +0.000 A 
ATOM      6  C   UNL     1       2.387   6.001  20.117  0.00  0.00    +0.000 A 
ATOM      7  C   UNL     1       3.160   5.187  19.262  0.00  0.00    +0.000 A 
ATOM      8  C   UNL     1       4.371   5.395  18.541  0.00  0.00    +0.000 A 
ATOM      9  C   UNL     1       5.264   6.466  18.388  0.00  0.00    +0.000 A 
ATOM     10  C   UNL     1       6.355   6.288  17.529  0.00  0.00    +0.000 A 
ATOM     11  C   UNL     1       6.532   5.060  16.882  0.00  0.00    +0.000 A 
ATOM     12  N   UNL     1       7.551   4.870  15.944  0.00  0.00    +0.000 N 
ATOM     13  N   UNL     1       5.701   4.005  17.027  0.00  0.00    +0.000 NA
ATOM     14  C   UNL     1       4.651   4.225  17.847  0.00  0.00    +0.000 A 
ATOM     15  H   UNL     1       8.463   5.199  16.237  0.00  0.00    +0.000 HD
ATOM     16  H   UNL     1       7.552   3.894  15.661  0.00  0.00    +0.000 HD
ENDROOT
BRANCH   1  18
ATOM     17  C   UNL     1       4.018   0.919  18.554  0.00  0.00    +0.000 C 
ATOM     18  C   UNL     1       3.571   1.986  17.570  0.00  0.00    +0.000 C 
ENDBRANCH   1  18
BRANCH  10  19
ATOM     19  C   UNL     1       7.274   7.369  17.343  0.00  0.00    +0.000 C 
ATOM     20  N   UNL     1       8.002   8.261  17.212  0.00  0.00    +0.000 NA
ENDBRANCH  10  19
TORSDOF 2
ENDMDL
MODEL 8
REMARK VINA RESULT:      -6.4      4.034      6.958
REMARK  Name = 
REMARK  3 active torsions:
REMARK  status: ('A' for Active; 'I' for Inactive)
REMARK    1  A    between atoms: C_1  and  C_2
REMARK    2  A    between atoms: C_2  and  N_3
REMARK    3  A    between atoms: C_12  and  C_13
REMARK                            x       y       z     vdW  Elec       q    Type
REMARK                         _______ _______ _______ _____ _____    ______ ____
ROOT
ATOM      1  N   UNL     1       2.829   5.455  19.701  0.00  0.00    +0.000 N 
ATOM      2  C   UNL     1       3.651   5.203  18.616  0.00  0.00    +0.000 A 
ATOM      3  C   UNL     1       4.399   4.068  18.262  0.00  0.00    +0.000 A 
ATOM      4  C   UNL     1       5.159   4.118  17.089  0.00  0.00    +0.000 A 
ATOM      5  C   UNL     1       5.172   5.256  16.291  0.00  0.00    +0.000 A 
ATOM      6  C   UNL     1       4.423   6.379  16.648  0.00  0.00    +0.000 A 
ATOM      7  C   UNL     1       3.650   6.358  17.828  0.00  0.00    +0.000 A 
ATOM      8  C   UNL     1       2.810   7.315  18.468  0.00  0.00    +0.000 A 
ATOM      9  C   UNL     1       2.422   8.635  18.195  0.00  0.00    +0.000 A 
ATOM     10  C   UNL     1       1.588   9.274  19.120  0.00  0.00    +0.000 A 
ATOM     11  C   UNL     1       1.155   8.580  20.255  0.00  0.00    +0.000 A 
ATOM     12  N   UNL     1       0.401   9.208  21.251  0.00  0.00    +0.000 N 
ATOM     13  N   UNL     1       1.495   7.302  20.533  0.00  0.00    +0.000 NA
ATOM     14  C   UNL     1       2.317   6.730  19.627  0.00  0.00    +0.000 A 
ATOM     15  H   UNL     1      -0.378   9.757  20.909  0.00  0.00    +0.000 HD
ATOM     16  H   UNL     1       0.125   8.509  21.936  0.00  0.00    +0.000 HD
ENDROOT
BRANCH   1  18
ATOM     17  C   UNL     1       1.302   3.720  20.567  0.00  0.00    +0.000 C 
ATOM     18  C   UNL     1       2.568   4.528  20.789  0.00  0.00    +0.000 C 
ENDBRANCH   1  18
BRANCH  10  19
ATOM     19  C   UNL     1       1.187  10.625  18.874  0.00  0.00    +0.000 C 
ATOM     20  N   UNL     1       0.861  11.724  18.706  0.00  0.00    +0.000 NA
ENDBRANCH  10  19
TORSDOF 2
ENDMDL
MODEL 9
REMARK VINA RESULT:      -6.3      3.665      6.238
REMARK  Name = 
REMARK  3 active torsions:
REMARK  status: ('A' for Active; 'I' for Inactive)
REMARK    1  A    between atoms: C_1  and  C_2
REMARK    2  A    between atoms: C_2  and  N_3
REMARK    3  A    between atoms: C_12  and  C_13
REMARK                            x       y       z     vdW  Elec       q    Type
REMARK                         _______ _______ _______ _____ _____    ______ ____
ROOT
ATOM      1  N   UNL     1       3.533   6.730  17.809  0.00  0.00    +0.000 N 
ATOM      2  C   UNL     1       2.804   7.856  18.150  0.00  0.00    +0.000 A 
ATOM      3  C   UNL     1       2.777   9.147  17.596  0.00  0.00    +0.000 A 
ATOM      4  C   UNL     1       1.930  10.097  18.177  0.00  0.00    +0.000 A 
ATOM      5  C   UNL     1       1.132   9.773  19.268  0.00  0.00    +0.000 A 
ATOM      6  C   UNL     1       1.162   8.487  19.811  0.00  0.00    +0.000 A 
ATOM      7  C   UNL     1       2.010   7.510  19.247  0.00  0.00    +0.000 A 
ATOM      8  C   UNL     1       2.282   6.147  19.562  0.00  0.00    +0.000 A 
ATOM      9  C   UNL     1       1.833   5.245  20.538  0.00  0.00    +0.000 A 
ATOM     10  C   UNL     1       2.391   3.961  20.545  0.00  0.00    +0.000 A 
ATOM     11  C   UNL     1       3.343   3.616  19.579  0.00  0.00    +0.000 A 
ATOM     12  N   UNL     1       3.994   2.379  19.607  0.00  0.00    +0.000 N 
ATOM     13  N   UNL     1       3.778   4.456  18.616  0.00  0.00    +0.000 NA
ATOM     14  C   UNL     1       3.231   5.690  18.657  0.00  0.00    +0.000 A 
ATOM     15  H   UNL     1       3.383   1.581  19.738  0.00  0.00    +0.000 HD
ATOM     16  H   UNL     1       4.577   2.302  18.778  0.00  0.00    +0.000 HD
ENDROOT
BRANCH   1  18
ATOM     17  C   UNL     1       5.920   6.948  17.217  0.00  0.00    +0.000 C 
ATOM     18  C   UNL     1       4.509   6.657  16.735  0.00  0.00    +0.000 C 
ENDBRANCH   1  18
BRANCH  10  19
ATOM     19  C   UNL     1       1.962   3.025  21.538  0.00  0.00    +0.000 C 
ATOM     20  N   UNL     1       1.588   2.262  22.326  0.00  0.00    +0.000 NA
ENDBRANCH  10  19
TORSDOF 2
ENDMDL
