MODEL 1
REMARK VINA RESULT:      -7.9      0.000      0.000
REMARK  Name = 
REMARK  8 active torsions:
REMARK  status: ('A' for Active; 'I' for Inactive)
REMARK    1  A    between atoms: C_1  and  C_2
REMARK    2  A    between atoms: C_2  and  N_3
REMARK    3  A    between atoms: N_3  and  C_4
REMARK    4  A    between atoms: C_4  and  C_5
REMARK    5  A    between atoms: C_6  and  C_8
REMARK    6  A    between atoms: C_15  and  C_16
REMARK    7  A    between atoms: C_18  and  C_19
REMARK    8  A    between atoms: N_20  and  C_21
REMARK                            x       y       z     vdW  Elec       q    Type
REMARK                         _______ _______ _______ _____ _____    ______ ____
ROOT
ATOM      1  C   UNL     1      -0.103  10.388  18.935  0.00  0.00    +0.000 C 
ATOM      2  C   UNL     1      -0.048   9.676  20.294  0.00  0.00    +0.000 C 
ATOM      3  C   UNL     1       1.360   9.164  20.598  0.00  0.00    +0.000 C 
ATOM      4  N   UNL     1       1.835   8.307  19.515  0.00  0.00    +0.000 N 
ATOM      5  C   UNL     1       2.074   6.969  19.767  0.00  0.00    +0.000 A 
ATOM      6  N   UNL     1       1.447   6.350  20.820  0.00  0.00    +0.000 NA
ATOM      7  N   UNL     1       1.597   4.953  21.199  0.00  0.00    +0.000 NA
ATOM      8  C   UNL     1       2.401   4.072  20.552  0.00  0.00    +0.000 A 
ATOM      9  C   UNL     1       2.441   2.675  21.063  0.00  0.00    +0.000 C 
ATOM     10  C   UNL     1       3.083   4.674  19.477  0.00  0.00    +0.000 A 
ATOM     11  C   UNL     1       4.018   4.081  18.649  0.00  0.00    +0.000 A 
ATOM     12  C   UNL     1       4.643   2.729  18.687  0.00  0.00    +0.000 C 
ATOM     13  N   UNL     1       4.373   5.075  17.738  0.00  0.00    +0.000 N 
ATOM     14  N   UNL     1       3.810   6.276  18.042  0.00  0.00    +0.000 NA
ATOM     15  C   UNL     1       2.959   6.065  19.070  0.00  0.00    +0.000 A 
ATOM     16  C   UNL     1       1.835   8.850  18.168  0.00  0.00    +0.000 C 
ATOM     17  C   UNL     1       0.462   9.458  17.844  0.00  0.00    +0.000 C 
ENDROOT
BRANCH  13  18
ATOM     18  C   UNL     1       5.208   4.982  16.571  0.00  0.00    +0.000 A 
ATOM     19  C   UNL     1       4.770   4.365  15.389  0.00  0.00    +0.000 A 
ATOM     20  C   UNL     1       5.595   4.307  14.261  0.00  0.00    +0.000 A 
ATOM     21  C   UNL     1       6.863   4.876  14.299  0.00  0.00    +0.000 A 
ATOM     22 CL   UNL     1       7.857   4.833  12.896  0.00  0.00    +0.000 Cl
ATOM     23  C   UNL     1       7.316   5.497  15.460  0.00  0.00    +0.000 A 
ATOM     24  C   UNL     1       6.489   5.560  16.591  0.00  0.00    +0.000 A 
ENDBRANCH  13  18
BRANCH   1  26
ATOM     25  N   UNL     1      -0.013  12.829  19.579  0.00  0.00    +0.000 N 
ATOM     26  C   UNL     1       0.646  11.731  19.014  0.00  0.00    +0.000 C 
ATOM     27  O   UNL     1       1.830  11.807  18.677  0.00  0.00    +0.000 OA
BRANCH  25  29
ATOM     28  C   UNL     1       0.690  15.192  19.085  0.00  0.00    +0.000 C 
ATOM     29  C   UNL     1       0.824  13.968  19.980  0.00  0.00    +0.000 C 
ENDBRANCH  25  29
BRANCH  25  30
ATOM     30  C   UNL     1      -1.477  12.899  19.672  0.00  0.00    +0.000 C 
ATOM     31  C   UNL     1      -2.122  12.716  21.039  0.00  0.00    +0.000 C 
ENDBRANCH  25  30
ENDBRANCH   1  26
TORSDOF 4
ENDMDL
MODEL 2
REMARK VINA RESULT:      -7.3      1.232      1.322
REMARK  Name = 
REMARK  8 active torsions:
REMARK  status: ('A' for Active; 'I' for Inactive)
REMARK    1  A    between atoms: C_1  and  C_2
REMARK    2  A    between atoms: C_2  and  N_3
REMARK    3  A    between atoms: N_3  and  C_4
REMARK    4  A    between atoms: C_4  and  C_5
REMARK    5  A    between atoms: C_6  and  C_8
REMARK    6  A    between atoms: C_15  and  C_16
REMARK    7  A    between atoms: C_18  and  C_19
REMARK    8  A    between atoms: N_20  and  C_21
REMARK                            x       y       z     vdW  Elec       q    Type
REMARK                         _______ _______ _______ _____ _____    ______ ____
ROOT
ATOM      1  C   UNL     1       0.269  10.147  19.933  0.00  0.00    +0.000 C 
ATOM      2  C   UNL     1       0.049   9.079  21.014  0.00  0.00    +0.000 C 
ATOM      3  C   UNL     1       1.324   8.276  21.271  0.00  0.00    +0.000 C 
ATOM      4  N   UNL     1       1.821   7.697  20.026  0.00  0.00    +0.000 N 
ATOM      5  C   UNL     1       1.846   6.322  19.883  0.00  0.00    +0.000 A 
ATOM      6  N   UNL     1       1.008   5.542  20.642  0.00  0.00    +0.000 NA
ATOM      7  N   UNL     1       0.922   4.090  20.594  0.00  0.00    +0.000 NA
ATOM      8  C   UNL     1       1.681   3.308  19.785  0.00  0.00    +0.000 A 
ATOM      9  C   UNL     1       1.468   1.838  19.852  0.00  0.00    +0.000 C 
ATOM     10  C   UNL     1       2.573   4.070  19.005  0.00  0.00    +0.000 A 
ATOM     11  C   UNL     1       3.523   3.591  18.122  0.00  0.00    +0.000 A 
ATOM     12  C   UNL     1       3.954   2.200  17.806  0.00  0.00    +0.000 C 
ATOM     13  N   UNL     1       4.123   4.731  17.587  0.00  0.00    +0.000 N 
ATOM     14  N   UNL     1       3.688   5.871  18.189  0.00  0.00    +0.000 NA
ATOM     15  C   UNL     1       2.689   5.520  19.026  0.00  0.00    +0.000 A 
ATOM     16  C   UNL     1       2.071   8.592  18.911  0.00  0.00    +0.000 C 
ATOM     17  C   UNL     1       0.846   9.486  18.666  0.00  0.00    +0.000 C 
ENDROOT
BRANCH  13  18
ATOM     18  C   UNL     1       5.085   4.837  16.525  0.00  0.00    +0.000 A 
ATOM     19  C   UNL     1       4.822   4.362  15.231  0.00  0.00    +0.000 A 
ATOM     20  C   UNL     1       5.768   4.497  14.209  0.00  0.00    +0.000 A 
ATOM     21  C   UNL     1       6.984   5.119  14.468  0.00  0.00    +0.000 A 
ATOM     22 CL   UNL     1       8.127   5.313  13.198  0.00  0.00    +0.000 Cl
ATOM     23  C   UNL     1       7.265   5.601  15.744  0.00  0.00    +0.000 A 
ATOM     24  C   UNL     1       6.316   5.471  16.768  0.00  0.00    +0.000 A 
ENDBRANCH  13  18
BRANCH   1  26
ATOM     25  N   UNL     1       1.138  12.517  19.844  0.00  0.00    +0.000 N 
ATOM     26  C   UNL     1       1.171  11.269  20.478  0.00  0.00    +0.000 C 
ATOM     27  O   UNL     1       1.829  11.098  21.507  0.00  0.00    +0.000 OA
BRANCH  25  29
ATOM     28  C   UNL     1       0.706  14.381  21.476  0.00  0.00    +0.000 C 
ATOM     29  C   UNL     1       1.703  13.651  20.588  0.00  0.00    +0.000 C 
ENDBRANCH  25  29
BRANCH  25  30
ATOM     30  C   UNL     1       0.667  12.679  18.463  0.00  0.00    +0.000 C 
ATOM     31  C   UNL     1      -0.760  13.162  18.240  0.00  0.00    +0.000 C 
ENDBRANCH  25  30
ENDBRANCH   1  26
TORSDOF 4
ENDMDL
MODEL 3
REMARK VINA RESULT:      -6.4      0.635      1.127
REMARK  Name = 
REMARK  8 active torsions:
REMARK  status: ('A' for Active; 'I' for Inactive)
REMARK    1  A    between atoms: C_1  and  C_2
REMARK    2  A    between atoms: C_2  and  N_3
REMARK    3  A    between atoms: N_3  and  C_4
REMARK    4  A    between atoms: C_4  and  C_5
REMARK    5  A    between atoms: C_6  and  C_8
REMARK    6  A    between atoms: C_15  and  C_16
REMARK    7  A    between atoms: C_18  and  C_19
REMARK    8  A    between atoms: N_20  and  C_21
REMARK                            x       y       z     vdW  Elec       q    Type
REMARK                         _______ _______ _______ _____ _____    ______ ____
ROOT
ATOM      1  C   UNL     1      -0.102  10.872  18.808  0.00  0.00    +0.000 C 
ATOM      2  C   UNL     1      -0.054  10.211  20.193  0.00  0.00    +0.000 C 
ATOM      3  C   UNL     1       1.343   9.673  20.504  0.00  0.00    +0.000 C 
ATOM      4  N   UNL     1       1.785   8.763  19.450  0.00  0.00    +0.000 N 
ATOM      5  C   UNL     1       1.990   7.430  19.751  0.00  0.00    +0.000 A 
ATOM      6  N   UNL     1       1.357   6.868  20.832  0.00  0.00    +0.000 NA
ATOM      7  N   UNL     1       1.473   5.483  21.262  0.00  0.00    +0.000 NA
ATOM      8  C   UNL     1       2.248   4.556  20.642  0.00  0.00    +0.000 A 
ATOM      9  C   UNL     1       2.256   3.180  21.205  0.00  0.00    +0.000 C 
ATOM     10  C   UNL     1       2.936   5.099  19.540  0.00  0.00    +0.000 A 
ATOM     11  C   UNL     1       3.847   4.451  18.727  0.00  0.00    +0.000 A 
ATOM     12  C   UNL     1       4.437   3.085  18.812  0.00  0.00    +0.000 C 
ATOM     13  N   UNL     1       4.220   5.400  17.776  0.00  0.00    +0.000 N 
ATOM     14  N   UNL     1       3.691   6.626  18.040  0.00  0.00    +0.000 NA
ATOM     15  C   UNL     1       2.845   6.477  19.081  0.00  0.00    +0.000 A 
ATOM     16  C   UNL     1       1.787   9.255  18.084  0.00  0.00    +0.000 C 
ATOM     17  C   UNL     1       0.428   9.888  17.748  0.00  0.00    +0.000 C 
ENDROOT
BRANCH  13  18
ATOM     18  C   UNL     1       5.041   5.241  16.607  0.00  0.00    +0.000 A 
ATOM     19  C   UNL     1       6.110   6.106  16.325  0.00  0.00    +0.000 A 
ATOM     20  C   UNL     1       6.908   5.916  15.192  0.00  0.00    +0.000 A 
ATOM     21  C   UNL     1       6.651   4.853  14.333  0.00  0.00    +0.000 A 
ATOM     22 CL   UNL     1       7.659   4.605  12.962  0.00  0.00    +0.000 Cl
ATOM     23  C   UNL     1       5.598   3.981  14.597  0.00  0.00    +0.000 A 
ATOM     24  C   UNL     1       4.800   4.166  15.734  0.00  0.00    +0.000 A 
ENDBRANCH  13  18
BRANCH   1  26
ATOM     25  N   UNL     1       0.366  13.142  19.812  0.00  0.00    +0.000 N 
ATOM     26  C   UNL     1       0.682  12.197  18.830  0.00  0.00    +0.000 C 
ATOM     27  O   UNL     1       1.630  12.374  18.061  0.00  0.00    +0.000 OA
BRANCH  25  29
ATOM     28  C   UNL     1       1.765  14.373  21.501  0.00  0.00    +0.000 C 
ATOM     29  C   UNL     1       1.351  14.208  20.046  0.00  0.00    +0.000 C 
ENDBRANCH  25  29
BRANCH  25  30
ATOM     30  C   UNL     1      -0.930  13.147  20.504  0.00  0.00    +0.000 C 
ATOM     31  C   UNL     1      -2.132  13.735  19.777  0.00  0.00    +0.000 C 
ENDBRANCH  25  30
ENDBRANCH   1  26
TORSDOF 4
ENDMDL
MODEL 4
REMARK VINA RESULT:      -6.2      4.585      8.409
REMARK  Name = 
REMARK  8 active torsions:
REMARK  status: ('A' for Active; 'I' for Inactive)
REMARK    1  A    between atoms: C_1  and  C_2
REMARK    2  A    between atoms: C_2  and  N_3
REMARK    3  A    between atoms: N_3  and  C_4
REMARK    4  A    between atoms: C_4  and  C_5
REMARK    5  A    between atoms: C_6  and  C_8
REMARK    6  A    between atoms: C_15  and  C_16
REMARK    7  A    between atoms: C_18  and  C_19
REMARK    8  A    between atoms: N_20  and  C_21
REMARK                            x       y       z     vdW  Elec       q    Type
REMARK                         _______ _______ _______ _____ _____    ______ ____
ROOT
ATOM      1  C   UNL     1      -4.141  14.133  23.601  0.00  0.00    +0.000 C 
ATOM      2  C   UNL     1      -3.923  15.279  22.604  0.00  0.00    +0.000 C 
ATOM      3  C   UNL     1      -3.666  14.749  21.193  0.00  0.00    +0.000 C 
ATOM      4  N   UNL     1      -2.546  13.810  21.198  0.00  0.00    +0.000 N 
ATOM      5  C   UNL     1      -1.392  14.132  20.509  0.00  0.00    +0.000 A 
ATOM      6  N   UNL     1      -1.100  15.447  20.242  0.00  0.00    +0.000 NA
ATOM      7  N   UNL     1       0.076  15.931  19.535  0.00  0.00    +0.000 NA
ATOM      8  C   UNL     1       1.046  15.127  19.031  0.00  0.00    +0.000 A 
ATOM      9  C   UNL     1       2.188  15.780  18.337  0.00  0.00    +0.000 C 
ATOM     10  C   UNL     1       0.772  13.765  19.263  0.00  0.00    +0.000 A 
ATOM     11  C   UNL     1       1.519  12.683  18.835  0.00  0.00    +0.000 A 
ATOM     12  C   UNL     1       2.722  12.607  17.960  0.00  0.00    +0.000 C 
ATOM     13  N   UNL     1       0.851  11.566  19.337  0.00  0.00    +0.000 N 
ATOM     14  N   UNL     1      -0.328  11.895  19.931  0.00  0.00    +0.000 NA
ATOM     15  C   UNL     1      -0.392  13.244  19.963  0.00  0.00    +0.000 A 
ATOM     16  C   UNL     1      -2.615  12.674  22.099  0.00  0.00    +0.000 C 
ATOM     17  C   UNL     1      -2.959  13.148  23.520  0.00  0.00    +0.000 C 
ENDROOT
BRANCH  13  18
ATOM     18  C   UNL     1       1.247  10.184  19.313  0.00  0.00    +0.000 A 
ATOM     19  C   UNL     1       1.747   9.573  18.153  0.00  0.00    +0.000 A 
ATOM     20  C   UNL     1       2.146   8.232  18.163  0.00  0.00    +0.000 A 
ATOM     21  C   UNL     1       2.059   7.490  19.336  0.00  0.00    +0.000 A 
ATOM     22 CL   UNL     1       2.585   5.853  19.348  0.00  0.00    +0.000 Cl
ATOM     23  C   UNL     1       1.570   8.079  20.499  0.00  0.00    +0.000 A 
ATOM     24  C   UNL     1       1.173   9.423  20.493  0.00  0.00    +0.000 A 
ENDBRANCH  13  18
BRANCH   1  26
ATOM     25  N   UNL     1      -6.646  14.250  23.299  0.00  0.00    +0.000 N 
ATOM     26  C   UNL     1      -5.497  13.453  23.333  0.00  0.00    +0.000 C 
ATOM     27  O   UNL     1      -5.549  12.252  23.057  0.00  0.00    +0.000 OA
BRANCH  25  29
ATOM     28  C   UNL     1      -7.916  13.812  21.173  0.00  0.00    +0.000 C 
ATOM     29  C   UNL     1      -7.844  13.659  22.685  0.00  0.00    +0.000 C 
ENDBRANCH  25  29
BRANCH  25  30
ATOM     30  C   UNL     1      -6.701  15.570  23.941  0.00  0.00    +0.000 C 
ATOM     31  C   UNL     1      -7.477  16.678  23.242  0.00  0.00    +0.000 C 
ENDBRANCH  25  30
ENDBRANCH   1  26
TORSDOF 4
ENDMDL
MODEL 5
REMARK VINA RESULT:      -6.0      6.392     10.629
REMARK  Name = 
REMARK  8 active torsions:
REMARK  status: ('A' for Active; 'I' for Inactive)
REMARK    1  A    between atoms: C_1  and  C_2
REMARK    2  A    between atoms: C_2  and  N_3
REMARK    3  A    between atoms: N_3  and  C_4
REMARK    4  A    between atoms: C_4  and  C_5
REMARK    5  A    between atoms: C_6  and  C_8
REMARK    6  A    between atoms: C_15  and  C_16
REMARK    7  A    between atoms: C_18  and  C_19
REMARK    8  A    between atoms: N_20  and  C_21
REMARK                            x       y       z     vdW  Elec       q    Type
REMARK                         _______ _______ _______ _____ _____    ______ ____
ROOT
ATOM      1  C   UNL     1       7.783  15.605  18.092  0.00  0.00    +0.000 C 
ATOM      2  C   UNL     1       7.080  16.962  18.244  0.00  0.00    +0.000 C 
ATOM      3  C   UNL     1       6.082  16.946  19.402  0.00  0.00    +0.000 C 
ATOM      4  N   UNL     1       5.127  15.854  19.236  0.00  0.00    +0.000 N 
ATOM      5  C   UNL     1       3.792  16.149  19.037  0.00  0.00    +0.000 A 
ATOM      6  N   UNL     1       3.431  17.373  18.531  0.00  0.00    +0.000 NA
ATOM      7  N   UNL     1       2.070  17.817  18.265  0.00  0.00    +0.000 NA
ATOM      8  C   UNL     1       0.965  17.066  18.500  0.00  0.00    +0.000 A 
ATOM      9  C   UNL     1      -0.356  17.665  18.170  0.00  0.00    +0.000 C 
ATOM     10  C   UNL     1       1.290  15.808  19.044  0.00  0.00    +0.000 A 
ATOM     11  C   UNL     1       0.408  14.825  19.451  0.00  0.00    +0.000 A 
ATOM     12  C   UNL     1      -1.079  14.818  19.538  0.00  0.00    +0.000 C 
ATOM     13  N   UNL     1       1.216  13.775  19.885  0.00  0.00    +0.000 N 
ATOM     14  N   UNL     1       2.535  14.109  19.891  0.00  0.00    +0.000 NA
ATOM     15  C   UNL     1       2.636  15.330  19.324  0.00  0.00    +0.000 A 
ATOM     16  C   UNL     1       5.652  14.509  19.076  0.00  0.00    +0.000 C 
ATOM     17  C   UNL     1       6.727  14.488  17.978  0.00  0.00    +0.000 C 
ENDROOT
BRANCH  13  18
ATOM     18  C   UNL     1       0.840  12.448  20.293  0.00  0.00    +0.000 A 
ATOM     19  C   UNL     1       0.198  12.199  21.516  0.00  0.00    +0.000 A 
ATOM     20  C   UNL     1      -0.176  10.901  21.880  0.00  0.00    +0.000 A 
ATOM     21  C   UNL     1       0.078   9.839  21.019  0.00  0.00    +0.000 A 
ATOM     22 CL   UNL     1      -0.417   8.252  21.458  0.00  0.00    +0.000 Cl
ATOM     23  C   UNL     1       0.711  10.065  19.799  0.00  0.00    +0.000 A 
ATOM     24  C   UNL     1       1.083  11.365  19.431  0.00  0.00    +0.000 A 
ENDBRANCH  13  18
BRANCH   1  26
ATOM     25  N   UNL     1       9.990  14.778  18.999  0.00  0.00    +0.000 N 
ATOM     26  C   UNL     1       8.756  15.382  19.264  0.00  0.00    +0.000 C 
ATOM     27  O   UNL     1       8.491  15.817  20.387  0.00  0.00    +0.000 OA
BRANCH  25  29
ATOM     28  C   UNL     1      12.232  15.741  19.605  0.00  0.00    +0.000 C 
ATOM     29  C   UNL     1      11.028  14.914  20.030  0.00  0.00    +0.000 C 
ENDBRANCH  25  29
BRANCH  25  30
ATOM     30  C   UNL     1      10.215  13.952  17.806  0.00  0.00    +0.000 C 
ATOM     31  C   UNL     1      10.085  12.441  17.941  0.00  0.00    +0.000 C 
ENDBRANCH  25  30
ENDBRANCH   1  26
TORSDOF 4
ENDMDL
MODEL 6
REMARK VINA RESULT:      -6.0      8.045      9.115
REMARK  Name = 
REMARK  8 active torsions:
REMARK  status: ('A' for Active; 'I' for Inactive)
REMARK    1  A    between atoms: C_1  and  C_2
REMARK    2  A    between atoms: C_2  and  N_3
REMARK    3  A    between atoms: N_3  and  C_4
REMARK    4  A    between atoms: C_4  and  C_5
REMARK    5  A    between atoms: C_6  and  C_8
REMARK    6  A    between atoms: C_15  and  C_16
REMARK    7  A    between atoms: C_18  and  C_19
REMARK    8  A    between atoms: N_20  and  C_21
REMARK                            x       y       z     vdW  Elec       q    Type
REMARK                         _______ _______ _______ _____ _____    ______ ____
ROOT
ATOM      1  C   UNL     1       1.618  15.469  19.697  0.00  0.00    +0.000 C 
ATOM      2  C   UNL     1       1.583  16.187  21.054  0.00  0.00    +0.000 C 
ATOM      3  C   UNL     1       2.954  16.760  21.416  0.00  0.00    +0.000 C 
ATOM      4  N   UNL     1       3.969  15.710  21.380  0.00  0.00    +0.000 N 
ATOM      5  C   UNL     1       4.611  15.352  22.550  0.00  0.00    +0.000 A 
ATOM      6  N   UNL     1       4.010  15.594  23.761  0.00  0.00    +0.000 NA
ATOM      7  N   UNL     1       4.563  15.266  25.067  0.00  0.00    +0.000 NA
ATOM      8  C   UNL     1       5.771  14.678  25.256  0.00  0.00    +0.000 A 
ATOM      9  C   UNL     1       6.190  14.406  26.657  0.00  0.00    +0.000 C 
ATOM     10  C   UNL     1       6.433  14.433  24.038  0.00  0.00    +0.000 A 
ATOM     11  C   UNL     1       7.698  13.901  23.871  0.00  0.00    +0.000 A 
ATOM     12  C   UNL     1       8.745  13.534  24.865  0.00  0.00    +0.000 C 
ATOM     13  N   UNL     1       7.881  13.836  22.490  0.00  0.00    +0.000 N 
ATOM     14  N   UNL     1       6.858  14.419  21.808  0.00  0.00    +0.000 NA
ATOM     15  C   UNL     1       5.913  14.747  22.715  0.00  0.00    +0.000 A 
ATOM     16  C   UNL     1       4.113  14.944  20.156  0.00  0.00    +0.000 C 
ATOM     17  C   UNL     1       2.743  14.416  19.699  0.00  0.00    +0.000 C 
ENDROOT
BRANCH  13  18
ATOM     18  C   UNL     1       8.958  13.247  21.743  0.00  0.00    +0.000 A 
ATOM     19  C   UNL     1       8.994  11.877  21.442  0.00  0.00    +0.000 A 
ATOM     20  C   UNL     1      10.044  11.332  20.695  0.00  0.00    +0.000 A 
ATOM     21  C   UNL     1      11.065  12.154  20.232  0.00  0.00    +0.000 A 
ATOM     22 CL   UNL     1      12.333  11.483  19.284  0.00  0.00    +0.000 Cl
ATOM     23  C   UNL     1      11.047  13.517  20.516  0.00  0.00    +0.000 A 
ATOM     24  C   UNL     1       9.994  14.066  21.261  0.00  0.00    +0.000 A 
ENDBRANCH  13  18
BRANCH   1  26
ATOM     25  N   UNL     1       0.668  17.286  18.222  0.00  0.00    +0.000 N 
ATOM     26  C   UNL     1       1.773  16.497  18.561  0.00  0.00    +0.000 C 
ATOM     27  O   UNL     1       2.873  16.686  18.035  0.00  0.00    +0.000 OA
BRANCH  25  29
ATOM     28  C   UNL     1       0.111  18.587  16.143  0.00  0.00    +0.000 C 
ATOM     29  C   UNL     1       0.935  18.488  17.418  0.00  0.00    +0.000 C 
ENDBRANCH  25  29
BRANCH  25  30
ATOM     30  C   UNL     1      -0.707  16.888  18.549  0.00  0.00    +0.000 C 
ATOM     31  C   UNL     1      -1.547  17.831  19.399  0.00  0.00    +0.000 C 
ENDBRANCH  25  30
ENDBRANCH   1  26
TORSDOF 4
ENDMDL
MODEL 7
REMARK VINA RESULT:      -5.9      6.224     10.479
REMARK  Name = 
REMARK  8 active torsions:
REMARK  status: ('A' for Active; 'I' for Inactive)
REMARK    1  A    between atoms: C_1  and  C_2
REMARK    2  A    between atoms: C_2  and  N_3
REMARK    3  A    between atoms: N_3  and  C_4
REMARK    4  A    between atoms: C_4  and  C_5
REMARK    5  A    between atoms: C_6  and  C_8
REMARK    6  A    between atoms: C_15  and  C_16
REMARK    7  A    between atoms: C_18  and  C_19
REMARK    8  A    between atoms: N_20  and  C_21
REMARK                            x       y       z     vdW  Elec       q    Type
REMARK                         _______ _______ _______ _____ _____    ______ ____
ROOT
ATOM      1  C   UNL     1       8.183  14.890  17.802  0.00  0.00    +0.000 C 
ATOM      2  C   UNL     1       7.606  16.306  17.935  0.00  0.00    +0.000 C 
ATOM      3  C   UNL     1       6.611  16.396  19.093  0.00  0.00    +0.000 C 
ATOM      4  N   UNL     1       5.561  15.392  18.941  0.00  0.00    +0.000 N 
ATOM      5  C   UNL     1       4.258  15.803  18.738  0.00  0.00    +0.000 A 
ATOM      6  N   UNL     1       4.008  17.048  18.214  0.00  0.00    +0.000 NA
ATOM      7  N   UNL     1       2.693  17.609  17.942  0.00  0.00    +0.000 NA
ATOM      8  C   UNL     1       1.525  16.963  18.187  0.00  0.00    +0.000 A 
ATOM      9  C   UNL     1       0.263  17.675  17.848  0.00  0.00    +0.000 C 
ATOM     10  C   UNL     1       1.736  15.689  18.748  0.00  0.00    +0.000 A 
ATOM     11  C   UNL     1       0.769  14.795  19.169  0.00  0.00    +0.000 A 
ATOM     12  C   UNL     1      -0.713  14.924  19.255  0.00  0.00    +0.000 C 
ATOM     13  N   UNL     1       1.479  13.682  19.617  0.00  0.00    +0.000 N 
ATOM     14  N   UNL     1       2.823  13.897  19.619  0.00  0.00    +0.000 NA
ATOM     15  C   UNL     1       3.033  15.096  19.035  0.00  0.00    +0.000 A 
ATOM     16  C   UNL     1       5.963  14.004  18.800  0.00  0.00    +0.000 C 
ATOM     17  C   UNL     1       7.031  13.871  17.703  0.00  0.00    +0.000 C 
ENDROOT
BRANCH  13  18
ATOM     18  C   UNL     1       0.986  12.401  20.043  0.00  0.00    +0.000 A 
ATOM     19  C   UNL     1       1.072  11.262  19.229  0.00  0.00    +0.000 A 
ATOM     20  C   UNL     1       0.603  10.022  19.676  0.00  0.00    +0.000 A 
ATOM     21  C   UNL     1       0.054   9.906  20.948  0.00  0.00    +0.000 A 
ATOM     22 CL   UNL     1      -0.486   8.371  21.504  0.00  0.00    +0.000 Cl
ATOM     23  C   UNL     1      -0.037  11.023  21.775  0.00  0.00    +0.000 A 
ATOM     24  C   UNL     1       0.436  12.265  21.330  0.00  0.00    +0.000 A 
ENDBRANCH  13  18
BRANCH   1  26
ATOM     25  N   UNL     1       9.823  13.378  18.988  0.00  0.00    +0.000 N 
ATOM     26  C   UNL     1       9.133  14.596  18.977  0.00  0.00    +0.000 C 
ATOM     27  O   UNL     1       9.353  15.457  19.833  0.00  0.00    +0.000 OA
BRANCH  25  29
ATOM     28  C   UNL     1      12.318  13.142  19.188  0.00  0.00    +0.000 C 
ATOM     29  C   UNL     1      10.977  13.279  19.893  0.00  0.00    +0.000 C 
ENDBRANCH  25  29
BRANCH  25  30
ATOM     30  C   UNL     1       9.362  12.212  18.223  0.00  0.00    +0.000 C 
ATOM     31  C   UNL     1       9.355  10.855  18.913  0.00  0.00    +0.000 C 
ENDBRANCH  25  30
ENDBRANCH   1  26
TORSDOF 4
ENDMDL
MODEL 8
REMARK VINA RESULT:      -5.8      6.653      9.415
REMARK  Name = 
REMARK  8 active torsions:
REMARK  status: ('A' for Active; 'I' for Inactive)
REMARK    1  A    between atoms: C_1  and  C_2
REMARK    2  A    between atoms: C_2  and  N_3
REMARK    3  A    between atoms: N_3  and  C_4
REMARK    4  A    between atoms: C_4  and  C_5
REMARK    5  A    between atoms: C_6  and  C_8
REMARK    6  A    between atoms: C_15  and  C_16
REMARK    7  A    between atoms: C_18  and  C_19
REMARK    8  A    between atoms: N_20  and  C_21
REMARK                            x       y       z     vdW  Elec       q    Type
REMARK                         _______ _______ _______ _____ _____    ______ ____
ROOT
ATOM      1  C   UNL     1       5.304  16.084  18.838  0.00  0.00    +0.000 C 
ATOM      2  C   UNL     1       5.136  16.114  20.363  0.00  0.00    +0.000 C 
ATOM      3  C   UNL     1       4.557  14.799  20.886  0.00  0.00    +0.000 C 
ATOM      4  N   UNL     1       3.302  14.488  20.205  0.00  0.00    +0.000 N 
ATOM      5  C   UNL     1       2.129  14.459  20.934  0.00  0.00    +0.000 A 
ATOM      6  N   UNL     1       2.040  15.154  22.115  0.00  0.00    +0.000 NA
ATOM      7  N   UNL     1       0.871  15.219  22.980  0.00  0.00    +0.000 NA
ATOM      8  C   UNL     1      -0.298  14.578  22.728  0.00  0.00    +0.000 A 
ATOM      9  C   UNL     1      -1.401  14.749  23.711  0.00  0.00    +0.000 C 
ATOM     10  C   UNL     1      -0.242  13.832  21.535  0.00  0.00    +0.000 A 
ATOM     11  C   UNL     1      -1.233  13.021  21.014  0.00  0.00    +0.000 A 
ATOM     12  C   UNL     1      -2.557  12.616  21.564  0.00  0.00    +0.000 C 
ATOM     13  N   UNL     1      -0.706  12.533  19.819  0.00  0.00    +0.000 N 
ATOM     14  N   UNL     1       0.595  12.892  19.645  0.00  0.00    +0.000 NA
ATOM     15  C   UNL     1       0.907  13.743  20.646  0.00  0.00    +0.000 A 
ATOM     16  C   UNL     1       3.311  14.431  18.755  0.00  0.00    +0.000 C 
ATOM     17  C   UNL     1       3.965  15.697  18.179  0.00  0.00    +0.000 C 
ENDROOT
BRANCH  13  18
ATOM     18  C   UNL     1      -1.345  11.748  18.798  0.00  0.00    +0.000 A 
ATOM     19  C   UNL     1      -2.579  12.115  18.239  0.00  0.00    +0.000 A 
ATOM     20  C   UNL     1      -3.169  11.344  17.231  0.00  0.00    +0.000 A 
ATOM     21  C   UNL     1      -2.526  10.204  16.764  0.00  0.00    +0.000 A 
ATOM     22 CL   UNL     1      -3.241   9.283  15.500  0.00  0.00    +0.000 Cl
ATOM     23  C   UNL     1      -1.299   9.824  17.301  0.00  0.00    +0.000 A 
ATOM     24  C   UNL     1      -0.704  10.596  18.308  0.00  0.00    +0.000 A 
ENDBRANCH  13  18
BRANCH   1  26
ATOM     25  N   UNL     1       7.715  15.353  19.006  0.00  0.00    +0.000 N 
ATOM     26  C   UNL     1       6.450  15.131  18.452  0.00  0.00    +0.000 C 
ATOM     27  O   UNL     1       6.229  14.140  17.752  0.00  0.00    +0.000 OA
BRANCH  25  29
ATOM     28  C   UNL     1       9.766  14.429  17.881  0.00  0.00    +0.000 C 
ATOM     29  C   UNL     1       8.676  14.244  18.927  0.00  0.00    +0.000 C 
ENDBRANCH  25  29
BRANCH  25  30
ATOM     30  C   UNL     1       8.115  16.661  19.542  0.00  0.00    +0.000 C 
ATOM     31  C   UNL     1       8.548  17.740  18.559  0.00  0.00    +0.000 C 
ENDBRANCH  25  30
ENDBRANCH   1  26
TORSDOF 4
ENDMDL
MODEL 9
REMARK VINA RESULT:      -5.7      6.427     10.707
REMARK  Name = 
REMARK  8 active torsions:
REMARK  status: ('A' for Active; 'I' for Inactive)
REMARK    1  A    between atoms: C_1  and  C_2
REMARK    2  A    between atoms: C_2  and  N_3
REMARK    3  A    between atoms: N_3  and  C_4
REMARK    4  A    between atoms: C_4  and  C_5
REMARK    5  A    between atoms: C_6  and  C_8
REMARK    6  A    between atoms: C_15  and  C_16
REMARK    7  A    between atoms: C_18  and  C_19
REMARK    8  A    between atoms: N_20  and  C_21
REMARK                            x       y       z     vdW  Elec       q    Type
REMARK                         _______ _______ _______ _____ _____    ______ ____
ROOT
ATOM      1  C   UNL     1       7.806  15.690  17.961  0.00  0.00    +0.000 C 
ATOM      2  C   UNL     1       7.070  17.033  18.060  0.00  0.00    +0.000 C 
ATOM      3  C   UNL     1       6.061  17.032  19.209  0.00  0.00    +0.000 C 
ATOM      4  N   UNL     1       5.134  15.911  19.071  0.00  0.00    +0.000 N 
ATOM      5  C   UNL     1       3.794  16.167  18.850  0.00  0.00    +0.000 A 
ATOM      6  N   UNL     1       3.408  17.364  18.299  0.00  0.00    +0.000 NA
ATOM      7  N   UNL     1       2.041  17.766  18.006  0.00  0.00    +0.000 NA
ATOM      8  C   UNL     1       0.951  16.996  18.256  0.00  0.00    +0.000 A 
ATOM      9  C   UNL     1      -0.380  17.551  17.893  0.00  0.00    +0.000 C 
ATOM     10  C   UNL     1       1.301  15.765  18.844  0.00  0.00    +0.000 A 
ATOM     11  C   UNL     1       0.439  14.775  19.277  0.00  0.00    +0.000 A 
ATOM     12  C   UNL     1      -1.049  14.735  19.350  0.00  0.00    +0.000 C 
ATOM     13  N   UNL     1       1.268  13.760  19.753  0.00  0.00    +0.000 N 
ATOM     14  N   UNL     1       2.578  14.127  19.760  0.00  0.00    +0.000 NA
ATOM     15  C   UNL     1       2.655  15.330  19.153  0.00  0.00    +0.000 A 
ATOM     16  C   UNL     1       5.693  14.576  18.962  0.00  0.00    +0.000 C 
ATOM     17  C   UNL     1       6.779  14.544  17.875  0.00  0.00    +0.000 C 
ENDROOT
BRANCH  13  18
ATOM     18  C   UNL     1       0.920  12.439  20.203  0.00  0.00    +0.000 A 
ATOM     19  C   UNL     1       0.340  12.209  21.459  0.00  0.00    +0.000 A 
ATOM     20  C   UNL     1      -0.009  10.915  21.863  0.00  0.00    +0.000 A 
ATOM     21  C   UNL     1       0.210   9.840  21.010  0.00  0.00    +0.000 A 
ATOM     22 CL   UNL     1      -0.255   8.258  21.500  0.00  0.00    +0.000 Cl
ATOM     23  C   UNL     1       0.781  10.047  19.757  0.00  0.00    +0.000 A 
ATOM     24  C   UNL     1       1.127  11.342  19.348  0.00  0.00    +0.000 A 
ENDBRANCH  13  18
BRANCH   1  26
ATOM     25  N   UNL     1       9.911  16.342  19.195  0.00  0.00    +0.000 N 
ATOM     26  C   UNL     1       8.773  15.530  19.149  0.00  0.00    +0.000 C 
ATOM     27  O   UNL     1       8.494  14.775  20.083  0.00  0.00    +0.000 OA
BRANCH  25  29
ATOM     28  C   UNL     1      12.031  15.915  20.478  0.00  0.00    +0.000 C 
ATOM     29  C   UNL     1      10.603  16.439  20.488  0.00  0.00    +0.000 C 
ENDBRANCH  25  29
BRANCH  25  30
ATOM     30  C   UNL     1      10.464  16.982  17.994  0.00  0.00    +0.000 C 
ATOM     31  C   UNL     1      11.229  16.115  17.003  0.00  0.00    +0.000 C 
ENDBRANCH  25  30
ENDBRANCH   1  26
TORSDOF 4
ENDMDL
