MODEL 1
REMARK VINA RESULT:      -8.0      0.000      0.000
REMARK  Name = 
REMARK  5 active torsions:
REMARK  status: ('A' for Active; 'I' for Inactive)
REMARK    1  A    between atoms: C_2  and  C_18
REMARK    2  A    between atoms: N_3  and  C_4
REMARK    3  A    between atoms: C_7  and  S_8
REMARK    4  A    between atoms: S_8  and  N_11
REMARK    5  A    between atoms: C_21  and  N_22
REMARK                            x       y       z     vdW  Elec       q    Type
REMARK                         _______ _______ _______ _____ _____    ______ ____
ROOT
ATOM      1  O   UNL     1       1.771   8.103  18.935  0.00  0.00    +0.000 OA
ATOM      2  C   UNL     1       1.900   7.431  19.954  0.00  0.00    +0.000 C 
ATOM      3  N   UNL     1       1.460   7.785  21.218  0.00  0.00    +0.000 N 
ATOM      4  H   UNL     1       1.715   7.171  21.983  0.00  0.00    +0.000 HD
ENDROOT
BRANCH   2   5
ATOM      5  C   UNL     1       2.580   6.105  19.806  0.00  0.00    +0.000 A 
ATOM      6  C   UNL     1       2.135   5.092  20.680  0.00  0.00    +0.000 A 
ATOM      7  C   UNL     1       2.653   3.795  20.613  0.00  0.00    +0.000 A 
ATOM      8  C   UNL     1       3.628   3.500  19.656  0.00  0.00    +0.000 A 
ATOM      9  C   UNL     1       4.088   4.492  18.782  0.00  0.00    +0.000 A 
ATOM     10  C   UNL     1       3.565   5.792  18.857  0.00  0.00    +0.000 A 
ATOM     11 CL   UNL     1       4.174   6.921  17.697  0.00  0.00    +0.000 Cl
BRANCH   8  12
ATOM     12  N   UNL     1       4.163   2.136  19.558  0.00  0.00    +0.000 N 
ATOM     13  O   UNL     1       5.041   1.802  20.364  0.00  0.00    +0.000 OA
ATOM     14  O   UNL     1       3.704   1.404  18.669  0.00  0.00    +0.000 OA
ENDBRANCH   8  12
ENDBRANCH   2   5
BRANCH   3  15
ATOM     15  C   UNL     1       0.816   8.985  21.584  0.00  0.00    +0.000 A 
ATOM     16  C   UNL     1      -0.053   9.099  22.674  0.00  0.00    +0.000 A 
ATOM     17  C   UNL     1      -0.698  10.312  22.949  0.00  0.00    +0.000 A 
ATOM     18  C   UNL     1      -0.465  11.420  22.135  0.00  0.00    +0.000 A 
ATOM     19  C   UNL     1       0.423  11.332  21.064  0.00  0.00    +0.000 A 
ATOM     20  C   UNL     1       1.061  10.113  20.789  0.00  0.00    +0.000 A 
BRANCH  18  21
ATOM     21  S   UNL     1      -1.384  12.916  22.393  0.00  0.00    +0.000 S 
ATOM     22  O   UNL     1      -0.979  13.443  23.680  0.00  0.00    +0.000 OA
ATOM     23  O   UNL     1      -1.283  13.722  21.193  0.00  0.00    +0.000 OA
BRANCH  21  24
ATOM     24  N   UNL     1      -3.011  12.411  22.531  0.00  0.00    +0.000 NA
ATOM     25  C   UNL     1      -4.002  13.049  21.633  0.00  0.00    +0.000 C 
ATOM     26  C   UNL     1      -4.612  14.166  22.455  0.00  0.00    +0.000 C 
ATOM     27  C   UNL     1      -4.681  13.580  23.851  0.00  0.00    +0.000 C 
ATOM     28  C   UNL     1      -3.552  12.553  23.921  0.00  0.00    +0.000 C 
ENDBRANCH  21  24
ENDBRANCH  18  21
ENDBRANCH   3  15
TORSDOF 5
ENDMDL
MODEL 2
REMARK VINA RESULT:      -7.9      2.729      3.345
REMARK  Name = 
REMARK  5 active torsions:
REMARK  status: ('A' for Active; 'I' for Inactive)
REMARK    1  A    between atoms: C_2  and  C_18
REMARK    2  A    between atoms: N_3  and  C_4
REMARK    3  A    between atoms: C_7  and  S_8
REMARK    4  A    between atoms: S_8  and  N_11
REMARK    5  A    between atoms: C_21  and  N_22
REMARK                            x       y       z     vdW  Elec       q    Type
REMARK                         _______ _______ _______ _____ _____    ______ ____
ROOT
ATOM      1  O   UNL     1       2.304   6.956  19.838  0.00  0.00    +0.000 OA
ATOM      2  C   UNL     1       2.530   7.310  18.685  0.00  0.00    +0.000 C 
ATOM      3  N   UNL     1       2.001   8.427  18.062  0.00  0.00    +0.000 N 
ATOM      4  H   UNL     1       2.207   8.547  17.077  0.00  0.00    +0.000 HD
ENDROOT
BRANCH   2   5
ATOM      5  C   UNL     1       3.475   6.462  17.891  0.00  0.00    +0.000 A 
ATOM      6  C   UNL     1       4.636   7.113  17.427  0.00  0.00    +0.000 A 
ATOM      7  C   UNL     1       5.623   6.424  16.716  0.00  0.00    +0.000 A 
ATOM      8  C   UNL     1       5.454   5.059  16.467  0.00  0.00    +0.000 A 
ATOM      9  C   UNL     1       4.306   4.393  16.913  0.00  0.00    +0.000 A 
ATOM     10  C   UNL     1       3.319   5.093  17.624  0.00  0.00    +0.000 A 
ATOM     11 CL   UNL     1       1.970   4.157  18.166  0.00  0.00    +0.000 Cl
BRANCH   8  12
ATOM     12  N   UNL     1       6.493   4.316  15.743  0.00  0.00    +0.000 N 
ATOM     13  O   UNL     1       7.666   4.457  16.114  0.00  0.00    +0.000 OA
ATOM     14  O   UNL     1       6.130   3.596  14.802  0.00  0.00    +0.000 OA
ENDBRANCH   8  12
ENDBRANCH   2   5
BRANCH   3  15
ATOM     15  C   UNL     1       1.085   9.347  18.614  0.00  0.00    +0.000 A 
ATOM     16  C   UNL     1      -0.052   9.809  17.941  0.00  0.00    +0.000 A 
ATOM     17  C   UNL     1      -0.892  10.762  18.531  0.00  0.00    +0.000 A 
ATOM     18  C   UNL     1      -0.600  11.249  19.805  0.00  0.00    +0.000 A 
ATOM     19  C   UNL     1       0.511  10.775  20.501  0.00  0.00    +0.000 A 
ATOM     20  C   UNL     1       1.353   9.826  19.904  0.00  0.00    +0.000 A 
BRANCH  18  21
ATOM     21  S   UNL     1      -1.579  12.557  20.499  0.00  0.00    +0.000 S 
ATOM     22  O   UNL     1      -1.061  13.799  19.965  0.00  0.00    +0.000 OA
ATOM     23  O   UNL     1      -2.976  12.206  20.347  0.00  0.00    +0.000 OA
BRANCH  21  24
ATOM     24  N   UNL     1      -1.225  12.527  22.171  0.00  0.00    +0.000 NA
ATOM     25  C   UNL     1      -2.188  11.837  23.060  0.00  0.00    +0.000 C 
ATOM     26  C   UNL     1      -3.084  12.937  23.593  0.00  0.00    +0.000 C 
ATOM     27  C   UNL     1      -2.137  14.107  23.774  0.00  0.00    +0.000 C 
ATOM     28  C   UNL     1      -1.022  13.893  22.751  0.00  0.00    +0.000 C 
ENDBRANCH  21  24
ENDBRANCH  18  21
ENDBRANCH   3  15
TORSDOF 5
ENDMDL
MODEL 3
REMARK VINA RESULT:      -7.9      2.873      3.440
REMARK  Name = 
REMARK  5 active torsions:
REMARK  status: ('A' for Active; 'I' for Inactive)
REMARK    1  A    between atoms: C_2  and  C_18
REMARK    2  A    between atoms: N_3  and  C_4
REMARK    3  A    between atoms: C_7  and  S_8
REMARK    4  A    between atoms: S_8  and  N_11
REMARK    5  A    between atoms: C_21  and  N_22
REMARK                            x       y       z     vdW  Elec       q    Type
REMARK                         _______ _______ _______ _____ _____    ______ ____
ROOT
ATOM      1  O   UNL     1       2.112   7.303  19.667  0.00  0.00    +0.000 OA
ATOM      2  C   UNL     1       2.453   7.635  18.535  0.00  0.00    +0.000 C 
ATOM      3  N   UNL     1       2.070   8.794  17.882  0.00  0.00    +0.000 N 
ATOM      4  H   UNL     1       2.357   8.894  16.915  0.00  0.00    +0.000 HD
ENDROOT
BRANCH   2   5
ATOM      5  C   UNL     1       3.377   6.707  17.809  0.00  0.00    +0.000 A 
ATOM      6  C   UNL     1       4.553   7.294  17.299  0.00  0.00    +0.000 A 
ATOM      7  C   UNL     1       5.522   6.530  16.643  0.00  0.00    +0.000 A 
ATOM      8  C   UNL     1       5.320   5.155  16.496  0.00  0.00    +0.000 A 
ATOM      9  C   UNL     1       4.157   4.552  16.989  0.00  0.00    +0.000 A 
ATOM     10  C   UNL     1       3.187   5.327  17.644  0.00  0.00    +0.000 A 
ATOM     11 CL   UNL     1       1.815   4.467  18.252  0.00  0.00    +0.000 Cl
BRANCH   8  12
ATOM     12  N   UNL     1       6.341   4.335  15.831  0.00  0.00    +0.000 N 
ATOM     13  O   UNL     1       5.965   3.547  14.953  0.00  0.00    +0.000 OA
ATOM     14  O   UNL     1       7.516   4.482  16.193  0.00  0.00    +0.000 OA
ENDBRANCH   8  12
ENDBRANCH   2   5
BRANCH   3  15
ATOM     15  C   UNL     1       1.198   9.790  18.370  0.00  0.00    +0.000 A 
ATOM     16  C   UNL     1       1.623  10.892  19.120  0.00  0.00    +0.000 A 
ATOM     17  C   UNL     1       0.696  11.818  19.617  0.00  0.00    +0.000 A 
ATOM     18  C   UNL     1      -0.663  11.646  19.352  0.00  0.00    +0.000 A 
ATOM     19  C   UNL     1      -1.099  10.571  18.579  0.00  0.00    +0.000 A 
ATOM     20  C   UNL     1      -0.167   9.643  18.090  0.00  0.00    +0.000 A 
BRANCH  18  21
ATOM     21  S   UNL     1      -1.854  12.733  20.094  0.00  0.00    +0.000 S 
ATOM     22  O   UNL     1      -1.343  14.080  19.947  0.00  0.00    +0.000 OA
ATOM     23  O   UNL     1      -3.166  12.375  19.595  0.00  0.00    +0.000 OA
BRANCH  21  24
ATOM     24  N   UNL     1      -1.820  12.348  21.759  0.00  0.00    +0.000 NA
ATOM     25  C   UNL     1      -3.093  12.451  22.509  0.00  0.00    +0.000 C 
ATOM     26  C   UNL     1      -3.057  13.824  23.151  0.00  0.00    +0.000 C 
ATOM     27  C   UNL     1      -1.598  14.002  23.524  0.00  0.00    +0.000 C 
ATOM     28  C   UNL     1      -0.814  13.152  22.525  0.00  0.00    +0.000 C 
ENDBRANCH  21  24
ENDBRANCH  18  21
ENDBRANCH   3  15
TORSDOF 5
ENDMDL
MODEL 4
REMARK VINA RESULT:      -7.9      3.105      9.754
REMARK  Name = 
REMARK  5 active torsions:
REMARK  status: ('A' for Active; 'I' for Inactive)
REMARK    1  A    between atoms: C_2  and  C_18
REMARK    2  A    between atoms: N_3  and  C_4
REMARK    3  A    between atoms: C_7  and  S_8
REMARK    4  A    between atoms: S_8  and  N_11
REMARK    5  A    between atoms: C_21  and  N_22
REMARK                            x       y       z     vdW  Elec       q    Type
REMARK                         _______ _______ _______ _____ _____    ______ ____
ROOT
ATOM      1  O   UNL     1       1.886   9.240  22.490  0.00  0.00    +0.000 OA
ATOM      2  C   UNL     1       1.076   9.498  21.605  0.00  0.00    +0.000 C 
ATOM      3  N   UNL     1       0.951   8.825  20.402  0.00  0.00    +0.000 N 
ATOM      4  H   UNL     1       0.297   9.205  19.728  0.00  0.00    +0.000 HD
ENDROOT
BRANCH   2   5
ATOM      5  C   UNL     1       0.133  10.633  21.861  0.00  0.00    +0.000 A 
ATOM      6  C   UNL     1      -0.836  10.406  22.859  0.00  0.00    +0.000 A 
ATOM      7  C   UNL     1      -1.746  11.401  23.230  0.00  0.00    +0.000 A 
ATOM      8  C   UNL     1      -1.685  12.647  22.600  0.00  0.00    +0.000 A 
ATOM      9  C   UNL     1      -0.734  12.893  21.603  0.00  0.00    +0.000 A 
ATOM     10  C   UNL     1       0.174  11.888  21.235  0.00  0.00    +0.000 A 
ATOM     11 CL   UNL     1       1.333  12.321  20.027  0.00  0.00    +0.000 Cl
BRANCH   8  12
ATOM     12  N   UNL     1      -2.618  13.710  22.996  0.00  0.00    +0.000 N 
ATOM     13  O   UNL     1      -2.680  14.004  24.197  0.00  0.00    +0.000 OA
ATOM     14  O   UNL     1      -3.287  14.245  22.102  0.00  0.00    +0.000 OA
ENDBRANCH   8  12
ENDBRANCH   2   5
BRANCH   3  15
ATOM     15  C   UNL     1       1.740   7.747  19.951  0.00  0.00    +0.000 A 
ATOM     16  C   UNL     1       1.964   6.584  20.696  0.00  0.00    +0.000 A 
ATOM     17  C   UNL     1       2.801   5.573  20.207  0.00  0.00    +0.000 A 
ATOM     18  C   UNL     1       3.410   5.720  18.961  0.00  0.00    +0.000 A 
ATOM     19  C   UNL     1       3.171   6.858  18.192  0.00  0.00    +0.000 A 
ATOM     20  C   UNL     1       2.337   7.871  18.689  0.00  0.00    +0.000 A 
BRANCH  18  21
ATOM     21  S   UNL     1       4.580   4.510  18.398  0.00  0.00    +0.000 S 
ATOM     22  O   UNL     1       5.301   5.105  17.292  0.00  0.00    +0.000 OA
ATOM     23  O   UNL     1       5.282   3.988  19.552  0.00  0.00    +0.000 OA
BRANCH  21  24
ATOM     24  N   UNL     1       3.624   3.241  17.766  0.00  0.00    +0.000 NA
ATOM     25  C   UNL     1       2.294   3.595  17.219  0.00  0.00    +0.000 C 
ATOM     26  C   UNL     1       1.323   3.335  18.353  0.00  0.00    +0.000 C 
ATOM     27  C   UNL     1       1.890   2.100  19.026  0.00  0.00    +0.000 C 
ATOM     28  C   UNL     1       3.392   2.137  18.752  0.00  0.00    +0.000 C 
ENDBRANCH  21  24
ENDBRANCH  18  21
ENDBRANCH   3  15
TORSDOF 5
ENDMDL
MODEL 5
REMARK VINA RESULT:      -7.9      3.316      9.907
REMARK  Name = 
REMARK  5 active torsions:
REMARK  status: ('A' for Active; 'I' for Inactive)
REMARK    1  A    between atoms: C_2  and  C_18
REMARK    2  A    between atoms: N_3  and  C_4
REMARK    3  A    between atoms: C_7  and  S_8
REMARK    4  A    between atoms: S_8  and  N_11
REMARK    5  A    between atoms: C_21  and  N_22
REMARK                            x       y       z     vdW  Elec       q    Type
REMARK                         _______ _______ _______ _____ _____    ______ ____
ROOT
ATOM      1  O   UNL     1       1.262  10.540  22.014  0.00  0.00    +0.000 OA
ATOM      2  C   UNL     1       0.290  10.456  21.270  0.00  0.00    +0.000 C 
ATOM      3  N   UNL     1       0.170   9.603  20.187  0.00  0.00    +0.000 N 
ATOM      4  H   UNL     1      -0.656   9.706  19.608  0.00  0.00    +0.000 HD
ENDROOT
BRANCH   2   5
ATOM      5  C   UNL     1      -0.873  11.349  21.576  0.00  0.00    +0.000 A 
ATOM      6  C   UNL     1      -1.421  11.215  22.868  0.00  0.00    +0.000 A 
ATOM      7  C   UNL     1      -2.478  12.023  23.297  0.00  0.00    +0.000 A 
ATOM      8  C   UNL     1      -2.996  12.986  22.427  0.00  0.00    +0.000 A 
ATOM      9  C   UNL     1      -2.471  13.133  21.138  0.00  0.00    +0.000 A 
ATOM     10  C   UNL     1      -1.411  12.316  20.713  0.00  0.00    +0.000 A 
ATOM     11 CL   UNL     1      -0.814  12.620  19.119  0.00  0.00    +0.000 Cl
BRANCH   8  12
ATOM     12  N   UNL     1      -4.089  13.859  22.873  0.00  0.00    +0.000 N 
ATOM     13  O   UNL     1      -4.539  14.679  22.063  0.00  0.00    +0.000 OA
ATOM     14  O   UNL     1      -4.493  13.720  24.036  0.00  0.00    +0.000 OA
ENDBRANCH   8  12
ENDBRANCH   2   5
BRANCH   3  15
ATOM     15  C   UNL     1       1.142   8.697  19.713  0.00  0.00    +0.000 A 
ATOM     16  C   UNL     1       1.766   8.811  18.466  0.00  0.00    +0.000 A 
ATOM     17  C   UNL     1       2.688   7.846  18.039  0.00  0.00    +0.000 A 
ATOM     18  C   UNL     1       2.994   6.767  18.867  0.00  0.00    +0.000 A 
ATOM     19  C   UNL     1       2.405   6.657  20.125  0.00  0.00    +0.000 A 
ATOM     20  C   UNL     1       1.478   7.622  20.546  0.00  0.00    +0.000 A 
BRANCH  18  21
ATOM     21  S   UNL     1       4.051   5.469  18.276  0.00  0.00    +0.000 S 
ATOM     22  O   UNL     1       4.965   6.070  17.327  0.00  0.00    +0.000 OA
ATOM     23  O   UNL     1       4.544   4.730  19.420  0.00  0.00    +0.000 OA
BRANCH  21  24
ATOM     24  N   UNL     1       3.016   4.426  17.403  0.00  0.00    +0.000 NA
ATOM     25  C   UNL     1       1.570   4.473  17.726  0.00  0.00    +0.000 C 
ATOM     26  C   UNL     1       1.355   3.343  18.712  0.00  0.00    +0.000 C 
ATOM     27  C   UNL     1       2.287   2.256  18.215  0.00  0.00    +0.000 C 
ATOM     28  C   UNL     1       3.421   2.986  17.496  0.00  0.00    +0.000 C 
ENDBRANCH  21  24
ENDBRANCH  18  21
ENDBRANCH   3  15
TORSDOF 5
ENDMDL
MODEL 6
REMARK VINA RESULT:      -7.8      3.281      9.872
REMARK  Name = 
REMARK  5 active torsions:
REMARK  status: ('A' for Active; 'I' for Inactive)
REMARK    1  A    between atoms: C_2  and  C_18
REMARK    2  A    between atoms: N_3  and  C_4
REMARK    3  A    between atoms: C_7  and  S_8
REMARK    4  A    between atoms: S_8  and  N_11
REMARK    5  A    between atoms: C_21  and  N_22
REMARK                            x       y       z     vdW  Elec       q    Type
REMARK                         _______ _______ _______ _____ _____    ______ ____
ROOT
ATOM      1  O   UNL     1       1.362   9.781  22.607  0.00  0.00    +0.000 OA
ATOM      2  C   UNL     1       0.611  10.180  21.721  0.00  0.00    +0.000 C 
ATOM      3  N   UNL     1       0.519   9.657  20.443  0.00  0.00    +0.000 N 
ATOM      4  H   UNL     1      -0.082  10.145  19.788  0.00  0.00    +0.000 HD
ENDROOT
BRANCH   2   5
ATOM      5  C   UNL     1      -0.293  11.322  22.066  0.00  0.00    +0.000 A 
ATOM      6  C   UNL     1      -1.373  11.009  22.917  0.00  0.00    +0.000 A 
ATOM      7  C   UNL     1      -2.264  11.994  23.353  0.00  0.00    +0.000 A 
ATOM      8  C   UNL     1      -2.073  13.316  22.942  0.00  0.00    +0.000 A 
ATOM      9  C   UNL     1      -1.011  13.648  22.093  0.00  0.00    +0.000 A 
ATOM     10  C   UNL     1      -0.122  12.654  21.656  0.00  0.00    +0.000 A 
ATOM     11 CL   UNL     1       1.178  13.189  20.650  0.00  0.00    +0.000 Cl
BRANCH   8  12
ATOM     12  N   UNL     1      -2.986  14.365  23.413  0.00  0.00    +0.000 N 
ATOM     13  O   UNL     1      -3.957  14.019  24.098  0.00  0.00    +0.000 OA
ATOM     14  O   UNL     1      -2.727  15.534  23.092  0.00  0.00    +0.000 OA
ENDBRANCH   8  12
ENDBRANCH   2   5
BRANCH   3  15
ATOM     15  C   UNL     1       1.284   8.601  19.905  0.00  0.00    +0.000 A 
ATOM     16  C   UNL     1       1.595   7.432  20.608  0.00  0.00    +0.000 A 
ATOM     17  C   UNL     1       2.401   6.444  20.029  0.00  0.00    +0.000 A 
ATOM     18  C   UNL     1       2.892   6.621  18.735  0.00  0.00    +0.000 A 
ATOM     19  C   UNL     1       2.564   7.765  18.010  0.00  0.00    +0.000 A 
ATOM     20  C   UNL     1       1.761   8.755  18.596  0.00  0.00    +0.000 A 
BRANCH  18  21
ATOM     21  S   UNL     1       4.027   5.442  18.049  0.00  0.00    +0.000 S 
ATOM     22  O   UNL     1       4.743   6.115  16.986  0.00  0.00    +0.000 OA
ATOM     23  O   UNL     1       4.737   4.809  19.141  0.00  0.00    +0.000 OA
BRANCH  21  24
ATOM     24  N   UNL     1       3.035   4.250  17.328  0.00  0.00    +0.000 NA
ATOM     25  C   UNL     1       1.594   4.263  17.672  0.00  0.00    +0.000 C 
ATOM     26  C   UNL     1       1.451   3.251  18.791  0.00  0.00    +0.000 C 
ATOM     27  C   UNL     1       2.432   2.160  18.409  0.00  0.00    +0.000 C 
ATOM     28  C   UNL     1       3.516   2.854  17.586  0.00  0.00    +0.000 C 
ENDBRANCH  21  24
ENDBRANCH  18  21
ENDBRANCH   3  15
TORSDOF 5
ENDMDL
MODEL 7
REMARK VINA RESULT:      -7.8      3.375     10.275
REMARK  Name = 
REMARK  5 active torsions:
REMARK  status: ('A' for Active; 'I' for Inactive)
REMARK    1  A    between atoms: C_2  and  C_18
REMARK    2  A    between atoms: N_3  and  C_4
REMARK    3  A    between atoms: C_7  and  S_8
REMARK    4  A    between atoms: S_8  and  N_11
REMARK    5  A    between atoms: C_21  and  N_22
REMARK                            x       y       z     vdW  Elec       q    Type
REMARK                         _______ _______ _______ _____ _____    ______ ____
ROOT
ATOM      1  O   UNL     1       1.743   9.857  22.346  0.00  0.00    +0.000 OA
ATOM      2  C   UNL     1       0.834  10.061  21.547  0.00  0.00    +0.000 C 
ATOM      3  N   UNL     1       0.648   9.400  20.346  0.00  0.00    +0.000 N 
ATOM      4  H   UNL     1      -0.096   9.735  19.746  0.00  0.00    +0.000 HD
ENDROOT
BRANCH   2   5
ATOM      5  C   UNL     1      -0.169  11.110  21.919  0.00  0.00    +0.000 A 
ATOM      6  C   UNL     1      -1.122  10.726  22.885  0.00  0.00    +0.000 A 
ATOM      7  C   UNL     1      -2.084  11.625  23.356  0.00  0.00    +0.000 A 
ATOM      8  C   UNL     1      -2.093  12.932  22.861  0.00  0.00    +0.000 A 
ATOM      9  C   UNL     1      -1.160  13.333  21.898  0.00  0.00    +0.000 A 
ATOM     10  C   UNL     1      -0.199  12.424  21.428  0.00  0.00    +0.000 A 
ATOM     11 CL   UNL     1       0.930  13.044  20.275  0.00  0.00    +0.000 Cl
BRANCH   8  12
ATOM     12  N   UNL     1      -3.082  13.895  23.364  0.00  0.00    +0.000 N 
ATOM     13  O   UNL     1      -3.788  14.482  22.534  0.00  0.00    +0.000 OA
ATOM     14  O   UNL     1      -3.144  14.061  24.590  0.00  0.00    +0.000 OA
ENDBRANCH   8  12
ENDBRANCH   2   5
BRANCH   3  15
ATOM     15  C   UNL     1       1.476   8.398  19.796  0.00  0.00    +0.000 A 
ATOM     16  C   UNL     1       2.114   8.513  18.557  0.00  0.00    +0.000 A 
ATOM     17  C   UNL     1       2.882   7.457  18.049  0.00  0.00    +0.000 A 
ATOM     18  C   UNL     1       3.020   6.283  18.790  0.00  0.00    +0.000 A 
ATOM     19  C   UNL     1       2.417   6.166  20.041  0.00  0.00    +0.000 A 
ATOM     20  C   UNL     1       1.644   7.224  20.542  0.00  0.00    +0.000 A 
BRANCH  18  21
ATOM     21  S   UNL     1       3.873   4.891  18.093  0.00  0.00    +0.000 S 
ATOM     22  O   UNL     1       4.488   4.180  19.193  0.00  0.00    +0.000 OA
ATOM     23  O   UNL     1       2.971   4.218  17.181  0.00  0.00    +0.000 OA
BRANCH  21  24
ATOM     24  N   UNL     1       5.128   5.574  17.154  0.00  0.00    +0.000 NA
ATOM     25  C   UNL     1       5.257   5.117  15.751  0.00  0.00    +0.000 C 
ATOM     26  C   UNL     1       6.310   4.027  15.790  0.00  0.00    +0.000 C 
ATOM     27  C   UNL     1       7.295   4.525  16.830  0.00  0.00    +0.000 C 
ATOM     28  C   UNL     1       6.481   5.406  17.776  0.00  0.00    +0.000 C 
ENDBRANCH  21  24
ENDBRANCH  18  21
ENDBRANCH   3  15
TORSDOF 5
ENDMDL
MODEL 8
REMARK VINA RESULT:      -7.8      3.291     10.108
REMARK  Name = 
REMARK  5 active torsions:
REMARK  status: ('A' for Active; 'I' for Inactive)
REMARK    1  A    between atoms: C_2  and  C_18
REMARK    2  A    between atoms: N_3  and  C_4
REMARK    3  A    between atoms: C_7  and  S_8
REMARK    4  A    between atoms: S_8  and  N_11
REMARK    5  A    between atoms: C_21  and  N_22
REMARK                            x       y       z     vdW  Elec       q    Type
REMARK                         _______ _______ _______ _____ _____    ______ ____
ROOT
ATOM      1  O   UNL     1       1.397  11.173  21.473  0.00  0.00    +0.000 OA
ATOM      2  C   UNL     1       0.301  10.795  21.069  0.00  0.00    +0.000 C 
ATOM      3  N   UNL     1       0.058   9.633  20.357  0.00  0.00    +0.000 N 
ATOM      4  H   UNL     1      -0.884   9.494  20.011  0.00  0.00    +0.000 HD
ENDROOT
BRANCH   2   5
ATOM      5  C   UNL     1      -0.875  11.665  21.391  0.00  0.00    +0.000 A 
ATOM      6  C   UNL     1      -1.385  11.539  22.699  0.00  0.00    +0.000 A 
ATOM      7  C   UNL     1      -2.451  12.329  23.143  0.00  0.00    +0.000 A 
ATOM      8  C   UNL     1      -3.013  13.265  22.272  0.00  0.00    +0.000 A 
ATOM      9  C   UNL     1      -2.525  13.404  20.967  0.00  0.00    +0.000 A 
ATOM     10  C   UNL     1      -1.458  12.605  20.527  0.00  0.00    +0.000 A 
ATOM     11 CL   UNL     1      -0.909  12.897  18.914  0.00  0.00    +0.000 Cl
BRANCH   8  12
ATOM     12  N   UNL     1      -4.116  14.119  22.732  0.00  0.00    +0.000 N 
ATOM     13  O   UNL     1      -3.870  15.314  22.942  0.00  0.00    +0.000 OA
ATOM     14  O   UNL     1      -5.224  13.588  22.885  0.00  0.00    +0.000 OA
ENDBRANCH   8  12
ENDBRANCH   2   5
BRANCH   3  15
ATOM     15  C   UNL     1       1.013   8.686  19.934  0.00  0.00    +0.000 A 
ATOM     16  C   UNL     1       1.681   8.751  18.707  0.00  0.00    +0.000 A 
ATOM     17  C   UNL     1       2.582   7.747  18.329  0.00  0.00    +0.000 A 
ATOM     18  C   UNL     1       2.825   6.676  19.189  0.00  0.00    +0.000 A 
ATOM     19  C   UNL     1       2.192   6.613  20.430  0.00  0.00    +0.000 A 
ATOM     20  C   UNL     1       1.285   7.618  20.800  0.00  0.00    +0.000 A 
BRANCH  18  21
ATOM     21  S   UNL     1       3.855   5.332  18.660  0.00  0.00    +0.000 S 
ATOM     22  O   UNL     1       3.778   5.285  17.215  0.00  0.00    +0.000 OA
ATOM     23  O   UNL     1       5.131   5.447  19.335  0.00  0.00    +0.000 OA
BRANCH  21  24
ATOM     24  N   UNL     1       3.086   3.929  19.263  0.00  0.00    +0.000 NA
ATOM     25  C   UNL     1       3.914   2.710  19.419  0.00  0.00    +0.000 C 
ATOM     26  C   UNL     1       3.675   1.912  18.153  0.00  0.00    +0.000 C 
ATOM     27  C   UNL     1       2.210   2.157  17.852  0.00  0.00    +0.000 C 
ATOM     28  C   UNL     1       1.891   3.524  18.455  0.00  0.00    +0.000 C 
ENDBRANCH  21  24
ENDBRANCH  18  21
ENDBRANCH   3  15
TORSDOF 5
ENDMDL
MODEL 9
REMARK VINA RESULT:      -7.8      2.879      3.603
REMARK  Name = 
REMARK  5 active torsions:
REMARK  status: ('A' for Active; 'I' for Inactive)
REMARK    1  A    between atoms: C_2  and  C_18
REMARK    2  A    between atoms: N_3  and  C_4
REMARK    3  A    between atoms: C_7  and  S_8
REMARK    4  A    between atoms: S_8  and  N_11
REMARK    5  A    between atoms: C_21  and  N_22
REMARK                            x       y       z     vdW  Elec       q    Type
REMARK                         _______ _______ _______ _____ _____    ______ ____
ROOT
ATOM      1  O   UNL     1       2.236   7.520  19.596  0.00  0.00    +0.000 OA
ATOM      2  C   UNL     1       2.639   7.804  18.473  0.00  0.00    +0.000 C 
ATOM      3  N   UNL     1       2.343   8.962  17.774  0.00  0.00    +0.000 N 
ATOM      4  H   UNL     1       2.674   9.021  16.819  0.00  0.00    +0.000 HD
ENDROOT
BRANCH   2   5
ATOM      5  C   UNL     1       3.544   6.812  17.809  0.00  0.00    +0.000 A 
ATOM      6  C   UNL     1       4.778   7.320  17.357  0.00  0.00    +0.000 A 
ATOM      7  C   UNL     1       5.734   6.490  16.764  0.00  0.00    +0.000 A 
ATOM      8  C   UNL     1       5.459   5.127  16.625  0.00  0.00    +0.000 A 
ATOM      9  C   UNL     1       4.238   4.601  17.063  0.00  0.00    +0.000 A 
ATOM     10  C   UNL     1       3.282   5.442  17.654  0.00  0.00    +0.000 A 
ATOM     11 CL   UNL     1       1.831   4.674  18.199  0.00  0.00    +0.000 Cl
BRANCH   8  12
ATOM     12  N   UNL     1       6.463   4.238  16.027  0.00  0.00    +0.000 N 
ATOM     13  O   UNL     1       7.656   4.486  16.246  0.00  0.00    +0.000 OA
ATOM     14  O   UNL     1       6.052   3.294  15.337  0.00  0.00    +0.000 OA
ENDBRANCH   8  12
ENDBRANCH   2   5
BRANCH   3  15
ATOM     15  C   UNL     1       1.504  10.014  18.200  0.00  0.00    +0.000 A 
ATOM     16  C   UNL     1       1.967  11.294  18.519  0.00  0.00    +0.000 A 
ATOM     17  C   UNL     1       1.084  12.277  18.984  0.00  0.00    +0.000 A 
ATOM     18  C   UNL     1      -0.273  11.981  19.120  0.00  0.00    +0.000 A 
ATOM     19  C   UNL     1      -0.755  10.719  18.775  0.00  0.00    +0.000 A 
ATOM     20  C   UNL     1       0.135   9.736  18.317  0.00  0.00    +0.000 A 
BRANCH  18  21
ATOM     21  S   UNL     1      -1.372  13.174  19.840  0.00  0.00    +0.000 S 
ATOM     22  O   UNL     1      -1.033  14.459  19.265  0.00  0.00    +0.000 OA
ATOM     23  O   UNL     1      -2.721  12.653  19.758  0.00  0.00    +0.000 OA
BRANCH  21  24
ATOM     24  N   UNL     1      -0.943  13.221  21.494  0.00  0.00    +0.000 NA
ATOM     25  C   UNL     1      -0.375  11.987  22.087  0.00  0.00    +0.000 C 
ATOM     26  C   UNL     1      -1.552  11.290  22.738  0.00  0.00    +0.000 C 
ATOM     27  C   UNL     1      -2.382  12.434  23.285  0.00  0.00    +0.000 C 
ATOM     28  C   UNL     1      -2.079  13.628  22.382  0.00  0.00    +0.000 C 
ENDBRANCH  21  24
ENDBRANCH  18  21
ENDBRANCH   3  15
TORSDOF 5
ENDMDL
