MODEL 1
REMARK VINA RESULT:      -7.9      0.000      0.000
REMARK  Name = 
REMARK  9 active torsions:
REMARK  status: ('A' for Active; 'I' for Inactive)
REMARK    1  A    between atoms: C_1  and  C_2
REMARK    2  A    between atoms: C_2  and  C_3
REMARK    3  A    between atoms: C_2  and  N_4
REMARK    4  A    between atoms: C_2  and  C_15
REMARK    5  A    between atoms: N_4  and  S_5
REMARK    6  A    between atoms: S_5  and  C_8
REMARK    7  A    between atoms: N_17  and  C_18
REMARK    8  A    between atoms: C_25  and  C_26
REMARK    9  A    between atoms: N_28  and  N_29
REMARK                            x       y       z     vdW  Elec       q    Type
REMARK                         _______ _______ _______ _____ _____    ______ ____
ROOT
ATOM      1  C   UNL     1       2.541   3.232  17.670  0.00  0.00    +0.000 C 
ATOM      2  O   UNL     1       2.451   2.318  16.852  0.00  0.00    +0.000 OA
ATOM      3  N   UNL     1       3.371   4.317  17.463  0.00  0.00    +0.000 N 
ATOM      4  H   UNL     1       3.521   4.936  18.248  0.00  0.00    +0.000 HD
ENDROOT
BRANCH   3   5
ATOM      5  C   UNL     1       4.222   4.514  16.277  0.00  0.00    +0.000 C 
ATOM      6  C   UNL     1       4.689   5.981  16.057  0.00  0.00    +0.000 C 
ATOM      7  C   UNL     1       5.550   6.063  14.774  0.00  0.00    +0.000 C 
ATOM      8  C   UNL     1       6.791   5.164  14.901  0.00  0.00    +0.000 C 
ATOM      9  C   UNL     1       6.327   3.719  15.118  0.00  0.00    +0.000 C 
ATOM     10  C   UNL     1       5.481   3.621  16.399  0.00  0.00    +0.000 C 
ATOM     11  C   UNL     1       6.337   4.093  17.592  0.00  0.00    +0.000 C 
ATOM     12  C   UNL     1       6.801   5.560  17.403  0.00  0.00    +0.000 C 
ATOM     13  C   UNL     1       7.640   5.622  16.106  0.00  0.00    +0.000 C 
ATOM     14  C   UNL     1       5.554   6.461  17.236  0.00  0.00    +0.000 C 
BRANCH  12  15
ATOM     15  C   UNL     1       7.603   6.011  18.633  0.00  0.00    +0.000 C 
ATOM     16  O   UNL     1       8.279   7.041  18.651  0.00  0.00    +0.000 OA
ATOM     17  N   UNL     1       7.566   5.142  19.717  0.00  0.00    +0.000 N 
ATOM     18  H   UNL     1       6.891   4.382  19.758  0.00  0.00    +0.000 HD
BRANCH  17  19
ATOM     19  N   UNL     1       8.283   5.469  20.888  0.00  0.00    +0.000 NA
ATOM     20  H   UNL     1       9.128   4.876  20.892  0.00  0.00    +0.000 HD
ATOM     21  H   UNL     1       7.746   5.128  21.691  0.00  0.00    +0.000 HD
ENDBRANCH  17  19
ENDBRANCH  12  15
ENDBRANCH   3   5
BRANCH   1  23
ATOM     22  C   UNL     1       2.532   2.608  20.106  0.00  0.00    +0.000 C 
ATOM     23  C   UNL     1       1.711   3.279  19.003  0.00  0.00    +0.000 C 
ATOM     24  C   UNL     1       0.397   2.519  18.771  0.00  0.00    +0.000 C 
BRANCH  23  25
ATOM     25  N   UNL     1       1.438   4.703  19.337  0.00  0.00    +0.000 NA
ATOM     26  H   UNL     1       0.494   5.066  19.234  0.00  0.00    +0.000 HD
BRANCH  25  27
ATOM     27  S   UNL     1       2.385   5.650  20.349  0.00  0.00    +0.000 S 
ATOM     28  O   UNL     1       2.035   5.252  21.696  0.00  0.00    +0.000 OA
ATOM     29  O   UNL     1       3.755   5.576  19.903  0.00  0.00    +0.000 OA
BRANCH  27  30
ATOM     30  C   UNL     1       1.828   7.307  20.126  0.00  0.00    +0.000 A 
ATOM     31  C   UNL     1       1.205   7.989  21.181  0.00  0.00    +0.000 A 
ATOM     32  C   UNL     1       0.737   9.291  20.985  0.00  0.00    +0.000 A 
ATOM     33  C   UNL     1       0.876   9.902  19.739  0.00  0.00    +0.000 A 
ATOM     34  C   UNL     1       1.472   9.206  18.684  0.00  0.00    +0.000 A 
ATOM     35  C   UNL     1       1.943   7.908  18.881  0.00  0.00    +0.000 A 
ATOM     36  F   UNL     1       2.508   7.269  17.849  0.00  0.00    +0.000 F 
ENDBRANCH  27  30
ENDBRANCH  25  27
ENDBRANCH  23  25
ENDBRANCH   1  23
TORSDOF 7
ENDMDL
MODEL 2
REMARK VINA RESULT:      -7.8      0.857      1.237
REMARK  Name = 
REMARK  9 active torsions:
REMARK  status: ('A' for Active; 'I' for Inactive)
REMARK    1  A    between atoms: C_1  and  C_2
REMARK    2  A    between atoms: C_2  and  C_3
REMARK    3  A    between atoms: C_2  and  N_4
REMARK    4  A    between atoms: C_2  and  C_15
REMARK    5  A    between atoms: N_4  and  S_5
REMARK    6  A    between atoms: S_5  and  C_8
REMARK    7  A    between atoms: N_17  and  C_18
REMARK    8  A    between atoms: C_25  and  C_26
REMARK    9  A    between atoms: N_28  and  N_29
REMARK                            x       y       z     vdW  Elec       q    Type
REMARK                         _______ _______ _______ _____ _____    ______ ____
ROOT
ATOM      1  C   UNL     1       2.919   3.116  17.914  0.00  0.00    +0.000 C 
ATOM      2  O   UNL     1       3.267   2.040  17.432  0.00  0.00    +0.000 OA
ATOM      3  N   UNL     1       3.345   4.322  17.392  0.00  0.00    +0.000 N 
ATOM      4  H   UNL     1       3.160   5.151  17.939  0.00  0.00    +0.000 HD
ENDROOT
BRANCH   3   5
ATOM      5  C   UNL     1       4.238   4.469  16.229  0.00  0.00    +0.000 C 
ATOM      6  C   UNL     1       4.731   5.922  15.976  0.00  0.00    +0.000 C 
ATOM      7  C   UNL     1       5.636   5.951  14.721  0.00  0.00    +0.000 C 
ATOM      8  C   UNL     1       6.859   5.041  14.919  0.00  0.00    +0.000 C 
ATOM      9  C   UNL     1       6.370   3.610  15.168  0.00  0.00    +0.000 C 
ATOM     10  C   UNL     1       5.480   3.565  16.423  0.00  0.00    +0.000 C 
ATOM     11  C   UNL     1       6.303   4.066  17.628  0.00  0.00    +0.000 C 
ATOM     12  C   UNL     1       6.791   5.521  17.406  0.00  0.00    +0.000 C 
ATOM     13  C   UNL     1       7.674   5.530  16.136  0.00  0.00    +0.000 C 
ATOM     14  C   UNL     1       5.563   6.431  17.167  0.00  0.00    +0.000 C 
BRANCH  12  15
ATOM     15  C   UNL     1       7.559   6.003  18.646  0.00  0.00    +0.000 C 
ATOM     16  O   UNL     1       8.196   7.057  18.672  0.00  0.00    +0.000 OA
ATOM     17  N   UNL     1       7.536   5.137  19.732  0.00  0.00    +0.000 N 
ATOM     18  H   UNL     1       6.888   4.353  19.765  0.00  0.00    +0.000 HD
BRANCH  17  19
ATOM     19  N   UNL     1       8.223   5.491  20.913  0.00  0.00    +0.000 NA
ATOM     20  H   UNL     1       8.013   4.759  21.608  0.00  0.00    +0.000 HD
ATOM     21  H   UNL     1       7.774   6.326  21.300  0.00  0.00    +0.000 HD
ENDBRANCH  17  19
ENDBRANCH  12  15
ENDBRANCH   3   5
BRANCH   1  23
ATOM     22  C   UNL     1       2.656   2.700  20.380  0.00  0.00    +0.000 C 
ATOM     23  C   UNL     1       1.941   3.235  19.138  0.00  0.00    +0.000 C 
ATOM     24  C   UNL     1       0.693   2.394  18.832  0.00  0.00    +0.000 C 
BRANCH  23  25
ATOM     25  N   UNL     1       1.576   4.667  19.311  0.00  0.00    +0.000 NA
ATOM     26  H   UNL     1       0.606   4.949  19.202  0.00  0.00    +0.000 HD
BRANCH  25  27
ATOM     27  S   UNL     1       2.482   5.791  20.167  0.00  0.00    +0.000 S 
ATOM     28  O   UNL     1       2.023   5.702  21.536  0.00  0.00    +0.000 OA
ATOM     29  O   UNL     1       3.877   5.595  19.854  0.00  0.00    +0.000 OA
BRANCH  27  30
ATOM     30  C   UNL     1       2.003   7.371  19.551  0.00  0.00    +0.000 A 
ATOM     31  C   UNL     1       2.257   7.715  18.216  0.00  0.00    +0.000 A 
ATOM     32  C   UNL     1       1.904   8.982  17.746  0.00  0.00    +0.000 A 
ATOM     33  C   UNL     1       1.312   9.906  18.608  0.00  0.00    +0.000 A 
ATOM     34  C   UNL     1       1.088   9.567  19.944  0.00  0.00    +0.000 A 
ATOM     35  C   UNL     1       1.437   8.301  20.412  0.00  0.00    +0.000 A 
ATOM     36  F   UNL     1       1.208   8.009  21.699  0.00  0.00    +0.000 F 
ENDBRANCH  27  30
ENDBRANCH  25  27
ENDBRANCH  23  25
ENDBRANCH   1  23
TORSDOF 7
ENDMDL
MODEL 3
REMARK VINA RESULT:      -7.3      3.284      7.049
REMARK  Name = 
REMARK  9 active torsions:
REMARK  status: ('A' for Active; 'I' for Inactive)
REMARK    1  A    between atoms: C_1  and  C_2
REMARK    2  A    between atoms: C_2  and  C_3
REMARK    3  A    between atoms: C_2  and  N_4
REMARK    4  A    between atoms: C_2  and  C_15
REMARK    5  A    between atoms: N_4  and  S_5
REMARK    6  A    between atoms: S_5  and  C_8
REMARK    7  A    between atoms: N_17  and  C_18
REMARK    8  A    between atoms: C_25  and  C_26
REMARK    9  A    between atoms: N_28  and  N_29
REMARK                            x       y       z     vdW  Elec       q    Type
REMARK                         _______ _______ _______ _____ _____    ______ ____
ROOT
ATOM      1  C   UNL     1       4.691   6.782  17.628  0.00  0.00    +0.000 C 
ATOM      2  O   UNL     1       3.871   7.680  17.445  0.00  0.00    +0.000 OA
ATOM      3  N   UNL     1       4.327   5.559  18.158  0.00  0.00    +0.000 N 
ATOM      4  H   UNL     1       5.075   4.939  18.437  0.00  0.00    +0.000 HD
ENDROOT
BRANCH   3   5
ATOM      5  C   UNL     1       2.959   5.185  18.555  0.00  0.00    +0.000 C 
ATOM      6  C   UNL     1       2.480   3.814  17.998  0.00  0.00    +0.000 C 
ATOM      7  C   UNL     1       1.027   3.547  18.461  0.00  0.00    +0.000 C 
ATOM      8  C   UNL     1       0.951   3.510  19.996  0.00  0.00    +0.000 C 
ATOM      9  C   UNL     1       1.424   4.862  20.542  0.00  0.00    +0.000 C 
ATOM     10  C   UNL     1       2.873   5.134  20.100  0.00  0.00    +0.000 C 
ATOM     11  C   UNL     1       3.771   3.999  20.632  0.00  0.00    +0.000 C 
ATOM     12  C   UNL     1       3.322   2.623  20.076  0.00  0.00    +0.000 C 
ATOM     13  C   UNL     1       1.863   2.387  20.532  0.00  0.00    +0.000 C 
ATOM     14  C   UNL     1       3.362   2.671  18.530  0.00  0.00    +0.000 C 
BRANCH  12  15
ATOM     15  C   UNL     1       4.271   1.526  20.583  0.00  0.00    +0.000 C 
ATOM     16  O   UNL     1       4.612   1.428  21.763  0.00  0.00    +0.000 OA
ATOM     17  N   UNL     1       4.774   0.677  19.605  0.00  0.00    +0.000 N 
ATOM     18  H   UNL     1       4.375   0.660  18.669  0.00  0.00    +0.000 HD
BRANCH  17  19
ATOM     19  N   UNL     1       5.663  -0.355  19.977  0.00  0.00    +0.000 NA
ATOM     20  H   UNL     1       5.147  -0.969  20.624  0.00  0.00    +0.000 HD
ATOM     21  H   UNL     1       6.393   0.057  20.566  0.00  0.00    +0.000 HD
ENDBRANCH  17  19
ENDBRANCH  12  15
ENDBRANCH   3   5
BRANCH   1  23
ATOM     22  C   UNL     1       7.037   6.236  18.348  0.00  0.00    +0.000 C 
ATOM     23  C   UNL     1       6.211   6.916  17.255  0.00  0.00    +0.000 C 
ATOM     24  C   UNL     1       6.551   8.411  17.174  0.00  0.00    +0.000 C 
BRANCH  23  25
ATOM     25  N   UNL     1       6.431   6.258  15.939  0.00  0.00    +0.000 NA
ATOM     26  H   UNL     1       6.781   6.810  15.160  0.00  0.00    +0.000 HD
BRANCH  25  27
ATOM     27  S   UNL     1       6.661   4.611  15.715  0.00  0.00    +0.000 S 
ATOM     28  O   UNL     1       8.010   4.340  16.163  0.00  0.00    +0.000 OA
ATOM     29  O   UNL     1       5.546   3.906  16.299  0.00  0.00    +0.000 OA
BRANCH  27  30
ATOM     30  C   UNL     1       6.621   4.347  13.973  0.00  0.00    +0.000 A 
ATOM     31  C   UNL     1       5.678   3.472  13.414  0.00  0.00    +0.000 A 
ATOM     32  C   UNL     1       5.675   3.243  12.036  0.00  0.00    +0.000 A 
ATOM     33  C   UNL     1       6.617   3.873  11.222  0.00  0.00    +0.000 A 
ATOM     34  C   UNL     1       7.572   4.721  11.789  0.00  0.00    +0.000 A 
ATOM     35  C   UNL     1       7.572   4.952  13.164  0.00  0.00    +0.000 A 
ATOM     36  F   UNL     1       8.501   5.771  13.676  0.00  0.00    +0.000 F 
ENDBRANCH  27  30
ENDBRANCH  25  27
ENDBRANCH  23  25
ENDBRANCH   1  23
TORSDOF 7
ENDMDL
MODEL 4
REMARK VINA RESULT:      -7.2      3.341      7.456
REMARK  Name = 
REMARK  9 active torsions:
REMARK  status: ('A' for Active; 'I' for Inactive)
REMARK    1  A    between atoms: C_1  and  C_2
REMARK    2  A    between atoms: C_2  and  C_3
REMARK    3  A    between atoms: C_2  and  N_4
REMARK    4  A    between atoms: C_2  and  C_15
REMARK    5  A    between atoms: N_4  and  S_5
REMARK    6  A    between atoms: S_5  and  C_8
REMARK    7  A    between atoms: N_17  and  C_18
REMARK    8  A    between atoms: C_25  and  C_26
REMARK    9  A    between atoms: N_28  and  N_29
REMARK                            x       y       z     vdW  Elec       q    Type
REMARK                         _______ _______ _______ _____ _____    ______ ____
ROOT
ATOM      1  C   UNL     1       5.495   3.991  16.844  0.00  0.00    +0.000 C 
ATOM      2  O   UNL     1       4.911   3.377  15.953  0.00  0.00    +0.000 OA
ATOM      3  N   UNL     1       5.034   4.001  18.146  0.00  0.00    +0.000 N 
ATOM      4  H   UNL     1       5.465   4.660  18.780  0.00  0.00    +0.000 HD
ENDROOT
BRANCH   3   5
ATOM      5  C   UNL     1       3.828   3.300  18.619  0.00  0.00    +0.000 C 
ATOM      6  C   UNL     1       3.562   3.436  20.146  0.00  0.00    +0.000 C 
ATOM      7  C   UNL     1       2.289   2.641  20.522  0.00  0.00    +0.000 C 
ATOM      8  C   UNL     1       1.071   3.185  19.758  0.00  0.00    +0.000 C 
ATOM      9  C   UNL     1       1.335   3.050  18.254  0.00  0.00    +0.000 C 
ATOM     10  C   UNL     1       2.592   3.848  17.864  0.00  0.00    +0.000 C 
ATOM     11  C   UNL     1       2.370   5.328  18.237  0.00  0.00    +0.000 C 
ATOM     12  C   UNL     1       2.120   5.490  19.759  0.00  0.00    +0.000 C 
ATOM     13  C   UNL     1       0.858   4.671  20.116  0.00  0.00    +0.000 C 
ATOM     14  C   UNL     1       3.329   4.908  20.530  0.00  0.00    +0.000 C 
BRANCH  12  15
ATOM     15  C   UNL     1       1.958   6.980  20.100  0.00  0.00    +0.000 C 
ATOM     16  O   UNL     1       2.111   7.877  19.270  0.00  0.00    +0.000 OA
ATOM     17  N   UNL     1       1.682   7.256  21.433  0.00  0.00    +0.000 N 
ATOM     18  H   UNL     1       1.403   6.519  22.076  0.00  0.00    +0.000 HD
BRANCH  17  19
ATOM     19  N   UNL     1       1.527   8.599  21.842  0.00  0.00    +0.000 NA
ATOM     20  H   UNL     1       0.518   8.746  21.995  0.00  0.00    +0.000 HD
ATOM     21  H   UNL     1       1.739   9.198  21.038  0.00  0.00    +0.000 HD
ENDBRANCH  17  19
ENDBRANCH  12  15
ENDBRANCH   3   5
BRANCH   1  23
ATOM     22  C   UNL     1       7.785   4.484  17.760  0.00  0.00    +0.000 C 
ATOM     23  C   UNL     1       6.827   4.791  16.607  0.00  0.00    +0.000 C 
ATOM     24  C   UNL     1       6.483   6.287  16.577  0.00  0.00    +0.000 C 
BRANCH  23  25
ATOM     25  N   UNL     1       7.408   4.362  15.307  0.00  0.00    +0.000 NA
ATOM     26  H   UNL     1       7.772   3.417  15.213  0.00  0.00    +0.000 HD
BRANCH  25  27
ATOM     27  S   UNL     1       7.075   5.074  13.824  0.00  0.00    +0.000 S 
ATOM     28  O   UNL     1       5.849   5.820  14.017  0.00  0.00    +0.000 OA
ATOM     29  O   UNL     1       8.265   5.741  13.354  0.00  0.00    +0.000 OA
BRANCH  27  30
ATOM     30  C   UNL     1       6.718   3.750  12.718  0.00  0.00    +0.000 A 
ATOM     31  C   UNL     1       7.755   3.117  12.017  0.00  0.00    +0.000 A 
ATOM     32  C   UNL     1       7.459   2.091  11.117  0.00  0.00    +0.000 A 
ATOM     33  C   UNL     1       6.134   1.707  10.907  0.00  0.00    +0.000 A 
ATOM     34  C   UNL     1       5.103   2.361  11.586  0.00  0.00    +0.000 A 
ATOM     35  C   UNL     1       5.400   3.383  12.488  0.00  0.00    +0.000 A 
ATOM     36  F   UNL     1       4.387   3.989  13.122  0.00  0.00    +0.000 F 
ENDBRANCH  27  30
ENDBRANCH  25  27
ENDBRANCH  23  25
ENDBRANCH   1  23
TORSDOF 7
ENDMDL
MODEL 5
REMARK VINA RESULT:      -7.2      3.245      6.972
REMARK  Name = 
REMARK  9 active torsions:
REMARK  status: ('A' for Active; 'I' for Inactive)
REMARK    1  A    between atoms: C_1  and  C_2
REMARK    2  A    between atoms: C_2  and  C_3
REMARK    3  A    between atoms: C_2  and  N_4
REMARK    4  A    between atoms: C_2  and  C_15
REMARK    5  A    between atoms: N_4  and  S_5
REMARK    6  A    between atoms: S_5  and  C_8
REMARK    7  A    between atoms: N_17  and  C_18
REMARK    8  A    between atoms: C_25  and  C_26
REMARK    9  A    between atoms: N_28  and  N_29
REMARK                            x       y       z     vdW  Elec       q    Type
REMARK                         _______ _______ _______ _____ _____    ______ ____
ROOT
ATOM      1  C   UNL     1       5.276   6.923  17.533  0.00  0.00    +0.000 C 
ATOM      2  O   UNL     1       4.542   7.474  16.714  0.00  0.00    +0.000 OA
ATOM      3  N   UNL     1       4.774   6.115  18.535  0.00  0.00    +0.000 N 
ATOM      4  H   UNL     1       5.415   5.839  19.267  0.00  0.00    +0.000 HD
ENDROOT
BRANCH   3   5
ATOM      5  C   UNL     1       3.346   5.817  18.742  0.00  0.00    +0.000 C 
ATOM      6  C   UNL     1       2.743   4.817  17.715  0.00  0.00    +0.000 C 
ATOM      7  C   UNL     1       1.240   4.605  18.021  0.00  0.00    +0.000 C 
ATOM      8  C   UNL     1       1.056   4.031  19.435  0.00  0.00    +0.000 C 
ATOM      9  C   UNL     1       1.652   5.018  20.445  0.00  0.00    +0.000 C 
ATOM     10  C   UNL     1       3.150   5.227  20.161  0.00  0.00    +0.000 C 
ATOM     11  C   UNL     1       3.865   3.864  20.259  0.00  0.00    +0.000 C 
ATOM     12  C   UNL     1       3.291   2.855  19.231  0.00  0.00    +0.000 C 
ATOM     13  C   UNL     1       1.786   2.676  19.541  0.00  0.00    +0.000 C 
ATOM     14  C   UNL     1       3.441   3.449  17.810  0.00  0.00    +0.000 C 
BRANCH  12  15
ATOM     15  C   UNL     1       4.062   1.530  19.322  0.00  0.00    +0.000 C 
ATOM     16  O   UNL     1       3.835   0.571  18.583  0.00  0.00    +0.000 OA
ATOM     17  N   UNL     1       5.004   1.460  20.341  0.00  0.00    +0.000 N 
ATOM     18  H   UNL     1       5.298   2.295  20.842  0.00  0.00    +0.000 HD
BRANCH  17  19
ATOM     19  N   UNL     1       5.754   0.276  20.508  0.00  0.00    +0.000 NA
ATOM     20  H   UNL     1       5.366  -0.205  21.334  0.00  0.00    +0.000 HD
ATOM     21  H   UNL     1       6.698   0.541  20.804  0.00  0.00    +0.000 HD
ENDBRANCH  17  19
ENDBRANCH  12  15
ENDBRANCH   3   5
BRANCH   1  23
ATOM     22  C   UNL     1       7.398   6.393  18.773  0.00  0.00    +0.000 C 
ATOM     23  C   UNL     1       6.842   7.051  17.509  0.00  0.00    +0.000 C 
ATOM     24  C   UNL     1       7.196   8.545  17.479  0.00  0.00    +0.000 C 
BRANCH  23  25
ATOM     25  N   UNL     1       7.350   6.370  16.289  0.00  0.00    +0.000 NA
ATOM     26  H   UNL     1       8.156   6.755  15.804  0.00  0.00    +0.000 HD
BRANCH  25  27
ATOM     27  S   UNL     1       7.077   4.759  15.904  0.00  0.00    +0.000 S 
ATOM     28  O   UNL     1       8.211   4.033  16.434  0.00  0.00    +0.000 OA
ATOM     29  O   UNL     1       5.737   4.409  16.308  0.00  0.00    +0.000 OA
BRANCH  27  30
ATOM     30  C   UNL     1       7.160   4.658  14.147  0.00  0.00    +0.000 A 
ATOM     31  C   UNL     1       7.968   5.549  13.426  0.00  0.00    +0.000 A 
ATOM     32  C   UNL     1       8.002   5.483  12.031  0.00  0.00    +0.000 A 
ATOM     33  C   UNL     1       7.222   4.542  11.358  0.00  0.00    +0.000 A 
ATOM     34  C   UNL     1       6.396   3.676  12.081  0.00  0.00    +0.000 A 
ATOM     35  C   UNL     1       6.366   3.740  13.473  0.00  0.00    +0.000 A 
ATOM     36  F   UNL     1       5.564   2.896  14.135  0.00  0.00    +0.000 F 
ENDBRANCH  27  30
ENDBRANCH  25  27
ENDBRANCH  23  25
ENDBRANCH   1  23
TORSDOF 7
ENDMDL
MODEL 6
REMARK VINA RESULT:      -7.1      4.171      6.115
REMARK  Name = 
REMARK  9 active torsions:
REMARK  status: ('A' for Active; 'I' for Inactive)
REMARK    1  A    between atoms: C_1  and  C_2
REMARK    2  A    between atoms: C_2  and  C_3
REMARK    3  A    between atoms: C_2  and  N_4
REMARK    4  A    between atoms: C_2  and  C_15
REMARK    5  A    between atoms: N_4  and  S_5
REMARK    6  A    between atoms: S_5  and  C_8
REMARK    7  A    between atoms: N_17  and  C_18
REMARK    8  A    between atoms: C_25  and  C_26
REMARK    9  A    between atoms: N_28  and  N_29
REMARK                            x       y       z     vdW  Elec       q    Type
REMARK                         _______ _______ _______ _____ _____    ______ ____
ROOT
ATOM      1  C   UNL     1       2.197   8.617  18.146  0.00  0.00    +0.000 C 
ATOM      2  O   UNL     1       2.745   8.929  17.090  0.00  0.00    +0.000 OA
ATOM      3  N   UNL     1       2.511   7.448  18.812  0.00  0.00    +0.000 N 
ATOM      4  H   UNL     1       1.904   7.176  19.574  0.00  0.00    +0.000 HD
ENDROOT
BRANCH   3   5
ATOM      5  C   UNL     1       3.508   6.462  18.362  0.00  0.00    +0.000 C 
ATOM      6  C   UNL     1       4.252   5.727  19.514  0.00  0.00    +0.000 C 
ATOM      7  C   UNL     1       5.285   4.741  18.917  0.00  0.00    +0.000 C 
ATOM      8  C   UNL     1       4.582   3.695  18.036  0.00  0.00    +0.000 C 
ATOM      9  C   UNL     1       3.850   4.422  16.902  0.00  0.00    +0.000 C 
ATOM     10  C   UNL     1       2.809   5.396  17.482  0.00  0.00    +0.000 C 
ATOM     11  C   UNL     1       1.808   4.593  18.338  0.00  0.00    +0.000 C 
ATOM     12  C   UNL     1       2.525   3.865  19.504  0.00  0.00    +0.000 C 
ATOM     13  C   UNL     1       3.566   2.903  18.886  0.00  0.00    +0.000 C 
ATOM     14  C   UNL     1       3.264   4.914  20.369  0.00  0.00    +0.000 C 
BRANCH  12  15
ATOM     15  C   UNL     1       1.490   3.123  20.364  0.00  0.00    +0.000 C 
ATOM     16  O   UNL     1       0.421   2.708  19.915  0.00  0.00    +0.000 OA
ATOM     17  N   UNL     1       1.815   3.000  21.709  0.00  0.00    +0.000 N 
ATOM     18  H   UNL     1       2.755   3.200  22.043  0.00  0.00    +0.000 HD
BRANCH  17  19
ATOM     19  N   UNL     1       0.918   2.342  22.578  0.00  0.00    +0.000 NA
ATOM     20  H   UNL     1       0.231   1.857  21.982  0.00  0.00    +0.000 HD
ATOM     21  H   UNL     1       0.361   3.057  23.055  0.00  0.00    +0.000 HD
ENDBRANCH  17  19
ENDBRANCH  12  15
ENDBRANCH   3   5
BRANCH   1  23
ATOM     22  C   UNL     1       0.873   8.951  20.257  0.00  0.00    +0.000 C 
ATOM     23  C   UNL     1       1.122   9.515  18.857  0.00  0.00    +0.000 C 
ATOM     24  C   UNL     1      -0.164   9.468  18.020  0.00  0.00    +0.000 C 
BRANCH  23  25
ATOM     25  N   UNL     1       1.646  10.905  18.931  0.00  0.00    +0.000 NA
ATOM     26  H   UNL     1       2.207  11.266  18.165  0.00  0.00    +0.000 HD
BRANCH  25  27
ATOM     27  S   UNL     1       1.000  12.124  19.887  0.00  0.00    +0.000 S 
ATOM     28  O   UNL     1      -0.423  12.116  19.622  0.00  0.00    +0.000 OA
ATOM     29  O   UNL     1       1.489  11.964  21.234  0.00  0.00    +0.000 OA
BRANCH  27  30
ATOM     30  C   UNL     1       1.646  13.635  19.249  0.00  0.00    +0.000 A 
ATOM     31  C   UNL     1       2.654  13.616  18.275  0.00  0.00    +0.000 A 
ATOM     32  C   UNL     1       3.184  14.818  17.800  0.00  0.00    +0.000 A 
ATOM     33  C   UNL     1       2.719  16.033  18.305  0.00  0.00    +0.000 A 
ATOM     34  C   UNL     1       1.734  16.045  19.296  0.00  0.00    +0.000 A 
ATOM     35  C   UNL     1       1.203  14.844  19.767  0.00  0.00    +0.000 A 
ATOM     36  F   UNL     1       0.261  14.891  20.718  0.00  0.00    +0.000 F 
ENDBRANCH  27  30
ENDBRANCH  25  27
ENDBRANCH  23  25
ENDBRANCH   1  23
TORSDOF 7
ENDMDL
MODEL 7
REMARK VINA RESULT:      -7.1      3.066      7.483
REMARK  Name = 
REMARK  9 active torsions:
REMARK  status: ('A' for Active; 'I' for Inactive)
REMARK    1  A    between atoms: C_1  and  C_2
REMARK    2  A    between atoms: C_2  and  C_3
REMARK    3  A    between atoms: C_2  and  N_4
REMARK    4  A    between atoms: C_2  and  C_15
REMARK    5  A    between atoms: N_4  and  S_5
REMARK    6  A    between atoms: S_5  and  C_8
REMARK    7  A    between atoms: N_17  and  C_18
REMARK    8  A    between atoms: C_25  and  C_26
REMARK    9  A    between atoms: N_28  and  N_29
REMARK                            x       y       z     vdW  Elec       q    Type
REMARK                         _______ _______ _______ _____ _____    ______ ____
ROOT
ATOM      1  C   UNL     1       2.580   6.929  19.157  0.00  0.00    +0.000 C 
ATOM      2  O   UNL     1       3.579   7.294  18.539  0.00  0.00    +0.000 OA
ATOM      3  N   UNL     1       1.715   7.831  19.744  0.00  0.00    +0.000 N 
ATOM      4  H   UNL     1       1.019   7.457  20.374  0.00  0.00    +0.000 HD
ENDROOT
BRANCH   3   5
ATOM      5  C   UNL     1       1.870   9.296  19.705  0.00  0.00    +0.000 C 
ATOM      6  C   UNL     1       1.871   9.905  18.274  0.00  0.00    +0.000 C 
ATOM      7  C   UNL     1       2.064  11.438  18.364  0.00  0.00    +0.000 C 
ATOM      8  C   UNL     1       0.922  12.076  19.171  0.00  0.00    +0.000 C 
ATOM      9  C   UNL     1       0.923  11.474  20.581  0.00  0.00    +0.000 C 
ATOM     10  C   UNL     1       0.718   9.951  20.507  0.00  0.00    +0.000 C 
ATOM     11  C   UNL     1      -0.627   9.669  19.806  0.00  0.00    +0.000 C 
ATOM     12  C   UNL     1      -0.642  10.253  18.369  0.00  0.00    +0.000 C 
ATOM     13  C   UNL     1      -0.426  11.780  18.482  0.00  0.00    +0.000 C 
ATOM     14  C   UNL     1       0.530   9.639  17.567  0.00  0.00    +0.000 C 
BRANCH  12  15
ATOM     15  C   UNL     1      -1.974   9.906  17.685  0.00  0.00    +0.000 C 
ATOM     16  O   UNL     1      -2.921   9.396  18.284  0.00  0.00    +0.000 OA
ATOM     17  N   UNL     1      -2.021  10.154  16.319  0.00  0.00    +0.000 N 
ATOM     18  H   UNL     1      -1.305  10.713  15.861  0.00  0.00    +0.000 HD
BRANCH  17  19
ATOM     19  N   UNL     1      -3.201   9.856  15.603  0.00  0.00    +0.000 NA
ATOM     20  H   UNL     1      -2.962   9.918  14.602  0.00  0.00    +0.000 HD
ATOM     21  H   UNL     1      -3.857  10.630  15.743  0.00  0.00    +0.000 HD
ENDBRANCH  17  19
ENDBRANCH  12  15
ENDBRANCH   3   5
BRANCH   1  23
ATOM     22  C   UNL     1       1.712   4.901  17.949  0.00  0.00    +0.000 C 
ATOM     23  C   UNL     1       2.169   5.420  19.314  0.00  0.00    +0.000 C 
ATOM     24  C   UNL     1       1.022   5.344  20.331  0.00  0.00    +0.000 C 
BRANCH  23  25
ATOM     25  N   UNL     1       3.351   4.659  19.801  0.00  0.00    +0.000 NA
ATOM     26  H   UNL     1       3.554   4.641  20.797  0.00  0.00    +0.000 HD
BRANCH  25  27
ATOM     27  S   UNL     1       4.097   3.408  18.969  0.00  0.00    +0.000 S 
ATOM     28  O   UNL     1       4.945   2.746  19.937  0.00  0.00    +0.000 OA
ATOM     29  O   UNL     1       3.088   2.662  18.256  0.00  0.00    +0.000 OA
BRANCH  27  30
ATOM     30  C   UNL     1       5.150   4.173  17.781  0.00  0.00    +0.000 A 
ATOM     31  C   UNL     1       4.992   3.895  16.415  0.00  0.00    +0.000 A 
ATOM     32  C   UNL     1       5.853   4.481  15.484  0.00  0.00    +0.000 A 
ATOM     33  C   UNL     1       6.874   5.329  15.914  0.00  0.00    +0.000 A 
ATOM     34  C   UNL     1       7.043   5.579  17.278  0.00  0.00    +0.000 A 
ATOM     35  C   UNL     1       6.181   4.997  18.207  0.00  0.00    +0.000 A 
ATOM     36  F   UNL     1       6.372   5.258  19.508  0.00  0.00    +0.000 F 
ENDBRANCH  27  30
ENDBRANCH  25  27
ENDBRANCH  23  25
ENDBRANCH   1  23
TORSDOF 7
ENDMDL
MODEL 8
REMARK VINA RESULT:      -7.0      2.556      3.988
REMARK  Name = 
REMARK  9 active torsions:
REMARK  status: ('A' for Active; 'I' for Inactive)
REMARK    1  A    between atoms: C_1  and  C_2
REMARK    2  A    between atoms: C_2  and  C_3
REMARK    3  A    between atoms: C_2  and  N_4
REMARK    4  A    between atoms: C_2  and  C_15
REMARK    5  A    between atoms: N_4  and  S_5
REMARK    6  A    between atoms: S_5  and  C_8
REMARK    7  A    between atoms: N_17  and  C_18
REMARK    8  A    between atoms: C_25  and  C_26
REMARK    9  A    between atoms: N_28  and  N_29
REMARK                            x       y       z     vdW  Elec       q    Type
REMARK                         _______ _______ _______ _____ _____    ______ ____
ROOT
ATOM      1  C   UNL     1       4.707   2.919  19.455  0.00  0.00    +0.000 C 
ATOM      2  O   UNL     1       5.165   3.104  20.581  0.00  0.00    +0.000 OA
ATOM      3  N   UNL     1       4.905   3.824  18.429  0.00  0.00    +0.000 N 
ATOM      4  H   UNL     1       4.360   3.691  17.589  0.00  0.00    +0.000 HD
ENDROOT
BRANCH   3   5
ATOM      5  C   UNL     1       5.665   5.080  18.548  0.00  0.00    +0.000 C 
ATOM      6  C   UNL     1       7.195   4.931  18.309  0.00  0.00    +0.000 C 
ATOM      7  C   UNL     1       7.882   6.306  18.484  0.00  0.00    +0.000 C 
ATOM      8  C   UNL     1       7.321   7.320  17.473  0.00  0.00    +0.000 C 
ATOM      9  C   UNL     1       5.814   7.465  17.710  0.00  0.00    +0.000 C 
ATOM     10  C   UNL     1       5.115   6.106  17.525  0.00  0.00    +0.000 C 
ATOM     11  C   UNL     1       5.386   5.605  16.092  0.00  0.00    +0.000 C 
ATOM     12  C   UNL     1       6.905   5.432  15.836  0.00  0.00    +0.000 C 
ATOM     13  C   UNL     1       7.574   6.812  16.038  0.00  0.00    +0.000 C 
ATOM     14  C   UNL     1       7.478   4.441  16.878  0.00  0.00    +0.000 C 
BRANCH  12  15
ATOM     15  C   UNL     1       7.131   4.881  14.420  0.00  0.00    +0.000 C 
ATOM     16  O   UNL     1       7.906   5.400  13.615  0.00  0.00    +0.000 OA
ATOM     17  N   UNL     1       6.353   3.781  14.080  0.00  0.00    +0.000 N 
ATOM     18  H   UNL     1       5.837   3.264  14.787  0.00  0.00    +0.000 HD
BRANCH  17  19
ATOM     19  N   UNL     1       6.485   3.213  12.794  0.00  0.00    +0.000 NA
ATOM     20  H   UNL     1       6.767   3.978  12.162  0.00  0.00    +0.000 HD
ATOM     21  H   UNL     1       5.549   2.961  12.464  0.00  0.00    +0.000 HD
ENDBRANCH  17  19
ENDBRANCH  12  15
ENDBRANCH   3   5
BRANCH   1  23
ATOM     22  C   UNL     1       4.406   0.460  19.887  0.00  0.00    +0.000 C 
ATOM     23  C   UNL     1       3.889   1.638  19.058  0.00  0.00    +0.000 C 
ATOM     24  C   UNL     1       4.106   1.380  17.561  0.00  0.00    +0.000 C 
BRANCH  23  25
ATOM     25  N   UNL     1       2.451   1.894  19.341  0.00  0.00    +0.000 NA
ATOM     26  H   UNL     1       2.098   1.760  20.285  0.00  0.00    +0.000 HD
BRANCH  25  27
ATOM     27  S   UNL     1       1.447   2.865  18.410  0.00  0.00    +0.000 S 
ATOM     28  O   UNL     1       2.029   2.871  17.086  0.00  0.00    +0.000 OA
ATOM     29  O   UNL     1       0.083   2.437  18.602  0.00  0.00    +0.000 OA
BRANCH  27  30
ATOM     30  C   UNL     1       1.605   4.494  19.064  0.00  0.00    +0.000 A 
ATOM     31  C   UNL     1       1.937   5.564  18.221  0.00  0.00    +0.000 A 
ATOM     32  C   UNL     1       2.092   6.845  18.753  0.00  0.00    +0.000 A 
ATOM     33  C   UNL     1       1.931   7.056  20.123  0.00  0.00    +0.000 A 
ATOM     34  C   UNL     1       1.628   5.981  20.962  0.00  0.00    +0.000 A 
ATOM     35  C   UNL     1       1.469   4.702  20.429  0.00  0.00    +0.000 A 
ATOM     36  F   UNL     1       1.179   3.693  21.262  0.00  0.00    +0.000 F 
ENDBRANCH  27  30
ENDBRANCH  25  27
ENDBRANCH  23  25
ENDBRANCH   1  23
TORSDOF 7
ENDMDL
MODEL 9
REMARK VINA RESULT:      -7.0      1.171      1.386
REMARK  Name = 
REMARK  9 active torsions:
REMARK  status: ('A' for Active; 'I' for Inactive)
REMARK    1  A    between atoms: C_1  and  C_2
REMARK    2  A    between atoms: C_2  and  C_3
REMARK    3  A    between atoms: C_2  and  N_4
REMARK    4  A    between atoms: C_2  and  C_15
REMARK    5  A    between atoms: N_4  and  S_5
REMARK    6  A    between atoms: S_5  and  C_8
REMARK    7  A    between atoms: N_17  and  C_18
REMARK    8  A    between atoms: C_25  and  C_26
REMARK    9  A    between atoms: N_28  and  N_29
REMARK                            x       y       z     vdW  Elec       q    Type
REMARK                         _______ _______ _______ _____ _____    ______ ____
ROOT
ATOM      1  C   UNL     1       1.991   4.121  18.326  0.00  0.00    +0.000 C 
ATOM      2  O   UNL     1       1.316   3.772  17.360  0.00  0.00    +0.000 OA
ATOM      3  N   UNL     1       3.284   4.584  18.183  0.00  0.00    +0.000 N 
ATOM      4  H   UNL     1       3.831   4.688  19.027  0.00  0.00    +0.000 HD
ENDROOT
BRANCH   3   5
ATOM      5  C   UNL     1       3.996   4.717  16.900  0.00  0.00    +0.000 C 
ATOM      6  C   UNL     1       4.513   6.152  16.598  0.00  0.00    +0.000 C 
ATOM      7  C   UNL     1       5.216   6.169  15.219  0.00  0.00    +0.000 C 
ATOM      8  C   UNL     1       6.412   5.202  15.215  0.00  0.00    +0.000 C 
ATOM      9  C   UNL     1       5.899   3.788  15.513  0.00  0.00    +0.000 C 
ATOM     10  C   UNL     1       5.209   3.755  16.888  0.00  0.00    +0.000 C 
ATOM     11  C   UNL     1       6.228   4.192  17.961  0.00  0.00    +0.000 C 
ATOM     12  C   UNL     1       6.745   5.628  17.689  0.00  0.00    +0.000 C 
ATOM     13  C   UNL     1       7.424   5.626  16.299  0.00  0.00    +0.000 C 
ATOM     14  C   UNL     1       5.539   6.597  17.655  0.00  0.00    +0.000 C 
BRANCH  12  15
ATOM     15  C   UNL     1       7.714   6.048  18.805  0.00  0.00    +0.000 C 
ATOM     16  O   UNL     1       8.429   7.048  18.730  0.00  0.00    +0.000 OA
ATOM     17  N   UNL     1       7.775   5.186  19.893  0.00  0.00    +0.000 N 
ATOM     18  H   UNL     1       7.080   4.456  20.025  0.00  0.00    +0.000 HD
BRANCH  17  19
ATOM     19  N   UNL     1       8.647   5.485  20.963  0.00  0.00    +0.000 NA
ATOM     20  H   UNL     1       9.399   4.779  20.937  0.00  0.00    +0.000 HD
ATOM     21  H   UNL     1       8.154   5.280  21.837  0.00  0.00    +0.000 HD
ENDBRANCH  17  19
ENDBRANCH  12  15
ENDBRANCH   3   5
BRANCH   1  23
ATOM     22  C   UNL     1       2.544   3.539  20.709  0.00  0.00    +0.000 C 
ATOM     23  C   UNL     1       1.452   4.109  19.802  0.00  0.00    +0.000 C 
ATOM     24  C   UNL     1       0.200   3.222  19.843  0.00  0.00    +0.000 C 
BRANCH  23  25
ATOM     25  N   UNL     1       1.115   5.505  20.191  0.00  0.00    +0.000 NA
ATOM     26  H   UNL     1       0.624   5.673  21.064  0.00  0.00    +0.000 HD
BRANCH  25  27
ATOM     27  S   UNL     1       1.896   6.876  19.617  0.00  0.00    +0.000 S 
ATOM     28  O   UNL     1       3.259   6.777  20.093  0.00  0.00    +0.000 OA
ATOM     29  O   UNL     1       1.627   7.004  18.206  0.00  0.00    +0.000 OA
BRANCH  27  30
ATOM     30  C   UNL     1       1.147   8.242  20.441  0.00  0.00    +0.000 A 
ATOM     31  C   UNL     1       0.438   8.044  21.635  0.00  0.00    +0.000 A 
ATOM     32  C   UNL     1      -0.180   9.128  22.263  0.00  0.00    +0.000 A 
ATOM     33  C   UNL     1      -0.103  10.400  21.695  0.00  0.00    +0.000 A 
ATOM     34  C   UNL     1       0.580  10.585  20.491  0.00  0.00    +0.000 A 
ATOM     35  C   UNL     1       1.201   9.504  19.866  0.00  0.00    +0.000 A 
ATOM     36  F   UNL     1       1.847   9.717  18.712  0.00  0.00    +0.000 F 
ENDBRANCH  27  30
ENDBRANCH  25  27
ENDBRANCH  23  25
ENDBRANCH   1  23
TORSDOF 7
ENDMDL
