MODEL 1
REMARK VINA RESULT:      -8.2      0.000      0.000
REMARK  Name = 
REMARK  11 active torsions:
REMARK  status: ('A' for Active; 'I' for Inactive)
REMARK    1  A    between atoms: C_1  and  C_2
REMARK    2  A    between atoms: C_3  and  C_4
REMARK    3  A    between atoms: C_3  and  C_5
REMARK    4  A    between atoms: C_5  and  O_7
REMARK    5  A    between atoms: O_7  and  C_8
REMARK    6  A    between atoms: C_21  and  C_22
REMARK    7  A    between atoms: C_22  and  C_23
REMARK    8  A    between atoms: C_22  and  C_24
REMARK    9  A    between atoms: C_22  and  O_25
REMARK   10  A    between atoms: O_25  and  C_26
REMARK   11  A    between atoms: C_26  and  C_27
REMARK                            x       y       z     vdW  Elec       q    Type
REMARK                         _______ _______ _______ _____ _____    ______ ____
ROOT
ATOM      1  C   UNL     1       3.443   5.821  17.747  0.00  0.00    +0.000 C 
ATOM      2  C   UNL     1       3.534   4.459  18.444  0.00  0.00    +0.000 A 
ATOM      3  C   UNL     1       3.214   3.712  17.347  0.00  0.00    +0.000 A 
ATOM      4  C   UNL     1       1.862   3.362  17.297  0.00  0.00    +0.000 A 
ATOM      5  C   UNL     1       1.068   3.466  18.486  0.00  0.00    +0.000 A 
ATOM      6  C   UNL     1       1.698   3.700  19.713  0.00  0.00    +0.000 A 
ATOM      7  C   UNL     1       1.201   3.317  21.026  0.00  0.00    +0.000 A 
ATOM      8  C   UNL     1       2.025   2.607  21.805  0.00  0.00    +0.000 A 
ATOM      9  C   UNL     1       3.412   2.317  21.374  0.00  0.00    +0.000 A 
ATOM     10  O   UNL     1       4.074   1.412  21.867  0.00  0.00    +0.000 OA
ATOM     11  O   UNL     1       3.916   3.227  20.441  0.00  0.00    +0.000 OA
ATOM     12  C   UNL     1       3.021   4.065  19.654  0.00  0.00    +0.000 A 
ATOM     13  O   UNL     1       4.019   4.116  16.273  0.00  0.00    +0.000 OA
ATOM     14  C   UNL     1       4.502   5.469  16.704  0.00  0.00    +0.000 C 
ENDROOT
BRANCH  14  15
ATOM     15  C   UNL     1       5.992   5.620  17.213  0.00  0.00    +0.000 C 
ATOM     16  C   UNL     1       6.438   7.102  17.115  0.00  0.00    +0.000 C 
ATOM     17  C   UNL     1       6.251   5.200  18.675  0.00  0.00    +0.000 C 
BRANCH  15  18
ATOM     18  O   UNL     1       6.927   4.766  16.494  0.00  0.00    +0.000 OA
BRANCH  18  19
ATOM     19  C   UNL     1       7.138   4.885  15.165  0.00  0.00    +0.000 C 
ATOM     20  C   UNL     1       6.350   3.834  14.433  0.00  0.00    +0.000 C 
ATOM     21  O   UNL     1       7.907   5.667  14.631  0.00  0.00    +0.000 OA
ENDBRANCH  18  19
ENDBRANCH  15  18
ENDBRANCH  14  15
BRANCH   1  22
ATOM     22  O   UNL     1       3.542   6.905  18.620  0.00  0.00    +0.000 OA
BRANCH  22  23
ATOM     23  C   UNL     1       2.671   7.898  18.262  0.00  0.00    +0.000 C 
ATOM     24  O   UNL     1       2.506   8.348  17.136  0.00  0.00    +0.000 OA
BRANCH  23  27
ATOM     25  C   UNL     1       1.176  10.539  18.469  0.00  0.00    +0.000 C 
ATOM     26  C   UNL     1       1.175   9.429  19.485  0.00  0.00    +0.000 C 
ATOM     27  C   UNL     1       1.843   8.264  19.434  0.00  0.00    +0.000 C 
ATOM     28  C   UNL     1       1.755   7.231  20.518  0.00  0.00    +0.000 C 
ENDBRANCH  23  27
ENDBRANCH  22  23
ENDBRANCH   1  22
TORSDOF 6
ENDMDL
MODEL 2
REMARK VINA RESULT:      -8.1      1.048      1.707
REMARK  Name = 
REMARK  11 active torsions:
REMARK  status: ('A' for Active; 'I' for Inactive)
REMARK    1  A    between atoms: C_1  and  C_2
REMARK    2  A    between atoms: C_3  and  C_4
REMARK    3  A    between atoms: C_3  and  C_5
REMARK    4  A    between atoms: C_5  and  O_7
REMARK    5  A    between atoms: O_7  and  C_8
REMARK    6  A    between atoms: C_21  and  C_22
REMARK    7  A    between atoms: C_22  and  C_23
REMARK    8  A    between atoms: C_22  and  C_24
REMARK    9  A    between atoms: C_22  and  O_25
REMARK   10  A    between atoms: O_25  and  C_26
REMARK   11  A    between atoms: C_26  and  C_27
REMARK                            x       y       z     vdW  Elec       q    Type
REMARK                         _______ _______ _______ _____ _____    ______ ____
ROOT
ATOM      1  C   UNL     1       3.638   5.779  17.594  0.00  0.00    +0.000 C 
ATOM      2  C   UNL     1       3.940   4.405  18.203  0.00  0.00    +0.000 A 
ATOM      3  C   UNL     1       3.617   3.679  17.093  0.00  0.00    +0.000 A 
ATOM      4  C   UNL     1       2.314   3.176  17.126  0.00  0.00    +0.000 A 
ATOM      5  C   UNL     1       1.615   3.128  18.376  0.00  0.00    +0.000 A 
ATOM      6  C   UNL     1       2.313   3.375  19.563  0.00  0.00    +0.000 A 
ATOM      7  C   UNL     1       1.973   2.874  20.885  0.00  0.00    +0.000 A 
ATOM      8  C   UNL     1       2.933   2.229  21.557  0.00  0.00    +0.000 A 
ATOM      9  C   UNL     1       4.304   2.124  21.006  0.00  0.00    +0.000 A 
ATOM     10  O   UNL     1       5.103   1.281  21.394  0.00  0.00    +0.000 OA
ATOM     11  O   UNL     1       4.623   3.131  20.091  0.00  0.00    +0.000 OA
ATOM     12  C   UNL     1       3.577   3.895  19.424  0.00  0.00    +0.000 A 
ATOM     13  O   UNL     1       4.280   4.226  15.986  0.00  0.00    +0.000 OA
ATOM     14  C   UNL     1       4.641   5.604  16.455  0.00  0.00    +0.000 C 
ENDROOT
BRANCH  14  15
ATOM     15  C   UNL     1       6.141   5.905  16.857  0.00  0.00    +0.000 C 
ATOM     16  C   UNL     1       7.099   5.383  15.756  0.00  0.00    +0.000 C 
ATOM     17  C   UNL     1       6.500   7.392  17.055  0.00  0.00    +0.000 C 
BRANCH  15  18
ATOM     18  O   UNL     1       6.506   5.341  18.149  0.00  0.00    +0.000 OA
BRANCH  18  19
ATOM     19  C   UNL     1       7.767   4.951  18.436  0.00  0.00    +0.000 C 
ATOM     20  C   UNL     1       8.299   5.765  19.582  0.00  0.00    +0.000 C 
ATOM     21  O   UNL     1       8.416   4.122  17.820  0.00  0.00    +0.000 OA
ENDBRANCH  18  19
ENDBRANCH  15  18
ENDBRANCH  14  15
BRANCH   1  22
ATOM     22  O   UNL     1       3.685   6.823  18.518  0.00  0.00    +0.000 OA
BRANCH  22  23
ATOM     23  C   UNL     1       2.767   7.789  18.206  0.00  0.00    +0.000 C 
ATOM     24  O   UNL     1       2.577   8.280  17.102  0.00  0.00    +0.000 OA
BRANCH  23  27
ATOM     25  C   UNL     1       1.249  10.396  18.589  0.00  0.00    +0.000 C 
ATOM     26  C   UNL     1       1.250   9.217  19.524  0.00  0.00    +0.000 C 
ATOM     27  C   UNL     1       1.928   8.064  19.396  0.00  0.00    +0.000 C 
ATOM     28  C   UNL     1       1.842   6.956  20.402  0.00  0.00    +0.000 C 
ENDBRANCH  23  27
ENDBRANCH  22  23
ENDBRANCH   1  22
TORSDOF 6
ENDMDL
MODEL 3
REMARK VINA RESULT:      -7.9      1.060      1.811
REMARK  Name = 
REMARK  11 active torsions:
REMARK  status: ('A' for Active; 'I' for Inactive)
REMARK    1  A    between atoms: C_1  and  C_2
REMARK    2  A    between atoms: C_3  and  C_4
REMARK    3  A    between atoms: C_3  and  C_5
REMARK    4  A    between atoms: C_5  and  O_7
REMARK    5  A    between atoms: O_7  and  C_8
REMARK    6  A    between atoms: C_21  and  C_22
REMARK    7  A    between atoms: C_22  and  C_23
REMARK    8  A    between atoms: C_22  and  C_24
REMARK    9  A    between atoms: C_22  and  O_25
REMARK   10  A    between atoms: O_25  and  C_26
REMARK   11  A    between atoms: C_26  and  C_27
REMARK                            x       y       z     vdW  Elec       q    Type
REMARK                         _______ _______ _______ _____ _____    ______ ____
ROOT
ATOM      1  C   UNL     1       3.668   5.903  17.673  0.00  0.00    +0.000 C 
ATOM      2  C   UNL     1       3.671   4.551  18.394  0.00  0.00    +0.000 A 
ATOM      3  C   UNL     1       3.488   3.788  17.277  0.00  0.00    +0.000 A 
ATOM      4  C   UNL     1       2.151   3.437  17.066  0.00  0.00    +0.000 A 
ATOM      5  C   UNL     1       1.218   3.556  18.147  0.00  0.00    +0.000 A 
ATOM      6  C   UNL     1       1.693   3.807  19.439  0.00  0.00    +0.000 A 
ATOM      7  C   UNL     1       1.039   3.442  20.686  0.00  0.00    +0.000 A 
ATOM      8  C   UNL     1       1.760   2.743  21.569  0.00  0.00    +0.000 A 
ATOM      9  C   UNL     1       3.189   2.448  21.316  0.00  0.00    +0.000 A 
ATOM     10  O   UNL     1       3.786   1.550  21.898  0.00  0.00    +0.000 OA
ATOM     11  O   UNL     1       3.805   3.345  20.440  0.00  0.00    +0.000 OA
ATOM     12  C   UNL     1       3.014   4.172  19.537  0.00  0.00    +0.000 A 
ATOM     13  O   UNL     1       4.418   4.178  16.304  0.00  0.00    +0.000 OA
ATOM     14  C   UNL     1       4.846   5.537  16.772  0.00  0.00    +0.000 C 
ENDROOT
BRANCH  14  15
ATOM     15  C   UNL     1       6.262   5.697  17.458  0.00  0.00    +0.000 C 
ATOM     16  C   UNL     1       6.129   5.536  18.994  0.00  0.00    +0.000 C 
ATOM     17  C   UNL     1       7.341   4.682  17.023  0.00  0.00    +0.000 C 
BRANCH  15  18
ATOM     18  O   UNL     1       6.908   6.963  17.140  0.00  0.00    +0.000 OA
BRANCH  18  19
ATOM     19  C   UNL     1       7.785   7.557  17.978  0.00  0.00    +0.000 C 
ATOM     20  C   UNL     1       7.918   9.011  17.620  0.00  0.00    +0.000 C 
ATOM     21  O   UNL     1       8.436   6.998  18.845  0.00  0.00    +0.000 OA
ENDBRANCH  18  19
ENDBRANCH  15  18
ENDBRANCH  14  15
BRANCH   1  22
ATOM     22  O   UNL     1       3.660   6.998  18.536  0.00  0.00    +0.000 OA
BRANCH  22  23
ATOM     23  C   UNL     1       2.708   7.907  18.160  0.00  0.00    +0.000 C 
ATOM     24  O   UNL     1       2.470   8.277  17.019  0.00  0.00    +0.000 OA
BRANCH  23  27
ATOM     25  C   UNL     1       1.184  10.532  18.351  0.00  0.00    +0.000 C 
ATOM     26  C   UNL     1       1.220   9.442  19.387  0.00  0.00    +0.000 C 
ATOM     27  C   UNL     1       1.901   8.284  19.343  0.00  0.00    +0.000 C 
ATOM     28  C   UNL     1       1.851   7.271  20.448  0.00  0.00    +0.000 C 
ENDBRANCH  23  27
ENDBRANCH  22  23
ENDBRANCH   1  22
TORSDOF 6
ENDMDL
MODEL 4
REMARK VINA RESULT:      -7.6      1.338      2.133
REMARK  Name = 
REMARK  11 active torsions:
REMARK  status: ('A' for Active; 'I' for Inactive)
REMARK    1  A    between atoms: C_1  and  C_2
REMARK    2  A    between atoms: C_3  and  C_4
REMARK    3  A    between atoms: C_3  and  C_5
REMARK    4  A    between atoms: C_5  and  O_7
REMARK    5  A    between atoms: O_7  and  C_8
REMARK    6  A    between atoms: C_21  and  C_22
REMARK    7  A    between atoms: C_22  and  C_23
REMARK    8  A    between atoms: C_22  and  C_24
REMARK    9  A    between atoms: C_22  and  O_25
REMARK   10  A    between atoms: O_25  and  C_26
REMARK   11  A    between atoms: C_26  and  C_27
REMARK                            x       y       z     vdW  Elec       q    Type
REMARK                         _______ _______ _______ _____ _____    ______ ____
ROOT
ATOM      1  C   UNL     1       3.511   5.503  17.893  0.00  0.00    +0.000 C 
ATOM      2  C   UNL     1       3.934   4.125  18.411  0.00  0.00    +0.000 A 
ATOM      3  C   UNL     1       3.550   3.427  17.302  0.00  0.00    +0.000 A 
ATOM      4  C   UNL     1       2.282   2.853  17.427  0.00  0.00    +0.000 A 
ATOM      5  C   UNL     1       1.701   2.718  18.731  0.00  0.00    +0.000 A 
ATOM      6  C   UNL     1       2.491   2.955  19.861  0.00  0.00    +0.000 A 
ATOM      7  C   UNL     1       2.297   2.383  21.185  0.00  0.00    +0.000 A 
ATOM      8  C   UNL     1       3.345   1.765  21.740  0.00  0.00    +0.000 A 
ATOM      9  C   UNL     1       4.664   1.756  21.066  0.00  0.00    +0.000 A 
ATOM     10  O   UNL     1       5.536   0.943  21.345  0.00  0.00    +0.000 OA
ATOM     11  O   UNL     1       4.848   2.815  20.173  0.00  0.00    +0.000 OA
ATOM     12  C   UNL     1       3.709   3.547  19.635  0.00  0.00    +0.000 A 
ATOM     13  O   UNL     1       4.082   4.053  16.166  0.00  0.00    +0.000 OA
ATOM     14  C   UNL     1       4.414   5.428  16.663  0.00  0.00    +0.000 C 
ENDROOT
BRANCH  14  15
ATOM     15  C   UNL     1       5.927   5.793  16.944  0.00  0.00    +0.000 C 
ATOM     16  C   UNL     1       6.816   5.309  15.771  0.00  0.00    +0.000 C 
ATOM     17  C   UNL     1       6.238   7.295  17.113  0.00  0.00    +0.000 C 
BRANCH  15  18
ATOM     18  O   UNL     1       6.417   5.250  18.204  0.00  0.00    +0.000 OA
BRANCH  18  19
ATOM     19  C   UNL     1       7.720   4.956  18.405  0.00  0.00    +0.000 C 
ATOM     20  C   UNL     1       8.284   5.863  19.463  0.00  0.00    +0.000 C 
ATOM     21  O   UNL     1       8.373   4.139  17.778  0.00  0.00    +0.000 OA
ENDBRANCH  18  19
ENDBRANCH  15  18
ENDBRANCH  14  15
BRANCH   1  22
ATOM     22  O   UNL     1       3.588   6.511  18.854  0.00  0.00    +0.000 OA
BRANCH  22  23
ATOM     23  C   UNL     1       2.355   6.767  19.390  0.00  0.00    +0.000 C 
ATOM     24  O   UNL     1       1.709   6.021  20.113  0.00  0.00    +0.000 OA
BRANCH  23  27
ATOM     25  C   UNL     1       1.047   8.619  21.417  0.00  0.00    +0.000 C 
ATOM     26  C   UNL     1       1.412   8.961  19.998  0.00  0.00    +0.000 C 
ATOM     27  C   UNL     1       1.967   8.161  19.073  0.00  0.00    +0.000 C 
ATOM     28  C   UNL     1       2.287   8.626  17.684  0.00  0.00    +0.000 C 
ENDBRANCH  23  27
ENDBRANCH  22  23
ENDBRANCH   1  22
TORSDOF 6
ENDMDL
MODEL 5
REMARK VINA RESULT:      -7.6      1.284      2.176
REMARK  Name = 
REMARK  11 active torsions:
REMARK  status: ('A' for Active; 'I' for Inactive)
REMARK    1  A    between atoms: C_1  and  C_2
REMARK    2  A    between atoms: C_3  and  C_4
REMARK    3  A    between atoms: C_3  and  C_5
REMARK    4  A    between atoms: C_5  and  O_7
REMARK    5  A    between atoms: O_7  and  C_8
REMARK    6  A    between atoms: C_21  and  C_22
REMARK    7  A    between atoms: C_22  and  C_23
REMARK    8  A    between atoms: C_22  and  C_24
REMARK    9  A    between atoms: C_22  and  O_25
REMARK   10  A    between atoms: O_25  and  C_26
REMARK   11  A    between atoms: C_26  and  C_27
REMARK                            x       y       z     vdW  Elec       q    Type
REMARK                         _______ _______ _______ _____ _____    ______ ____
ROOT
ATOM      1  C   UNL     1       3.767   5.668  17.324  0.00  0.00    +0.000 C 
ATOM      2  C   UNL     1       3.695   4.439  18.237  0.00  0.00    +0.000 A 
ATOM      3  C   UNL     1       3.731   3.512  17.236  0.00  0.00    +0.000 A 
ATOM      4  C   UNL     1       2.464   3.052  16.867  0.00  0.00    +0.000 A 
ATOM      5  C   UNL     1       1.356   3.272  17.750  0.00  0.00    +0.000 A 
ATOM      6  C   UNL     1       1.595   3.738  19.048  0.00  0.00    +0.000 A 
ATOM      7  C   UNL     1       0.752   3.520  20.213  0.00  0.00    +0.000 A 
ATOM      8  C   UNL     1       1.336   3.003  21.299  0.00  0.00    +0.000 A 
ATOM      9  C   UNL     1       2.797   2.761  21.330  0.00  0.00    +0.000 A 
ATOM     10  O   UNL     1       3.317   1.997  22.134  0.00  0.00    +0.000 OA
ATOM     11  O   UNL     1       3.521   3.557  20.438  0.00  0.00    +0.000 OA
ATOM     12  C   UNL     1       2.867   4.193  19.302  0.00  0.00    +0.000 A 
ATOM     13  O   UNL     1       4.800   3.811  16.379  0.00  0.00    +0.000 OA
ATOM     14  C   UNL     1       5.093   5.247  16.695  0.00  0.00    +0.000 C 
ENDROOT
BRANCH  14  15
ATOM     15  C   UNL     1       6.366   5.591  17.570  0.00  0.00    +0.000 C 
ATOM     16  C   UNL     1       5.958   5.764  19.055  0.00  0.00    +0.000 C 
ATOM     17  C   UNL     1       7.492   4.537  17.565  0.00  0.00    +0.000 C 
BRANCH  15  18
ATOM     18  O   UNL     1       7.072   6.776  17.102  0.00  0.00    +0.000 OA
BRANCH  18  19
ATOM     19  C   UNL     1       7.758   7.584  17.939  0.00  0.00    +0.000 C 
ATOM     20  C   UNL     1       7.547   9.018  17.540  0.00  0.00    +0.000 C 
ATOM     21  O   UNL     1       8.501   7.221  18.835  0.00  0.00    +0.000 OA
ENDBRANCH  18  19
ENDBRANCH  15  18
ENDBRANCH  14  15
BRANCH   1  22
ATOM     22  O   UNL     1       3.573   6.876  17.995  0.00  0.00    +0.000 OA
BRANCH  22  23
ATOM     23  C   UNL     1       2.271   7.285  17.894  0.00  0.00    +0.000 C 
ATOM     24  O   UNL     1       1.368   6.695  17.315  0.00  0.00    +0.000 OA
BRANCH  23  27
ATOM     25  C   UNL     1       1.592   7.182  20.856  0.00  0.00    +0.000 C 
ATOM     26  C   UNL     1       1.801   8.421  20.030  0.00  0.00    +0.000 C 
ATOM     27  C   UNL     1       2.077   8.501  18.717  0.00  0.00    +0.000 C 
ATOM     28  C   UNL     1       2.268   9.807  18.006  0.00  0.00    +0.000 C 
ENDBRANCH  23  27
ENDBRANCH  22  23
ENDBRANCH   1  22
TORSDOF 6
ENDMDL
MODEL 6
REMARK VINA RESULT:      -7.4      1.132      1.530
REMARK  Name = 
REMARK  11 active torsions:
REMARK  status: ('A' for Active; 'I' for Inactive)
REMARK    1  A    between atoms: C_1  and  C_2
REMARK    2  A    between atoms: C_3  and  C_4
REMARK    3  A    between atoms: C_3  and  C_5
REMARK    4  A    between atoms: C_5  and  O_7
REMARK    5  A    between atoms: O_7  and  C_8
REMARK    6  A    between atoms: C_21  and  C_22
REMARK    7  A    between atoms: C_22  and  C_23
REMARK    8  A    between atoms: C_22  and  C_24
REMARK    9  A    between atoms: C_22  and  O_25
REMARK   10  A    between atoms: O_25  and  C_26
REMARK   11  A    between atoms: C_26  and  C_27
REMARK                            x       y       z     vdW  Elec       q    Type
REMARK                         _______ _______ _______ _____ _____    ______ ____
ROOT
ATOM      1  C   UNL     1       3.544   5.267  18.014  0.00  0.00    +0.000 C 
ATOM      2  C   UNL     1       3.980   3.884  18.510  0.00  0.00    +0.000 A 
ATOM      3  C   UNL     1       3.530   3.191  17.424  0.00  0.00    +0.000 A 
ATOM      4  C   UNL     1       2.264   2.630  17.617  0.00  0.00    +0.000 A 
ATOM      5  C   UNL     1       1.753   2.501  18.950  0.00  0.00    +0.000 A 
ATOM      6  C   UNL     1       2.604   2.730  20.036  0.00  0.00    +0.000 A 
ATOM      7  C   UNL     1       2.475   2.161  21.369  0.00  0.00    +0.000 A 
ATOM      8  C   UNL     1       3.544   1.531  21.868  0.00  0.00    +0.000 A 
ATOM      9  C   UNL     1       4.825   1.509  21.124  0.00  0.00    +0.000 A 
ATOM     10  O   UNL     1       5.702   0.686  21.356  0.00  0.00    +0.000 OA
ATOM     11  O   UNL     1       4.973   2.565  20.222  0.00  0.00    +0.000 OA
ATOM     12  C   UNL     1       3.815   3.310  19.745  0.00  0.00    +0.000 A 
ATOM     13  O   UNL     1       4.007   3.811  16.261  0.00  0.00    +0.000 OA
ATOM     14  C   UNL     1       4.379   5.183  16.738  0.00  0.00    +0.000 C 
ENDROOT
BRANCH  14  15
ATOM     15  C   UNL     1       5.909   5.532  16.938  0.00  0.00    +0.000 C 
ATOM     16  C   UNL     1       6.169   7.012  16.560  0.00  0.00    +0.000 C 
ATOM     17  C   UNL     1       6.458   5.363  18.370  0.00  0.00    +0.000 C 
BRANCH  15  18
ATOM     18  O   UNL     1       6.794   4.658  16.181  0.00  0.00    +0.000 OA
BRANCH  18  19
ATOM     19  C   UNL     1       7.106   4.891  14.887  0.00  0.00    +0.000 C 
ATOM     20  C   UNL     1       6.286   3.995  14.002  0.00  0.00    +0.000 C 
ATOM     21  O   UNL     1       7.973   5.651  14.487  0.00  0.00    +0.000 OA
ENDBRANCH  18  19
ENDBRANCH  15  18
ENDBRANCH  14  15
BRANCH   1  22
ATOM     22  O   UNL     1       3.683   6.274  18.970  0.00  0.00    +0.000 OA
BRANCH  22  23
ATOM     23  C   UNL     1       2.470   6.600  19.512  0.00  0.00    +0.000 C 
ATOM     24  O   UNL     1       1.824   5.927  20.304  0.00  0.00    +0.000 OA
BRANCH  23  27
ATOM     25  C   UNL     1       1.062   8.562  21.361  0.00  0.00    +0.000 C 
ATOM     26  C   UNL     1       1.506   8.826  19.948  0.00  0.00    +0.000 C 
ATOM     27  C   UNL     1       2.107   7.976  19.099  0.00  0.00    +0.000 C 
ATOM     28  C   UNL     1       2.505   8.365  17.707  0.00  0.00    +0.000 C 
ENDBRANCH  23  27
ENDBRANCH  22  23
ENDBRANCH   1  22
TORSDOF 6
ENDMDL
MODEL 7
REMARK VINA RESULT:      -7.1      1.562      5.667
REMARK  Name = 
REMARK  11 active torsions:
REMARK  status: ('A' for Active; 'I' for Inactive)
REMARK    1  A    between atoms: C_1  and  C_2
REMARK    2  A    between atoms: C_3  and  C_4
REMARK    3  A    between atoms: C_3  and  C_5
REMARK    4  A    between atoms: C_5  and  O_7
REMARK    5  A    between atoms: O_7  and  C_8
REMARK    6  A    between atoms: C_21  and  C_22
REMARK    7  A    between atoms: C_22  and  C_23
REMARK    8  A    between atoms: C_22  and  C_24
REMARK    9  A    between atoms: C_22  and  O_25
REMARK   10  A    between atoms: O_25  and  C_26
REMARK   11  A    between atoms: C_26  and  C_27
REMARK                            x       y       z     vdW  Elec       q    Type
REMARK                         _______ _______ _______ _____ _____    ______ ____
ROOT
ATOM      1  C   UNL     1       3.915   5.052  18.624  0.00  0.00    +0.000 C 
ATOM      2  C   UNL     1       4.845   4.392  17.600  0.00  0.00    +0.000 A 
ATOM      3  C   UNL     1       5.786   3.982  18.501  0.00  0.00    +0.000 A 
ATOM      4  C   UNL     1       6.867   4.861  18.604  0.00  0.00    +0.000 A 
ATOM      5  C   UNL     1       7.080   5.832  17.571  0.00  0.00    +0.000 A 
ATOM      6  C   UNL     1       6.347   5.742  16.383  0.00  0.00    +0.000 A 
ATOM      7  C   UNL     1       6.755   6.235  15.077  0.00  0.00    +0.000 A 
ATOM      8  C   UNL     1       6.724   5.366  14.061  0.00  0.00    +0.000 A 
ATOM      9  C   UNL     1       6.201   3.993  14.255  0.00  0.00    +0.000 A 
ATOM     10  O   UNL     1       6.461   3.079  13.482  0.00  0.00    +0.000 OA
ATOM     11  O   UNL     1       5.315   3.873  15.328  0.00  0.00    +0.000 OA
ATOM     12  C   UNL     1       5.287   4.868  16.392  0.00  0.00    +0.000 A 
ATOM     13  O   UNL     1       5.146   3.308  19.550  0.00  0.00    +0.000 OA
ATOM     14  C   UNL     1       3.723   3.766  19.425  0.00  0.00    +0.000 C 
ENDROOT
BRANCH  14  15
ATOM     15  C   UNL     1       2.653   2.773  18.816  0.00  0.00    +0.000 C 
ATOM     16  C   UNL     1       2.037   3.382  17.530  0.00  0.00    +0.000 C 
ATOM     17  C   UNL     1       3.179   1.381  18.409  0.00  0.00    +0.000 C 
BRANCH  15  18
ATOM     18  O   UNL     1       1.600   2.424  19.760  0.00  0.00    +0.000 OA
BRANCH  18  19
ATOM     19  C   UNL     1       1.194   3.267  20.733  0.00  0.00    +0.000 C 
ATOM     20  C   UNL     1       1.489   2.664  22.078  0.00  0.00    +0.000 C 
ATOM     21  O   UNL     1       0.606   4.323  20.565  0.00  0.00    +0.000 OA
ENDBRANCH  18  19
ENDBRANCH  15  18
ENDBRANCH  14  15
BRANCH   1  22
ATOM     22  O   UNL     1       2.869   5.773  18.047  0.00  0.00    +0.000 OA
BRANCH  22  23
ATOM     23  C   UNL     1       2.596   6.899  18.775  0.00  0.00    +0.000 C 
ATOM     24  O   UNL     1       2.349   6.948  19.972  0.00  0.00    +0.000 OA
BRANCH  23  27
ATOM     25  C   UNL     1       0.815   9.357  18.954  0.00  0.00    +0.000 C 
ATOM     26  C   UNL     1       1.990   9.171  18.034  0.00  0.00    +0.000 C 
ATOM     27  C   UNL     1       2.780   8.090  17.914  0.00  0.00    +0.000 C 
ATOM     28  C   UNL     1       3.931   8.029  16.954  0.00  0.00    +0.000 C 
ENDBRANCH  23  27
ENDBRANCH  22  23
ENDBRANCH   1  22
TORSDOF 6
ENDMDL
MODEL 8
REMARK VINA RESULT:      -7.1      7.316     11.362
REMARK  Name = 
REMARK  11 active torsions:
REMARK  status: ('A' for Active; 'I' for Inactive)
REMARK    1  A    between atoms: C_1  and  C_2
REMARK    2  A    between atoms: C_3  and  C_4
REMARK    3  A    between atoms: C_3  and  C_5
REMARK    4  A    between atoms: C_5  and  O_7
REMARK    5  A    between atoms: O_7  and  C_8
REMARK    6  A    between atoms: C_21  and  C_22
REMARK    7  A    between atoms: C_22  and  C_23
REMARK    8  A    between atoms: C_22  and  C_24
REMARK    9  A    between atoms: C_22  and  O_25
REMARK   10  A    between atoms: O_25  and  C_26
REMARK   11  A    between atoms: C_26  and  C_27
REMARK                            x       y       z     vdW  Elec       q    Type
REMARK                         _______ _______ _______ _____ _____    ______ ____
ROOT
ATOM      1  C   UNL     1      -3.630  12.758  19.723  0.00  0.00    +0.000 C 
ATOM      2  C   UNL     1      -2.406  12.476  20.602  0.00  0.00    +0.000 A 
ATOM      3  C   UNL     1      -1.884  13.735  20.533  0.00  0.00    +0.000 A 
ATOM      4  C   UNL     1      -0.892  13.866  19.557  0.00  0.00    +0.000 A 
ATOM      5  C   UNL     1      -0.278  12.686  19.023  0.00  0.00    +0.000 A 
ATOM      6  C   UNL     1      -0.516  11.451  19.635  0.00  0.00    +0.000 A 
ATOM      7  C   UNL     1       0.366  10.294  19.619  0.00  0.00    +0.000 A 
ATOM      8  C   UNL     1       0.689   9.759  20.801  0.00  0.00    +0.000 A 
ATOM      9  C   UNL     1       0.088  10.271  22.054  0.00  0.00    +0.000 A 
ATOM     10  O   UNL     1       0.588  10.063  23.153  0.00  0.00    +0.000 OA
ATOM     11  O   UNL     1      -1.138  10.914  21.871  0.00  0.00    +0.000 OA
ATOM     12  C   UNL     1      -1.530  11.421  20.562  0.00  0.00    +0.000 A 
ATOM     13  O   UNL     1      -2.891  14.661  20.838  0.00  0.00    +0.000 OA
ATOM     14  C   UNL     1      -4.149  13.871  20.631  0.00  0.00    +0.000 C 
ENDROOT
BRANCH  14  15
ATOM     15  C   UNL     1      -4.945  13.358  21.898  0.00  0.00    +0.000 C 
ATOM     16  C   UNL     1      -5.308  14.554  22.816  0.00  0.00    +0.000 C 
ATOM     17  C   UNL     1      -6.275  12.631  21.611  0.00  0.00    +0.000 C 
BRANCH  15  18
ATOM     18  O   UNL     1      -4.218  12.348  22.655  0.00  0.00    +0.000 OA
BRANCH  18  19
ATOM     19  C   UNL     1      -3.937  12.492  23.968  0.00  0.00    +0.000 C 
ATOM     20  C   UNL     1      -2.670  13.285  24.129  0.00  0.00    +0.000 C 
ATOM     21  O   UNL     1      -4.562  11.996  24.891  0.00  0.00    +0.000 OA
ENDBRANCH  18  19
ENDBRANCH  15  18
ENDBRANCH  14  15
BRANCH   1  22
ATOM     22  O   UNL     1      -4.361  11.615  19.398  0.00  0.00    +0.000 OA
BRANCH  22  23
ATOM     23  C   UNL     1      -4.833  11.688  18.116  0.00  0.00    +0.000 C 
ATOM     24  O   UNL     1      -4.158  11.738  17.096  0.00  0.00    +0.000 OA
BRANCH  23  27
ATOM     25  C   UNL     1      -6.688  13.814  16.981  0.00  0.00    +0.000 C 
ATOM     26  C   UNL     1      -7.100  12.507  17.601  0.00  0.00    +0.000 C 
ATOM     27  C   UNL     1      -6.308  11.560  18.133  0.00  0.00    +0.000 C 
ATOM     28  C   UNL     1      -6.845  10.290  18.722  0.00  0.00    +0.000 C 
ENDBRANCH  23  27
ENDBRANCH  22  23
ENDBRANCH   1  22
TORSDOF 6
ENDMDL
MODEL 9
REMARK VINA RESULT:      -7.1      7.398     11.023
REMARK  Name = 
REMARK  11 active torsions:
REMARK  status: ('A' for Active; 'I' for Inactive)
REMARK    1  A    between atoms: C_1  and  C_2
REMARK    2  A    between atoms: C_3  and  C_4
REMARK    3  A    between atoms: C_3  and  C_5
REMARK    4  A    between atoms: C_5  and  O_7
REMARK    5  A    between atoms: O_7  and  C_8
REMARK    6  A    between atoms: C_21  and  C_22
REMARK    7  A    between atoms: C_22  and  C_23
REMARK    8  A    between atoms: C_22  and  C_24
REMARK    9  A    between atoms: C_22  and  O_25
REMARK   10  A    between atoms: O_25  and  C_26
REMARK   11  A    between atoms: C_26  and  C_27
REMARK                            x       y       z     vdW  Elec       q    Type
REMARK                         _______ _______ _______ _____ _____    ______ ____
ROOT
ATOM      1  C   UNL     1      -2.736  12.940  20.025  0.00  0.00    +0.000 C 
ATOM      2  C   UNL     1      -1.837  12.460  21.170  0.00  0.00    +0.000 A 
ATOM      3  C   UNL     1      -1.300  13.682  21.457  0.00  0.00    +0.000 A 
ATOM      4  C   UNL     1      -0.059  13.893  20.850  0.00  0.00    +0.000 A 
ATOM      5  C   UNL     1       0.671  12.769  20.342  0.00  0.00    +0.000 A 
ATOM      6  C   UNL     1       0.242  11.474  20.654  0.00  0.00    +0.000 A 
ATOM      7  C   UNL     1       1.072  10.281  20.717  0.00  0.00    +0.000 A 
ATOM      8  C   UNL     1       1.017   9.560  21.842  0.00  0.00    +0.000 A 
ATOM      9  C   UNL     1       0.075   9.920  22.927  0.00  0.00    +0.000 A 
ATOM     10  O   UNL     1       0.219   9.524  24.077  0.00  0.00    +0.000 OA
ATOM     11  O   UNL     1      -1.031  10.656  22.493  0.00  0.00    +0.000 OA
ATOM     12  C   UNL     1      -1.004  11.371  21.224  0.00  0.00    +0.000 A 
ATOM     13  O   UNL     1      -2.339  14.612  21.593  0.00  0.00    +0.000 OA
ATOM     14  C   UNL     1      -3.488  13.938  20.903  0.00  0.00    +0.000 C 
ENDROOT
BRANCH  14  15
ATOM     15  C   UNL     1      -4.635  13.295  21.782  0.00  0.00    +0.000 C 
ATOM     16  C   UNL     1      -5.498  14.410  22.426  0.00  0.00    +0.000 C 
ATOM     17  C   UNL     1      -5.625  12.378  21.034  0.00  0.00    +0.000 C 
BRANCH  15  18
ATOM     18  O   UNL     1      -4.126  12.397  22.810  0.00  0.00    +0.000 OA
BRANCH  18  19
ATOM     19  C   UNL     1      -4.382  12.585  24.124  0.00  0.00    +0.000 C 
ATOM     20  C   UNL     1      -3.373  13.537  24.702  0.00  0.00    +0.000 C 
ATOM     21  O   UNL     1      -5.245  12.017  24.772  0.00  0.00    +0.000 OA
ENDBRANCH  18  19
ENDBRANCH  15  18
ENDBRANCH  14  15
BRANCH   1  22
ATOM     22  O   UNL     1      -3.351  11.903  19.323  0.00  0.00    +0.000 OA
BRANCH  22  23
ATOM     23  C   UNL     1      -2.782  11.748  18.088  0.00  0.00    +0.000 C 
ATOM     24  O   UNL     1      -1.700  12.190  17.727  0.00  0.00    +0.000 OA
BRANCH  23  27
ATOM     25  C   UNL     1      -5.612  12.443  17.217  0.00  0.00    +0.000 C 
ATOM     26  C   UNL     1      -4.861  11.182  16.890  0.00  0.00    +0.000 C 
ATOM     27  C   UNL     1      -3.622  10.835  17.278  0.00  0.00    +0.000 C 
ATOM     28  C   UNL     1      -2.978   9.541  16.879  0.00  0.00    +0.000 C 
ENDBRANCH  23  27
ENDBRANCH  22  23
ENDBRANCH   1  22
TORSDOF 6
ENDMDL
