MODEL 1
REMARK VINA RESULT:      -9.8      0.000      0.000
REMARK  Name = 
REMARK  5 active torsions:
REMARK  status: ('A' for Active; 'I' for Inactive)
REMARK    1  A    between atoms: C_2  and  C_19
REMARK    2  A    between atoms: N_3  and  C_4
REMARK    3  A    between atoms: C_7  and  S_8
REMARK    4  A    between atoms: S_8  and  N_11
REMARK    5  A    between atoms: C_23  and  C_25
REMARK                            x       y       z     vdW  Elec       q    Type
REMARK                         _______ _______ _______ _____ _____    ______ ____
ROOT
ATOM      1  O   UNL     1       2.441   5.359  20.599  0.00  0.00    +0.000 OA
ATOM      2  C   UNL     1       2.861   5.260  19.450  0.00  0.00    +0.000 C 
ATOM      3  N   UNL     1       2.760   6.243  18.479  0.00  0.00    +0.000 N 
ATOM      4  H   UNL     1       3.042   6.008  17.536  0.00  0.00    +0.000 HD
ENDROOT
BRANCH   2   5
ATOM      5  C   UNL     1       3.588   3.999  18.984  0.00  0.00    +0.000 C 
ATOM      6  C   UNL     1       5.026   3.901  19.514  0.00  0.00    +0.000 C 
ATOM      7  C   UNL     1       5.958   4.904  18.832  0.00  0.00    +0.000 C 
ATOM      8  N   UNL     1       5.888   4.777  17.381  0.00  0.00    +0.000 N 
ATOM      9  C   UNL     1       7.060   4.519  16.651  0.00  0.00    +0.000 C 
ATOM     10  O   UNL     1       8.112   4.252  17.237  0.00  0.00    +0.000 OA
ATOM     11  C   UNL     1       4.547   4.915  16.813  0.00  0.00    +0.000 C 
ATOM     12  C   UNL     1       3.583   3.915  17.451  0.00  0.00    +0.000 C 
BRANCH   9  13
ATOM     13  C   UNL     1       7.002   4.517  15.200  0.00  0.00    +0.000 A 
ATOM     14  C   UNL     1       6.262   3.731  14.333  0.00  0.00    +0.000 A 
ATOM     15  C   UNL     1       6.544   4.186  13.022  0.00  0.00    +0.000 A 
ATOM     16  C   UNL     1       7.479   5.182  13.157  0.00  0.00    +0.000 A 
ATOM     17  O   UNL     1       7.800   5.353  14.462  0.00  0.00    +0.000 OA
ENDBRANCH   9  13
ENDBRANCH   2   5
BRANCH   3  18
ATOM     18  C   UNL     1       2.260   7.547  18.676  0.00  0.00    +0.000 A 
ATOM     19  C   UNL     1       2.328   8.543  17.698  0.00  0.00    +0.000 A 
ATOM     20  C   UNL     1       1.765   9.801  17.913  0.00  0.00    +0.000 A 
ATOM     21  C   UNL     1       1.112  10.066  19.112  0.00  0.00    +0.000 A 
ATOM     22  C   UNL     1       1.084   9.104  20.129  0.00  0.00    +0.000 A 
ATOM     23  C   UNL     1       1.641   7.841  19.898  0.00  0.00    +0.000 A 
BRANCH  21  24
ATOM     24  S   UNL     1       0.318  11.649  19.339  0.00  0.00    +0.000 S 
ATOM     25  O   UNL     1       0.059  11.801  20.753  0.00  0.00    +0.000 OA
ATOM     26  O   UNL     1       1.098  12.631  18.613  0.00  0.00    +0.000 OA
BRANCH  24  27
ATOM     27  N   UNL     1      -1.184  11.454  18.526  0.00  0.00    +0.000 NA
ATOM     28  C   UNL     1      -1.332  10.181  17.769  0.00  0.00    +0.000 C 
ATOM     29  C   UNL     1      -2.619  10.160  16.952  0.00  0.00    +0.000 C 
ATOM     30  C   UNL     1      -3.828  10.458  17.827  0.00  0.00    +0.000 C 
ATOM     31  C   UNL     1      -3.647  11.814  18.491  0.00  0.00    +0.000 C 
ATOM     32  C   UNL     1      -2.372  11.853  19.324  0.00  0.00    +0.000 C 
ENDBRANCH  24  27
ENDBRANCH  21  24
ENDBRANCH   3  18
TORSDOF 5
ENDMDL
MODEL 2
REMARK VINA RESULT:      -9.7      1.984      2.974
REMARK  Name = 
REMARK  5 active torsions:
REMARK  status: ('A' for Active; 'I' for Inactive)
REMARK    1  A    between atoms: C_2  and  C_19
REMARK    2  A    between atoms: N_3  and  C_4
REMARK    3  A    between atoms: C_7  and  S_8
REMARK    4  A    between atoms: S_8  and  N_11
REMARK    5  A    between atoms: C_23  and  C_25
REMARK                            x       y       z     vdW  Elec       q    Type
REMARK                         _______ _______ _______ _____ _____    ______ ____
ROOT
ATOM      1  O   UNL     1       1.307   4.525  19.580  0.00  0.00    +0.000 OA
ATOM      2  C   UNL     1       2.404   4.774  19.089  0.00  0.00    +0.000 C 
ATOM      3  N   UNL     1       2.871   6.044  18.791  0.00  0.00    +0.000 N 
ATOM      4  H   UNL     1       3.745   6.120  18.286  0.00  0.00    +0.000 HD
ENDROOT
BRANCH   2   5
ATOM      5  C   UNL     1       3.399   3.657  18.780  0.00  0.00    +0.000 C 
ATOM      6  C   UNL     1       4.784   3.895  19.400  0.00  0.00    +0.000 C 
ATOM      7  C   UNL     1       5.547   5.013  18.688  0.00  0.00    +0.000 C 
ATOM      8  N   UNL     1       5.613   4.767  17.252  0.00  0.00    +0.000 N 
ATOM      9  C   UNL     1       6.865   4.700  16.618  0.00  0.00    +0.000 C 
ATOM     10  O   UNL     1       7.902   4.698  17.286  0.00  0.00    +0.000 OA
ATOM     11  C   UNL     1       4.318   4.585  16.596  0.00  0.00    +0.000 C 
ATOM     12  C   UNL     1       3.527   3.460  17.262  0.00  0.00    +0.000 C 
BRANCH   9  13
ATOM     13  C   UNL     1       6.918   4.577  15.172  0.00  0.00    +0.000 A 
ATOM     14  C   UNL     1       6.248   3.716  14.319  0.00  0.00    +0.000 A 
ATOM     15  C   UNL     1       6.628   4.064  13.000  0.00  0.00    +0.000 A 
ATOM     16  C   UNL     1       7.549   5.076  13.123  0.00  0.00    +0.000 A 
ATOM     17  O   UNL     1       7.768   5.357  14.430  0.00  0.00    +0.000 OA
ENDBRANCH   9  13
ENDBRANCH   2   5
BRANCH   3  18
ATOM     18  C   UNL     1       2.217   7.255  19.097  0.00  0.00    +0.000 A 
ATOM     19  C   UNL     1       1.793   7.584  20.388  0.00  0.00    +0.000 A 
ATOM     20  C   UNL     1       1.205   8.820  20.658  0.00  0.00    +0.000 A 
ATOM     21  C   UNL     1       1.053   9.748  19.632  0.00  0.00    +0.000 A 
ATOM     22  C   UNL     1       1.414   9.417  18.321  0.00  0.00    +0.000 A 
ATOM     23  C   UNL     1       2.014   8.179  18.064  0.00  0.00    +0.000 A 
BRANCH  21  24
ATOM     24  S   UNL     1       0.382  11.359  20.009  0.00  0.00    +0.000 S 
ATOM     25  O   UNL     1      -0.635  11.643  19.022  0.00  0.00    +0.000 OA
ATOM     26  O   UNL     1       0.074  11.379  21.425  0.00  0.00    +0.000 OA
BRANCH  24  27
ATOM     27  N   UNL     1       1.714  12.411  19.738  0.00  0.00    +0.000 NA
ATOM     28  C   UNL     1       1.764  13.032  18.388  0.00  0.00    +0.000 C 
ATOM     29  C   UNL     1       3.054  13.818  18.178  0.00  0.00    +0.000 C 
ATOM     30  C   UNL     1       3.264  14.833  19.292  0.00  0.00    +0.000 C 
ATOM     31  C   UNL     1       3.298  14.112  20.630  0.00  0.00    +0.000 C 
ATOM     32  C   UNL     1       2.011  13.331  20.866  0.00  0.00    +0.000 C 
ENDBRANCH  24  27
ENDBRANCH  21  24
ENDBRANCH   3  18
TORSDOF 5
ENDMDL
MODEL 3
REMARK VINA RESULT:      -9.7      0.682      1.124
REMARK  Name = 
REMARK  5 active torsions:
REMARK  status: ('A' for Active; 'I' for Inactive)
REMARK    1  A    between atoms: C_2  and  C_19
REMARK    2  A    between atoms: N_3  and  C_4
REMARK    3  A    between atoms: C_7  and  S_8
REMARK    4  A    between atoms: S_8  and  N_11
REMARK    5  A    between atoms: C_23  and  C_25
REMARK                            x       y       z     vdW  Elec       q    Type
REMARK                         _______ _______ _______ _____ _____    ______ ____
ROOT
ATOM      1  O   UNL     1       1.276   4.726  19.157  0.00  0.00    +0.000 OA
ATOM      2  C   UNL     1       2.438   4.966  18.844  0.00  0.00    +0.000 C 
ATOM      3  N   UNL     1       2.983   6.234  18.719  0.00  0.00    +0.000 N 
ATOM      4  H   UNL     1       3.921   6.311  18.347  0.00  0.00    +0.000 HD
ENDROOT
BRANCH   2   5
ATOM      5  C   UNL     1       3.432   3.834  18.583  0.00  0.00    +0.000 C 
ATOM      6  C   UNL     1       4.815   4.093  19.198  0.00  0.00    +0.000 C 
ATOM      7  C   UNL     1       5.584   5.179  18.444  0.00  0.00    +0.000 C 
ATOM      8  N   UNL     1       5.654   4.875  17.019  0.00  0.00    +0.000 N 
ATOM      9  C   UNL     1       6.907   4.779  16.393  0.00  0.00    +0.000 C 
ATOM     10  O   UNL     1       7.942   4.801  17.064  0.00  0.00    +0.000 OA
ATOM     11  C   UNL     1       4.360   4.670  16.367  0.00  0.00    +0.000 C 
ATOM     12  C   UNL     1       3.564   3.576  17.076  0.00  0.00    +0.000 C 
BRANCH   9  13
ATOM     13  C   UNL     1       6.964   4.598  14.953  0.00  0.00    +0.000 A 
ATOM     14  C   UNL     1       6.305   3.696  14.135  0.00  0.00    +0.000 A 
ATOM     15  C   UNL     1       6.684   3.993  12.803  0.00  0.00    +0.000 A 
ATOM     16  C   UNL     1       7.595   5.018  12.886  0.00  0.00    +0.000 A 
ATOM     17  O   UNL     1       7.808   5.355  14.181  0.00  0.00    +0.000 OA
ENDBRANCH   9  13
ENDBRANCH   2   5
BRANCH   3  18
ATOM     18  C   UNL     1       2.331   7.444  19.031  0.00  0.00    +0.000 A 
ATOM     19  C   UNL     1       2.112   8.454  18.089  0.00  0.00    +0.000 A 
ATOM     20  C   UNL     1       1.407   9.610  18.426  0.00  0.00    +0.000 A 
ATOM     21  C   UNL     1       0.899   9.755  19.713  0.00  0.00    +0.000 A 
ATOM     22  C   UNL     1       1.159   8.785  20.689  0.00  0.00    +0.000 A 
ATOM     23  C   UNL     1       1.855   7.624  20.336  0.00  0.00    +0.000 A 
BRANCH  21  24
ATOM     24  S   UNL     1      -0.077  11.197  20.105  0.00  0.00    +0.000 S 
ATOM     25  O   UNL     1      -0.352  11.157  21.524  0.00  0.00    +0.000 OA
ATOM     26  O   UNL     1       0.580  12.341  19.504  0.00  0.00    +0.000 OA
BRANCH  24  27
ATOM     27  N   UNL     1      -1.545  10.918  19.256  0.00  0.00    +0.000 NA
ATOM     28  C   UNL     1      -2.511  12.050  19.277  0.00  0.00    +0.000 C 
ATOM     29  C   UNL     1      -3.843  11.663  18.642  0.00  0.00    +0.000 C 
ATOM     30  C   UNL     1      -3.640  11.099  17.243  0.00  0.00    +0.000 C 
ATOM     31  C   UNL     1      -2.719   9.891  17.316  0.00  0.00    +0.000 C 
ATOM     32  C   UNL     1      -1.377  10.258  17.935  0.00  0.00    +0.000 C 
ENDBRANCH  24  27
ENDBRANCH  21  24
ENDBRANCH   3  18
TORSDOF 5
ENDMDL
MODEL 4
REMARK VINA RESULT:      -9.5      6.442      8.701
REMARK  Name = 
REMARK  5 active torsions:
REMARK  status: ('A' for Active; 'I' for Inactive)
REMARK    1  A    between atoms: C_2  and  C_19
REMARK    2  A    between atoms: N_3  and  C_4
REMARK    3  A    between atoms: C_7  and  S_8
REMARK    4  A    between atoms: S_8  and  N_11
REMARK    5  A    between atoms: C_23  and  C_25
REMARK                            x       y       z     vdW  Elec       q    Type
REMARK                         _______ _______ _______ _____ _____    ______ ____
ROOT
ATOM      1  O   UNL     1       8.350   6.757  18.949  0.00  0.00    +0.000 OA
ATOM      2  C   UNL     1       7.628   7.113  18.022  0.00  0.00    +0.000 C 
ATOM      3  N   UNL     1       7.502   8.416  17.568  0.00  0.00    +0.000 N 
ATOM      4  H   UNL     1       6.794   8.607  16.871  0.00  0.00    +0.000 HD
ENDROOT
BRANCH   2   5
ATOM      5  C   UNL     1       6.795   6.099  17.239  0.00  0.00    +0.000 C 
ATOM      6  C   UNL     1       5.549   6.716  16.589  0.00  0.00    +0.000 C 
ATOM      7  C   UNL     1       4.476   7.066  17.622  0.00  0.00    +0.000 C 
ATOM      8  N   UNL     1       4.158   5.910  18.454  0.00  0.00    +0.000 N 
ATOM      9  C   UNL     1       2.832   5.451  18.522  0.00  0.00    +0.000 C 
ATOM     10  O   UNL     1       1.972   5.920  17.773  0.00  0.00    +0.000 OA
ATOM     11  C   UNL     1       5.301   5.311  19.142  0.00  0.00    +0.000 C 
ATOM     12  C   UNL     1       6.392   4.926  18.145  0.00  0.00    +0.000 C 
BRANCH   9  13
ATOM     13  C   UNL     1       2.504   4.380  19.446  0.00  0.00    +0.000 A 
ATOM     14  C   UNL     1       2.096   4.428  20.768  0.00  0.00    +0.000 A 
ATOM     15  C   UNL     1       1.857   3.093  21.175  0.00  0.00    +0.000 A 
ATOM     16  C   UNL     1       2.186   2.303  20.101  0.00  0.00    +0.000 A 
ATOM     17  O   UNL     1       2.626   3.066  19.072  0.00  0.00    +0.000 OA
ENDBRANCH   9  13
ENDBRANCH   2   5
BRANCH   3  18
ATOM     18  C   UNL     1       8.253   9.521  18.018  0.00  0.00    +0.000 A 
ATOM     19  C   UNL     1       8.214  10.771  17.393  0.00  0.00    +0.000 A 
ATOM     20  C   UNL     1       8.926  11.854  17.910  0.00  0.00    +0.000 A 
ATOM     21  C   UNL     1       9.673  11.696  19.072  0.00  0.00    +0.000 A 
ATOM     22  C   UNL     1       9.775  10.438  19.680  0.00  0.00    +0.000 A 
ATOM     23  C   UNL     1       9.047   9.362  19.161  0.00  0.00    +0.000 A 
BRANCH  21  24
ATOM     24  S   UNL     1      10.506  13.111  19.771  0.00  0.00    +0.000 S 
ATOM     25  O   UNL     1       9.806  13.465  20.986  0.00  0.00    +0.000 OA
ATOM     26  O   UNL     1      11.924  12.815  19.786  0.00  0.00    +0.000 OA
BRANCH  24  27
ATOM     27  N   UNL     1      10.231  14.343  18.604  0.00  0.00    +0.000 NA
ATOM     28  C   UNL     1       9.230  15.372  18.996  0.00  0.00    +0.000 C 
ATOM     29  C   UNL     1       8.929  16.329  17.847  0.00  0.00    +0.000 C 
ATOM     30  C   UNL     1      10.208  16.944  17.297  0.00  0.00    +0.000 C 
ATOM     31  C   UNL     1      11.139  15.836  16.830  0.00  0.00    +0.000 C 
ATOM     32  C   UNL     1      11.463  14.875  17.967  0.00  0.00    +0.000 C 
ENDBRANCH  24  27
ENDBRANCH  21  24
ENDBRANCH   3  18
TORSDOF 5
ENDMDL
MODEL 5
REMARK VINA RESULT:      -9.5      5.508      7.446
REMARK  Name = 
REMARK  5 active torsions:
REMARK  status: ('A' for Active; 'I' for Inactive)
REMARK    1  A    between atoms: C_2  and  C_19
REMARK    2  A    between atoms: N_3  and  C_4
REMARK    3  A    between atoms: C_7  and  S_8
REMARK    4  A    between atoms: S_8  and  N_11
REMARK    5  A    between atoms: C_23  and  C_25
REMARK                            x       y       z     vdW  Elec       q    Type
REMARK                         _______ _______ _______ _____ _____    ______ ____
ROOT
ATOM      1  O   UNL     1       7.014   7.773  17.096  0.00  0.00    +0.000 OA
ATOM      2  C   UNL     1       7.732   7.282  17.962  0.00  0.00    +0.000 C 
ATOM      3  N   UNL     1       8.637   7.989  18.739  0.00  0.00    +0.000 N 
ATOM      4  H   UNL     1       9.254   7.462  19.343  0.00  0.00    +0.000 HD
ENDROOT
BRANCH   2   5
ATOM      5  C   UNL     1       7.664   5.791  18.289  0.00  0.00    +0.000 C 
ATOM      6  C   UNL     1       7.173   4.937  17.111  0.00  0.00    +0.000 C 
ATOM      7  C   UNL     1       5.678   5.128  16.849  0.00  0.00    +0.000 C 
ATOM      8  N   UNL     1       4.903   4.903  18.064  0.00  0.00    +0.000 N 
ATOM      9  C   UNL     1       3.887   3.933  18.066  0.00  0.00    +0.000 C 
ATOM     10  O   UNL     1       3.749   3.173  17.105  0.00  0.00    +0.000 OA
ATOM     11  C   UNL     1       5.292   5.729  19.207  0.00  0.00    +0.000 C 
ATOM     12  C   UNL     1       6.777   5.554  19.520  0.00  0.00    +0.000 C 
BRANCH   9  13
ATOM     13  C   UNL     1       3.040   3.802  19.239  0.00  0.00    +0.000 A 
ATOM     14  C   UNL     1       1.840   4.416  19.553  0.00  0.00    +0.000 A 
ATOM     15  C   UNL     1       1.417   3.884  20.795  0.00  0.00    +0.000 A 
ATOM     16  C   UNL     1       2.406   3.020  21.196  0.00  0.00    +0.000 A 
ATOM     17  O   UNL     1       3.413   3.003  20.289  0.00  0.00    +0.000 OA
ENDBRANCH   9  13
ENDBRANCH   2   5
BRANCH   3  18
ATOM     18  C   UNL     1       8.804   9.389  18.740  0.00  0.00    +0.000 A 
ATOM     19  C   UNL     1       8.411  10.201  17.673  0.00  0.00    +0.000 A 
ATOM     20  C   UNL     1       8.538  11.589  17.741  0.00  0.00    +0.000 A 
ATOM     21  C   UNL     1       9.048  12.176  18.894  0.00  0.00    +0.000 A 
ATOM     22  C   UNL     1       9.505  11.379  19.951  0.00  0.00    +0.000 A 
ATOM     23  C   UNL     1       9.361   9.989  19.876  0.00  0.00    +0.000 A 
BRANCH  21  24
ATOM     24  S   UNL     1       9.122  13.957  19.004  0.00  0.00    +0.000 S 
ATOM     25  O   UNL     1       9.739  14.285  20.269  0.00  0.00    +0.000 OA
ATOM     26  O   UNL     1       9.674  14.444  17.755  0.00  0.00    +0.000 OA
BRANCH  24  27
ATOM     27  N   UNL     1       7.466  14.414  19.069  0.00  0.00    +0.000 NA
ATOM     28  C   UNL     1       7.104  15.317  20.194  0.00  0.00    +0.000 C 
ATOM     29  C   UNL     1       5.597  15.542  20.272  0.00  0.00    +0.000 C 
ATOM     30  C   UNL     1       5.046  16.026  18.938  0.00  0.00    +0.000 C 
ATOM     31  C   UNL     1       5.372  15.006  17.858  0.00  0.00    +0.000 C 
ATOM     32  C   UNL     1       6.874  14.777  17.755  0.00  0.00    +0.000 C 
ENDBRANCH  24  27
ENDBRANCH  21  24
ENDBRANCH   3  18
TORSDOF 5
ENDMDL
MODEL 6
REMARK VINA RESULT:      -9.4      1.685      2.427
REMARK  Name = 
REMARK  5 active torsions:
REMARK  status: ('A' for Active; 'I' for Inactive)
REMARK    1  A    between atoms: C_2  and  C_19
REMARK    2  A    between atoms: N_3  and  C_4
REMARK    3  A    between atoms: C_7  and  S_8
REMARK    4  A    between atoms: S_8  and  N_11
REMARK    5  A    between atoms: C_23  and  C_25
REMARK                            x       y       z     vdW  Elec       q    Type
REMARK                         _______ _______ _______ _____ _____    ______ ____
ROOT
ATOM      1  O   UNL     1       3.035   7.757  18.275  0.00  0.00    +0.000 OA
ATOM      2  C   UNL     1       2.800   6.894  19.116  0.00  0.00    +0.000 C 
ATOM      3  N   UNL     1       2.073   7.094  20.279  0.00  0.00    +0.000 N 
ATOM      4  H   UNL     1       2.038   6.339  20.950  0.00  0.00    +0.000 HD
ENDROOT
BRANCH   2   5
ATOM      5  C   UNL     1       3.287   5.458  18.927  0.00  0.00    +0.000 C 
ATOM      6  C   UNL     1       4.657   5.196  19.569  0.00  0.00    +0.000 C 
ATOM      7  C   UNL     1       5.791   5.870  18.794  0.00  0.00    +0.000 C 
ATOM      8  N   UNL     1       5.753   5.496  17.384  0.00  0.00    +0.000 N 
ATOM      9  C   UNL     1       6.881   4.899  16.797  0.00  0.00    +0.000 C 
ATOM     10  O   UNL     1       7.838   4.555  17.495  0.00  0.00    +0.000 OA
ATOM     11  C   UNL     1       4.487   5.772  16.706  0.00  0.00    +0.000 C 
ATOM     12  C   UNL     1       3.325   5.099  17.435  0.00  0.00    +0.000 C 
BRANCH   9  13
ATOM     13  C   UNL     1       6.879   4.643  15.367  0.00  0.00    +0.000 A 
ATOM     14  C   UNL     1       6.163   3.723  14.621  0.00  0.00    +0.000 A 
ATOM     15  C   UNL     1       6.501   3.940  13.264  0.00  0.00    +0.000 A 
ATOM     16  C   UNL     1       7.445   4.937  13.261  0.00  0.00    +0.000 A 
ATOM     17  O   UNL     1       7.717   5.332  14.528  0.00  0.00    +0.000 OA
ENDBRANCH   9  13
ENDBRANCH   2   5
BRANCH   3  18
ATOM     18  C   UNL     1       1.398   8.280  20.634  0.00  0.00    +0.000 A 
ATOM     19  C   UNL     1       1.025   8.578  21.948  0.00  0.00    +0.000 A 
ATOM     20  C   UNL     1       0.415   9.792  22.264  0.00  0.00    +0.000 A 
ATOM     21  C   UNL     1       0.187  10.728  21.262  0.00  0.00    +0.000 A 
ATOM     22  C   UNL     1       0.496  10.427  19.930  0.00  0.00    +0.000 A 
ATOM     23  C   UNL     1       1.120   9.212  19.626  0.00  0.00    +0.000 A 
BRANCH  21  24
ATOM     24  S   UNL     1      -0.513  12.313  21.694  0.00  0.00    +0.000 S 
ATOM     25  O   UNL     1      -0.530  12.396  23.138  0.00  0.00    +0.000 OA
ATOM     26  O   UNL     1       0.163  13.317  20.897  0.00  0.00    +0.000 OA
BRANCH  24  27
ATOM     27  N   UNL     1      -2.134  12.190  21.135  0.00  0.00    +0.000 NA
ATOM     28  C   UNL     1      -3.149  12.862  21.990  0.00  0.00    +0.000 C 
ATOM     29  C   UNL     1      -4.568  12.570  21.512  0.00  0.00    +0.000 C 
ATOM     30  C   UNL     1      -4.731  12.914  20.039  0.00  0.00    +0.000 C 
ATOM     31  C   UNL     1      -3.725  12.118  19.221  0.00  0.00    +0.000 C 
ATOM     32  C   UNL     1      -2.299  12.406  19.674  0.00  0.00    +0.000 C 
ENDBRANCH  24  27
ENDBRANCH  21  24
ENDBRANCH   3  18
TORSDOF 5
ENDMDL
MODEL 7
REMARK VINA RESULT:      -9.4      3.117     10.807
REMARK  Name = 
REMARK  5 active torsions:
REMARK  status: ('A' for Active; 'I' for Inactive)
REMARK    1  A    between atoms: C_2  and  C_19
REMARK    2  A    between atoms: N_3  and  C_4
REMARK    3  A    between atoms: C_7  and  S_8
REMARK    4  A    between atoms: S_8  and  N_11
REMARK    5  A    between atoms: C_23  and  C_25
REMARK                            x       y       z     vdW  Elec       q    Type
REMARK                         _______ _______ _______ _____ _____    ______ ____
ROOT
ATOM      1  O   UNL     1      -0.871  10.080  18.124  0.00  0.00    +0.000 OA
ATOM      2  C   UNL     1      -0.112  10.791  18.775  0.00  0.00    +0.000 C 
ATOM      3  N   UNL     1       1.062  10.362  19.373  0.00  0.00    +0.000 N 
ATOM      4  H   UNL     1       1.549  11.010  19.978  0.00  0.00    +0.000 HD
ENDROOT
BRANCH   2   5
ATOM      5  C   UNL     1      -0.397  12.280  18.964  0.00  0.00    +0.000 C 
ATOM      6  C   UNL     1       0.548  12.952  19.970  0.00  0.00    +0.000 C 
ATOM      7  C   UNL     1       0.247  12.531  21.410  0.00  0.00    +0.000 C 
ATOM      8  N   UNL     1      -1.159  12.749  21.733  0.00  0.00    +0.000 N 
ATOM      9  C   UNL     1      -1.500  13.563  22.825  0.00  0.00    +0.000 C 
ATOM     10  O   UNL     1      -0.631  14.211  23.414  0.00  0.00    +0.000 OA
ATOM     11  C   UNL     1      -2.108  12.087  20.837  0.00  0.00    +0.000 C 
ATOM     12  C   UNL     1      -1.858  12.495  19.387  0.00  0.00    +0.000 C 
BRANCH   9  13
ATOM     13  C   UNL     1      -2.895  13.675  23.214  0.00  0.00    +0.000 A 
ATOM     14  C   UNL     1      -3.686  12.828  23.971  0.00  0.00    +0.000 A 
ATOM     15  C   UNL     1      -4.955  13.445  24.089  0.00  0.00    +0.000 A 
ATOM     16  C   UNL     1      -4.886  14.602  23.352  0.00  0.00    +0.000 A 
ATOM     17  O   UNL     1      -3.664  14.723  22.779  0.00  0.00    +0.000 OA
ENDBRANCH   9  13
ENDBRANCH   2   5
BRANCH   3  18
ATOM     18  C   UNL     1       1.630   9.077  19.245  0.00  0.00    +0.000 A 
ATOM     19  C   UNL     1       1.573   8.117  20.260  0.00  0.00    +0.000 A 
ATOM     20  C   UNL     1       2.094   6.837  20.066  0.00  0.00    +0.000 A 
ATOM     21  C   UNL     1       2.663   6.504  18.842  0.00  0.00    +0.000 A 
ATOM     22  C   UNL     1       2.785   7.467  17.834  0.00  0.00    +0.000 A 
ATOM     23  C   UNL     1       2.248   8.744  18.033  0.00  0.00    +0.000 A 
BRANCH  21  24
ATOM     24  S   UNL     1       3.244   4.836  18.578  0.00  0.00    +0.000 S 
ATOM     25  O   UNL     1       3.254   4.176  19.864  0.00  0.00    +0.000 OA
ATOM     26  O   UNL     1       2.497   4.289  17.464  0.00  0.00    +0.000 OA
BRANCH  24  27
ATOM     27  N   UNL     1       4.870   5.065  18.069  0.00  0.00    +0.000 NA
ATOM     28  C   UNL     1       5.869   5.153  19.168  0.00  0.00    +0.000 C 
ATOM     29  C   UNL     1       7.254   5.515  18.640  0.00  0.00    +0.000 C 
ATOM     30  C   UNL     1       7.687   4.558  17.539  0.00  0.00    +0.000 C 
ATOM     31  C   UNL     1       6.667   4.594  16.411  0.00  0.00    +0.000 C 
ATOM     32  C   UNL     1       5.278   4.223  16.915  0.00  0.00    +0.000 C 
ENDBRANCH  24  27
ENDBRANCH  21  24
ENDBRANCH   3  18
TORSDOF 5
ENDMDL
MODEL 8
REMARK VINA RESULT:      -9.3      2.937     10.595
REMARK  Name = 
REMARK  5 active torsions:
REMARK  status: ('A' for Active; 'I' for Inactive)
REMARK    1  A    between atoms: C_2  and  C_19
REMARK    2  A    between atoms: N_3  and  C_4
REMARK    3  A    between atoms: C_7  and  S_8
REMARK    4  A    between atoms: S_8  and  N_11
REMARK    5  A    between atoms: C_23  and  C_25
REMARK                            x       y       z     vdW  Elec       q    Type
REMARK                         _______ _______ _______ _____ _____    ______ ____
ROOT
ATOM      1  O   UNL     1      -0.297   9.932  17.971  0.00  0.00    +0.000 OA
ATOM      2  C   UNL     1       0.426  10.409  18.840  0.00  0.00    +0.000 C 
ATOM      3  N   UNL     1       1.417   9.717  19.518  0.00  0.00    +0.000 N 
ATOM      4  H   UNL     1       1.873  10.181  20.292  0.00  0.00    +0.000 HD
ENDROOT
BRANCH   2   5
ATOM      5  C   UNL     1       0.306  11.877  19.246  0.00  0.00    +0.000 C 
ATOM      6  C   UNL     1       0.699  12.134  20.708  0.00  0.00    +0.000 C 
ATOM      7  C   UNL     1      -0.347  11.595  21.685  0.00  0.00    +0.000 C 
ATOM      8  N   UNL     1      -1.674  12.110  21.365  0.00  0.00    +0.000 N 
ATOM      9  C   UNL     1      -2.397  12.815  22.342  0.00  0.00    +0.000 C 
ATOM     10  O   UNL     1      -1.861  13.129  23.408  0.00  0.00    +0.000 OA
ATOM     11  C   UNL     1      -2.124  11.849  19.998  0.00  0.00    +0.000 C 
ATOM     12  C   UNL     1      -1.118  12.390  18.984  0.00  0.00    +0.000 C 
BRANCH   9  13
ATOM     13  C   UNL     1      -3.763  13.216  22.055  0.00  0.00    +0.000 A 
ATOM     14  C   UNL     1      -4.266  14.418  21.587  0.00  0.00    +0.000 A 
ATOM     15  C   UNL     1      -5.663  14.249  21.432  0.00  0.00    +0.000 A 
ATOM     16  C   UNL     1      -5.943  12.977  21.868  0.00  0.00    +0.000 A 
ATOM     17  O   UNL     1      -4.811  12.365  22.294  0.00  0.00    +0.000 OA
ENDBRANCH   9  13
ENDBRANCH   2   5
BRANCH   3  18
ATOM     18  C   UNL     1       1.829   8.395  19.249  0.00  0.00    +0.000 A 
ATOM     19  C   UNL     1       2.367   8.003  18.020  0.00  0.00    +0.000 A 
ATOM     20  C   UNL     1       2.820   6.699  17.818  0.00  0.00    +0.000 A 
ATOM     21  C   UNL     1       2.750   5.778  18.857  0.00  0.00    +0.000 A 
ATOM     22  C   UNL     1       2.159   6.131  20.076  0.00  0.00    +0.000 A 
ATOM     23  C   UNL     1       1.720   7.446  20.273  0.00  0.00    +0.000 A 
BRANCH  21  24
ATOM     24  S   UNL     1       3.414   4.139  18.614  0.00  0.00    +0.000 S 
ATOM     25  O   UNL     1       3.211   3.405  19.842  0.00  0.00    +0.000 OA
ATOM     26  O   UNL     1       2.895   3.644  17.354  0.00  0.00    +0.000 OA
BRANCH  24  27
ATOM     27  N   UNL     1       5.099   4.424  18.420  0.00  0.00    +0.000 NA
ATOM     28  C   UNL     1       5.568   4.501  17.011  0.00  0.00    +0.000 C 
ATOM     29  C   UNL     1       7.089   4.594  16.930  0.00  0.00    +0.000 C 
ATOM     30  C   UNL     1       7.613   5.743  17.780  0.00  0.00    +0.000 C 
ATOM     31  C   UNL     1       7.173   5.544  19.222  0.00  0.00    +0.000 C 
ATOM     32  C   UNL     1       5.656   5.461  19.327  0.00  0.00    +0.000 C 
ENDBRANCH  24  27
ENDBRANCH  21  24
ENDBRANCH   3  18
TORSDOF 5
ENDMDL
MODEL 9
REMARK VINA RESULT:      -9.3      3.471      9.661
REMARK  Name = 
REMARK  5 active torsions:
REMARK  status: ('A' for Active; 'I' for Inactive)
REMARK    1  A    between atoms: C_2  and  C_19
REMARK    2  A    between atoms: N_3  and  C_4
REMARK    3  A    between atoms: C_7  and  S_8
REMARK    4  A    between atoms: S_8  and  N_11
REMARK    5  A    between atoms: C_23  and  C_25
REMARK                            x       y       z     vdW  Elec       q    Type
REMARK                         _______ _______ _______ _____ _____    ______ ____
ROOT
ATOM      1  O   UNL     1      -0.898   9.921  19.490  0.00  0.00    +0.000 OA
ATOM      2  C   UNL     1      -0.059  10.299  20.303  0.00  0.00    +0.000 C 
ATOM      3  N   UNL     1       1.071   9.586  20.669  0.00  0.00    +0.000 N 
ATOM      4  H   UNL     1       1.632   9.947  21.430  0.00  0.00    +0.000 HD
ENDROOT
BRANCH   2   5
ATOM      5  C   UNL     1      -0.185  11.660  20.988  0.00  0.00    +0.000 C 
ATOM      6  C   UNL     1      -1.226  12.574  20.326  0.00  0.00    +0.000 C 
ATOM      7  C   UNL     1      -0.746  13.102  18.972  0.00  0.00    +0.000 C 
ATOM      8  N   UNL     1       0.560  13.738  19.093  0.00  0.00    +0.000 N 
ATOM      9  C   UNL     1       0.720  15.073  18.686  0.00  0.00    +0.000 C 
ATOM     10  O   UNL     1      -0.262  15.750  18.371  0.00  0.00    +0.000 OA
ATOM     11  C   UNL     1       1.607  12.895  19.670  0.00  0.00    +0.000 C 
ATOM     12  C   UNL     1       1.180  12.361  21.037  0.00  0.00    +0.000 C 
BRANCH   9  13
ATOM     13  C   UNL     1       2.049  15.659  18.695  0.00  0.00    +0.000 A 
ATOM     14  C   UNL     1       3.045  15.641  17.733  0.00  0.00    +0.000 A 
ATOM     15  C   UNL     1       4.118  16.416  18.236  0.00  0.00    +0.000 A 
ATOM     16  C   UNL     1       3.742  16.814  19.496  0.00  0.00    +0.000 A 
ATOM     17  O   UNL     1       2.518  16.320  19.801  0.00  0.00    +0.000 OA
ENDBRANCH   9  13
ENDBRANCH   2   5
BRANCH   3  18
ATOM     18  C   UNL     1       1.500   8.371  20.096  0.00  0.00    +0.000 A 
ATOM     19  C   UNL     1       2.061   8.290  18.819  0.00  0.00    +0.000 A 
ATOM     20  C   UNL     1       2.529   7.076  18.315  0.00  0.00    +0.000 A 
ATOM     21  C   UNL     1       2.452   5.931  19.100  0.00  0.00    +0.000 A 
ATOM     22  C   UNL     1       1.838   5.976  20.358  0.00  0.00    +0.000 A 
ATOM     23  C   UNL     1       1.384   7.202  20.858  0.00  0.00    +0.000 A 
BRANCH  21  24
ATOM     24  S   UNL     1       3.135   4.403  18.479  0.00  0.00    +0.000 S 
ATOM     25  O   UNL     1       3.191   3.475  19.587  0.00  0.00    +0.000 OA
ATOM     26  O   UNL     1       2.420   4.072  17.263  0.00  0.00    +0.000 OA
BRANCH  24  27
ATOM     27  N   UNL     1       4.742   4.839  18.051  0.00  0.00    +0.000 NA
ATOM     28  C   UNL     1       5.670   5.036  19.197  0.00  0.00    +0.000 C 
ATOM     29  C   UNL     1       7.022   5.574  18.740  0.00  0.00    +0.000 C 
ATOM     30  C   UNL     1       7.622   4.694  17.653  0.00  0.00    +0.000 C 
ATOM     31  C   UNL     1       6.659   4.619  16.478  0.00  0.00    +0.000 C 
ATOM     32  C   UNL     1       5.306   4.071  16.910  0.00  0.00    +0.000 C 
ENDBRANCH  24  27
ENDBRANCH  21  24
ENDBRANCH   3  18
TORSDOF 5
ENDMDL
