MODEL 1
REMARK VINA RESULT:      -7.6      0.000      0.000
REMARK  Name = 
REMARK  12 active torsions:
REMARK  status: ('A' for Active; 'I' for Inactive)
REMARK    1  A    between atoms: C_1  and  O_2
REMARK    2  A    between atoms: O_2  and  C_3
REMARK    3  A    between atoms: C_9  and  C_10
REMARK    4  A    between atoms: C_10  and  N_11
REMARK    5  A    between atoms: N_11  and  C_12
REMARK    6  A    between atoms: N_11  and  C_13
REMARK    7  A    between atoms: C_13  and  C_14
REMARK    8  A    between atoms: N_16  and  C_17
REMARK    9  A    between atoms: C_17  and  C_18
REMARK   10  A    between atoms: C_18  and  C_19
REMARK   11  A    between atoms: C_22  and  S_23
REMARK   12  A    between atoms: S_23  and  N_24
REMARK                            x       y       z     vdW  Elec       q    Type
REMARK                         _______ _______ _______ _____ _____    ______ ____
ROOT
ATOM      1  C   UNL     1       7.869   7.239  17.898  0.00  0.00    +0.000 C 
ATOM      2  O   UNL     1       7.502   7.560  16.771  0.00  0.00    +0.000 OA
ATOM      3  N   UNL     1       8.559   8.085  18.741  0.00  0.00    +0.000 N 
ATOM      4  H   UNL     1       8.609   7.778  19.714  0.00  0.00    +0.000 HD
ENDROOT
BRANCH   1   5
ATOM      5  C   UNL     1       7.633   5.838  18.460  0.00  0.00    +0.000 C 
BRANCH   5   6
ATOM      6  N   UNL     1       6.391   5.209  17.932  0.00  0.00    +0.000 NA
ATOM      7  C   UNL     1       6.713   4.588  16.642  0.00  0.00    +0.000 C 
BRANCH   6   8
ATOM      8  C   UNL     1       5.311   6.216  17.798  0.00  0.00    +0.000 C 
BRANCH   8  15
ATOM      9  C   UNL     1       2.920   6.729  18.620  0.00  0.00    +0.000 A 
ATOM     10  C   UNL     1       1.823   6.374  19.421  0.00  0.00    +0.000 A 
ATOM     11  C   UNL     1       1.838   5.200  20.177  0.00  0.00    +0.000 A 
ATOM     12  C   UNL     1       2.942   4.361  20.122  0.00  0.00    +0.000 A 
ATOM     13 BR   UNL     1       2.949   2.747  21.103  0.00  0.00    +0.000 Br
ATOM     14  C   UNL     1       4.043   4.699  19.342  0.00  0.00    +0.000 A 
ATOM     15  C   UNL     1       4.058   5.896  18.595  0.00  0.00    +0.000 A 
BRANCH   9  17
ATOM     16  C   UNL     1       1.956   8.838  18.110  0.00  0.00    +0.000 C 
ATOM     17  O   UNL     1       2.937   7.844  17.817  0.00  0.00    +0.000 OA
ENDBRANCH   9  17
ENDBRANCH   8  15
ENDBRANCH   6   8
ENDBRANCH   5   6
ENDBRANCH   1   5
BRANCH   3  18
ATOM     18  C   UNL     1       8.701   9.479  18.398  0.00  0.00    +0.000 C 
BRANCH  18  19
ATOM     19  C   UNL     1       9.319  10.303  19.521  0.00  0.00    +0.000 C 
BRANCH  19  20
ATOM     20  C   UNL     1       9.613  11.704  19.048  0.00  0.00    +0.000 A 
ATOM     21  C   UNL     1       9.176  12.808  19.790  0.00  0.00    +0.000 A 
ATOM     22  C   UNL     1       9.413  14.104  19.334  0.00  0.00    +0.000 A 
ATOM     23  C   UNL     1      10.099  14.290  18.131  0.00  0.00    +0.000 A 
ATOM     24  C   UNL     1      10.514  13.200  17.365  0.00  0.00    +0.000 A 
ATOM     25  C   UNL     1      10.272  11.908  17.827  0.00  0.00    +0.000 A 
BRANCH  23  26
ATOM     26  S   UNL     1      10.449  15.934  17.578  0.00  0.00    +0.000 S 
ATOM     27  O   UNL     1       9.220  16.695  17.533  0.00  0.00    +0.000 OA
ATOM     28  O   UNL     1      11.642  16.417  18.229  0.00  0.00    +0.000 OA
BRANCH  26  29
ATOM     29  N   UNL     1      10.872  15.646  15.981  0.00  0.00    +0.000 NA
ATOM     30  H   UNL     1      10.051  15.376  15.445  0.00  0.00    +0.000 HD
ATOM     31  H   UNL     1      11.381  16.446  15.605  0.00  0.00    +0.000 HD
ENDBRANCH  26  29
ENDBRANCH  23  26
ENDBRANCH  19  20
ENDBRANCH  18  19
ENDBRANCH   3  18
TORSDOF 10
ENDMDL
MODEL 2
REMARK VINA RESULT:      -7.5      6.482      9.806
REMARK  Name = 
REMARK  12 active torsions:
REMARK  status: ('A' for Active; 'I' for Inactive)
REMARK    1  A    between atoms: C_1  and  O_2
REMARK    2  A    between atoms: O_2  and  C_3
REMARK    3  A    between atoms: C_9  and  C_10
REMARK    4  A    between atoms: C_10  and  N_11
REMARK    5  A    between atoms: N_11  and  C_12
REMARK    6  A    between atoms: N_11  and  C_13
REMARK    7  A    between atoms: C_13  and  C_14
REMARK    8  A    between atoms: N_16  and  C_17
REMARK    9  A    between atoms: C_17  and  C_18
REMARK   10  A    between atoms: C_18  and  C_19
REMARK   11  A    between atoms: C_22  and  S_23
REMARK   12  A    between atoms: S_23  and  N_24
REMARK                            x       y       z     vdW  Elec       q    Type
REMARK                         _______ _______ _______ _____ _____    ______ ____
ROOT
ATOM      1  C   UNL     1       0.919  10.542  19.199  0.00  0.00    +0.000 C 
ATOM      2  O   UNL     1       1.479  11.189  18.318  0.00  0.00    +0.000 OA
ATOM      3  N   UNL     1       0.979   9.167  19.286  0.00  0.00    +0.000 N 
ATOM      4  H   UNL     1       0.662   8.776  20.175  0.00  0.00    +0.000 HD
ENDROOT
BRANCH   1   5
ATOM      5  C   UNL     1       0.055  11.207  20.270  0.00  0.00    +0.000 C 
BRANCH   5   6
ATOM      6  N   UNL     1      -0.717  12.367  19.746  0.00  0.00    +0.000 NA
ATOM      7  C   UNL     1      -0.025  13.594  20.159  0.00  0.00    +0.000 C 
BRANCH   6   8
ATOM      8  C   UNL     1      -2.112  12.334  20.244  0.00  0.00    +0.000 C 
BRANCH   8  15
ATOM      9  C   UNL     1      -4.533  12.235  19.356  0.00  0.00    +0.000 A 
ATOM     10  C   UNL     1      -5.422  11.881  18.328  0.00  0.00    +0.000 A 
ATOM     11  C   UNL     1      -4.952  11.344  17.128  0.00  0.00    +0.000 A 
ATOM     12  C   UNL     1      -3.587  11.176  16.937  0.00  0.00    +0.000 A 
ATOM     13 BR   UNL     1      -2.942  10.497  15.297  0.00  0.00    +0.000 Br
ATOM     14  C   UNL     1      -2.691  11.512  17.946  0.00  0.00    +0.000 A 
ATOM     15  C   UNL     1      -3.149  12.028  19.177  0.00  0.00    +0.000 A 
BRANCH   9  17
ATOM     16  C   UNL     1      -6.107  13.628  20.460  0.00  0.00    +0.000 C 
ATOM     17  O   UNL     1      -4.937  12.815  20.534  0.00  0.00    +0.000 OA
ENDBRANCH   9  17
ENDBRANCH   8  15
ENDBRANCH   6   8
ENDBRANCH   5   6
ENDBRANCH   1   5
BRANCH   3  18
ATOM     18  C   UNL     1       1.890   8.434  18.440  0.00  0.00    +0.000 C 
BRANCH  18  19
ATOM     19  C   UNL     1       2.353   7.125  19.065  0.00  0.00    +0.000 C 
BRANCH  19  20
ATOM     20  C   UNL     1       3.475   6.522  18.260  0.00  0.00    +0.000 A 
ATOM     21  C   UNL     1       4.146   7.286  17.297  0.00  0.00    +0.000 A 
ATOM     22  C   UNL     1       5.157   6.718  16.523  0.00  0.00    +0.000 A 
ATOM     23  C   UNL     1       5.500   5.378  16.724  0.00  0.00    +0.000 A 
ATOM     24  C   UNL     1       4.821   4.595  17.658  0.00  0.00    +0.000 A 
ATOM     25  C   UNL     1       3.810   5.170  18.426  0.00  0.00    +0.000 A 
BRANCH  23  26
ATOM     26  S   UNL     1       6.821   4.671  15.783  0.00  0.00    +0.000 S 
ATOM     27  O   UNL     1       6.358   3.456  15.147  0.00  0.00    +0.000 OA
ATOM     28  O   UNL     1       7.511   5.713  15.063  0.00  0.00    +0.000 OA
BRANCH  26  29
ATOM     29  N   UNL     1       7.856   4.185  17.009  0.00  0.00    +0.000 NA
ATOM     30  H   UNL     1       7.854   3.170  17.087  0.00  0.00    +0.000 HD
ATOM     31  H   UNL     1       8.779   4.598  16.872  0.00  0.00    +0.000 HD
ENDBRANCH  26  29
ENDBRANCH  23  26
ENDBRANCH  19  20
ENDBRANCH  18  19
ENDBRANCH   3  18
TORSDOF 10
ENDMDL
MODEL 3
REMARK VINA RESULT:      -7.4      6.656      9.124
REMARK  Name = 
REMARK  12 active torsions:
REMARK  status: ('A' for Active; 'I' for Inactive)
REMARK    1  A    between atoms: C_1  and  O_2
REMARK    2  A    between atoms: O_2  and  C_3
REMARK    3  A    between atoms: C_9  and  C_10
REMARK    4  A    between atoms: C_10  and  N_11
REMARK    5  A    between atoms: N_11  and  C_12
REMARK    6  A    between atoms: N_11  and  C_13
REMARK    7  A    between atoms: C_13  and  C_14
REMARK    8  A    between atoms: N_16  and  C_17
REMARK    9  A    between atoms: C_17  and  C_18
REMARK   10  A    between atoms: C_18  and  C_19
REMARK   11  A    between atoms: C_22  and  S_23
REMARK   12  A    between atoms: S_23  and  N_24
REMARK                            x       y       z     vdW  Elec       q    Type
REMARK                         _______ _______ _______ _____ _____    ______ ____
ROOT
ATOM      1  C   UNL     1       1.971   5.599  20.375  0.00  0.00    +0.000 C 
ATOM      2  O   UNL     1       0.978   4.936  20.663  0.00  0.00    +0.000 OA
ATOM      3  N   UNL     1       2.013   6.975  20.447  0.00  0.00    +0.000 N 
ATOM      4  H   UNL     1       2.948   7.382  20.396  0.00  0.00    +0.000 HD
ENDROOT
BRANCH   1   5
ATOM      5  C   UNL     1       3.257   4.953  19.861  0.00  0.00    +0.000 C 
BRANCH   5   6
ATOM      6  N   UNL     1       3.285   4.833  18.377  0.00  0.00    +0.000 NA
ATOM      7  C   UNL     1       1.919   4.552  17.920  0.00  0.00    +0.000 C 
BRANCH   6   8
ATOM      8  C   UNL     1       4.230   3.772  17.956  0.00  0.00    +0.000 C 
BRANCH   8  15
ATOM      9  C   UNL     1       6.360   5.081  17.318  0.00  0.00    +0.000 A 
ATOM     10  C   UNL     1       7.266   5.491  16.327  0.00  0.00    +0.000 A 
ATOM     11  C   UNL     1       7.129   5.058  15.007  0.00  0.00    +0.000 A 
ATOM     12  C   UNL     1       6.096   4.193  14.671  0.00  0.00    +0.000 A 
ATOM     13 BR   UNL     1       5.935   3.563  12.898  0.00  0.00    +0.000 Br
ATOM     14  C   UNL     1       5.183   3.782  15.636  0.00  0.00    +0.000 A 
ATOM     15  C   UNL     1       5.288   4.234  16.968  0.00  0.00    +0.000 A 
BRANCH   9  17
ATOM     16  C   UNL     1       7.793   5.769  19.081  0.00  0.00    +0.000 C 
ATOM     17  O   UNL     1       6.478   5.435  18.640  0.00  0.00    +0.000 OA
ENDBRANCH   9  17
ENDBRANCH   8  15
ENDBRANCH   6   8
ENDBRANCH   5   6
ENDBRANCH   1   5
BRANCH   3  18
ATOM     18  C   UNL     1       0.928   7.694  21.071  0.00  0.00    +0.000 C 
BRANCH  18  19
ATOM     19  C   UNL     1       1.395   8.934  21.822  0.00  0.00    +0.000 C 
BRANCH  19  20
ATOM     20  C   UNL     1       0.299   9.967  21.870  0.00  0.00    +0.000 A 
ATOM     21  C   UNL     1      -0.429  10.174  23.049  0.00  0.00    +0.000 A 
ATOM     22  C   UNL     1      -1.469  11.103  23.082  0.00  0.00    +0.000 A 
ATOM     23  C   UNL     1      -1.773  11.830  21.928  0.00  0.00    +0.000 A 
ATOM     24  C   UNL     1      -1.077  11.614  20.739  0.00  0.00    +0.000 A 
ATOM     25  C   UNL     1      -0.040  10.683  20.712  0.00  0.00    +0.000 A 
BRANCH  23  26
ATOM     26  S   UNL     1      -3.055  13.048  21.985  0.00  0.00    +0.000 S 
ATOM     27  O   UNL     1      -4.294  12.419  22.390  0.00  0.00    +0.000 OA
ATOM     28  O   UNL     1      -2.552  14.248  22.605  0.00  0.00    +0.000 OA
BRANCH  26  29
ATOM     29  N   UNL     1      -3.227  13.400  20.355  0.00  0.00    +0.000 NA
ATOM     30  H   UNL     1      -2.332  13.306  19.880  0.00  0.00    +0.000 HD
ATOM     31  H   UNL     1      -3.981  12.840  19.954  0.00  0.00    +0.000 HD
ENDBRANCH  26  29
ENDBRANCH  23  26
ENDBRANCH  19  20
ENDBRANCH  18  19
ENDBRANCH   3  18
TORSDOF 10
ENDMDL
MODEL 4
REMARK VINA RESULT:      -7.4      2.661      3.508
REMARK  Name = 
REMARK  12 active torsions:
REMARK  status: ('A' for Active; 'I' for Inactive)
REMARK    1  A    between atoms: C_1  and  O_2
REMARK    2  A    between atoms: O_2  and  C_3
REMARK    3  A    between atoms: C_9  and  C_10
REMARK    4  A    between atoms: C_10  and  N_11
REMARK    5  A    between atoms: N_11  and  C_12
REMARK    6  A    between atoms: N_11  and  C_13
REMARK    7  A    between atoms: C_13  and  C_14
REMARK    8  A    between atoms: N_16  and  C_17
REMARK    9  A    between atoms: C_17  and  C_18
REMARK   10  A    between atoms: C_18  and  C_19
REMARK   11  A    between atoms: C_22  and  S_23
REMARK   12  A    between atoms: S_23  and  N_24
REMARK                            x       y       z     vdW  Elec       q    Type
REMARK                         _______ _______ _______ _____ _____    ______ ____
ROOT
ATOM      1  C   UNL     1       6.974   5.003  18.075  0.00  0.00    +0.000 C 
ATOM      2  O   UNL     1       7.900   4.511  17.434  0.00  0.00    +0.000 OA
ATOM      3  N   UNL     1       7.039   6.244  18.672  0.00  0.00    +0.000 N 
ATOM      4  H   UNL     1       6.142   6.622  18.979  0.00  0.00    +0.000 HD
ENDROOT
BRANCH   1   5
ATOM      5  C   UNL     1       5.663   4.254  18.310  0.00  0.00    +0.000 C 
BRANCH   5   6
ATOM      6  N   UNL     1       4.871   4.077  17.061  0.00  0.00    +0.000 NA
ATOM      7  C   UNL     1       5.147   5.222  16.185  0.00  0.00    +0.000 C 
BRANCH   6   8
ATOM      8  C   UNL     1       3.426   3.964  17.371  0.00  0.00    +0.000 C 
BRANCH   8  15
ATOM      9  C   UNL     1       2.587   4.718  19.691  0.00  0.00    +0.000 A 
ATOM     10  C   UNL     1       2.079   5.738  20.512  0.00  0.00    +0.000 A 
ATOM     11  C   UNL     1       1.911   7.034  20.022  0.00  0.00    +0.000 A 
ATOM     12  C   UNL     1       2.269   7.327  18.713  0.00  0.00    +0.000 A 
ATOM     13 BR   UNL     1       2.091   9.090  18.060  0.00  0.00    +0.000 Br
ATOM     14  C   UNL     1       2.766   6.329  17.881  0.00  0.00    +0.000 A 
ATOM     15  C   UNL     1       2.914   5.007  18.350  0.00  0.00    +0.000 A 
BRANCH   9  17
ATOM     16  C   UNL     1       1.664   2.654  20.416  0.00  0.00    +0.000 C 
ATOM     17  O   UNL     1       2.822   3.440  20.137  0.00  0.00    +0.000 OA
ENDBRANCH   9  17
ENDBRANCH   8  15
ENDBRANCH   6   8
ENDBRANCH   5   6
ENDBRANCH   1   5
BRANCH   3  18
ATOM     18  C   UNL     1       8.152   7.118  18.390  0.00  0.00    +0.000 C 
BRANCH  18  19
ATOM     19  C   UNL     1       7.752   8.338  17.570  0.00  0.00    +0.000 C 
BRANCH  19  20
ATOM     20  C   UNL     1       8.367   9.587  18.146  0.00  0.00    +0.000 A 
ATOM     21  C   UNL     1       8.254  10.809  17.470  0.00  0.00    +0.000 A 
ATOM     22  C   UNL     1       8.856  11.957  17.983  0.00  0.00    +0.000 A 
ATOM     23  C   UNL     1       9.568  11.878  19.183  0.00  0.00    +0.000 A 
ATOM     24  C   UNL     1       9.715  10.663  19.852  0.00  0.00    +0.000 A 
ATOM     25  C   UNL     1       9.112   9.519  19.333  0.00  0.00    +0.000 A 
BRANCH  23  26
ATOM     26  S   UNL     1      10.284  13.346  19.864  0.00  0.00    +0.000 S 
ATOM     27  O   UNL     1      11.724  13.276  19.740  0.00  0.00    +0.000 OA
ATOM     28  O   UNL     1       9.521  14.494  19.443  0.00  0.00    +0.000 OA
BRANCH  26  29
ATOM     29  N   UNL     1       9.950  13.133  21.493  0.00  0.00    +0.000 NA
ATOM     30  H   UNL     1       8.986  12.832  21.617  0.00  0.00    +0.000 HD
ATOM     31  H   UNL     1      10.645  12.515  21.915  0.00  0.00    +0.000 HD
ENDBRANCH  26  29
ENDBRANCH  23  26
ENDBRANCH  19  20
ENDBRANCH  18  19
ENDBRANCH   3  18
TORSDOF 10
ENDMDL
MODEL 5
REMARK VINA RESULT:      -7.3      6.200      7.977
REMARK  Name = 
REMARK  12 active torsions:
REMARK  status: ('A' for Active; 'I' for Inactive)
REMARK    1  A    between atoms: C_1  and  O_2
REMARK    2  A    between atoms: O_2  and  C_3
REMARK    3  A    between atoms: C_9  and  C_10
REMARK    4  A    between atoms: C_10  and  N_11
REMARK    5  A    between atoms: N_11  and  C_12
REMARK    6  A    between atoms: N_11  and  C_13
REMARK    7  A    between atoms: C_13  and  C_14
REMARK    8  A    between atoms: N_16  and  C_17
REMARK    9  A    between atoms: C_17  and  C_18
REMARK   10  A    between atoms: C_18  and  C_19
REMARK   11  A    between atoms: C_22  and  S_23
REMARK   12  A    between atoms: S_23  and  N_24
REMARK                            x       y       z     vdW  Elec       q    Type
REMARK                         _______ _______ _______ _____ _____    ______ ____
ROOT
ATOM      1  C   UNL     1       1.982   4.726  20.354  0.00  0.00    +0.000 C 
ATOM      2  O   UNL     1       2.364   4.474  21.494  0.00  0.00    +0.000 OA
ATOM      3  N   UNL     1       1.649   5.993  19.926  0.00  0.00    +0.000 N 
ATOM      4  H   UNL     1       1.563   6.099  18.914  0.00  0.00    +0.000 HD
ENDROOT
BRANCH   1   5
ATOM      5  C   UNL     1       1.794   3.633  19.302  0.00  0.00    +0.000 C 
BRANCH   5   6
ATOM      6  N   UNL     1       3.018   3.406  18.485  0.00  0.00    +0.000 NA
ATOM      7  C   UNL     1       3.805   2.351  19.133  0.00  0.00    +0.000 C 
BRANCH   6   8
ATOM      8  C   UNL     1       3.796   4.660  18.349  0.00  0.00    +0.000 C 
BRANCH   8  15
ATOM      9  C   UNL     1       6.344   4.686  17.946  0.00  0.00    +0.000 A 
ATOM     10  C   UNL     1       7.419   4.600  17.047  0.00  0.00    +0.000 A 
ATOM     11  C   UNL     1       7.201   4.354  15.690  0.00  0.00    +0.000 A 
ATOM     12  C   UNL     1       5.906   4.171  15.225  0.00  0.00    +0.000 A 
ATOM     13 BR   UNL     1       5.606   3.787  13.399  0.00  0.00    +0.000 Br
ATOM     14  C   UNL     1       4.826   4.261  16.097  0.00  0.00    +0.000 A 
ATOM     15  C   UNL     1       5.026   4.539  17.466  0.00  0.00    +0.000 A 
BRANCH   9  17
ATOM     16  C   UNL     1       7.617   5.680  19.686  0.00  0.00    +0.000 C 
ATOM     17  O   UNL     1       6.506   4.875  19.297  0.00  0.00    +0.000 OA
ENDBRANCH   9  17
ENDBRANCH   8  15
ENDBRANCH   6   8
ENDBRANCH   5   6
ENDBRANCH   1   5
BRANCH   3  18
ATOM     18  C   UNL     1       1.938   7.132  20.766  0.00  0.00    +0.000 C 
BRANCH  18  19
ATOM     19  C   UNL     1       0.681   7.789  21.321  0.00  0.00    +0.000 C 
BRANCH  19  20
ATOM     20  C   UNL     1       0.488   9.156  20.716  0.00  0.00    +0.000 A 
ATOM     21  C   UNL     1      -0.270  10.126  21.384  0.00  0.00    +0.000 A 
ATOM     22  C   UNL     1      -0.481  11.378  20.807  0.00  0.00    +0.000 A 
ATOM     23  C   UNL     1       0.077  11.657  19.557  0.00  0.00    +0.000 A 
ATOM     24  C   UNL     1       0.809  10.692  18.865  0.00  0.00    +0.000 A 
ATOM     25  C   UNL     1       1.015   9.443  19.448  0.00  0.00    +0.000 A 
BRANCH  23  26
ATOM     26  S   UNL     1      -0.144  13.263  18.849  0.00  0.00    +0.000 S 
ATOM     27  O   UNL     1      -1.022  14.042  19.695  0.00  0.00    +0.000 OA
ATOM     28  O   UNL     1       1.124  13.760  18.376  0.00  0.00    +0.000 OA
BRANCH  26  29
ATOM     29  N   UNL     1      -1.037  12.884  17.481  0.00  0.00    +0.000 NA
ATOM     30  H   UNL     1      -0.474  13.024  16.645  0.00  0.00    +0.000 HD
ATOM     31  H   UNL     1      -1.437  11.950  17.573  0.00  0.00    +0.000 HD
ENDBRANCH  26  29
ENDBRANCH  23  26
ENDBRANCH  19  20
ENDBRANCH  18  19
ENDBRANCH   3  18
TORSDOF 10
ENDMDL
MODEL 6
REMARK VINA RESULT:      -7.3      6.177      8.171
REMARK  Name = 
REMARK  12 active torsions:
REMARK  status: ('A' for Active; 'I' for Inactive)
REMARK    1  A    between atoms: C_1  and  O_2
REMARK    2  A    between atoms: O_2  and  C_3
REMARK    3  A    between atoms: C_9  and  C_10
REMARK    4  A    between atoms: C_10  and  N_11
REMARK    5  A    between atoms: N_11  and  C_12
REMARK    6  A    between atoms: N_11  and  C_13
REMARK    7  A    between atoms: C_13  and  C_14
REMARK    8  A    between atoms: N_16  and  C_17
REMARK    9  A    between atoms: C_17  and  C_18
REMARK   10  A    between atoms: C_18  and  C_19
REMARK   11  A    between atoms: C_22  and  S_23
REMARK   12  A    between atoms: S_23  and  N_24
REMARK                            x       y       z     vdW  Elec       q    Type
REMARK                         _______ _______ _______ _____ _____    ______ ____
ROOT
ATOM      1  C   UNL     1       1.408   2.856  18.622  0.00  0.00    +0.000 C 
ATOM      2  O   UNL     1       0.604   2.125  19.196  0.00  0.00    +0.000 OA
ATOM      3  N   UNL     1       1.639   4.165  18.987  0.00  0.00    +0.000 N 
ATOM      4  H   UNL     1       2.476   4.586  18.580  0.00  0.00    +0.000 HD
ENDROOT
BRANCH   1   5
ATOM      5  C   UNL     1       2.205   2.388  17.405  0.00  0.00    +0.000 C 
BRANCH   5   6
ATOM      6  N   UNL     1       3.657   2.232  17.695  0.00  0.00    +0.000 NA
ATOM      7  C   UNL     1       3.800   1.237  18.764  0.00  0.00    +0.000 C 
BRANCH   6   8
ATOM      8  C   UNL     1       4.257   3.532  18.077  0.00  0.00    +0.000 C 
BRANCH   8  15
ATOM      9  C   UNL     1       6.500   4.710  17.589  0.00  0.00    +0.000 A 
ATOM     10  C   UNL     1       7.447   5.149  16.651  0.00  0.00    +0.000 A 
ATOM     11  C   UNL     1       7.283   4.884  15.290  0.00  0.00    +0.000 A 
ATOM     12  C   UNL     1       6.180   4.159  14.858  0.00  0.00    +0.000 A 
ATOM     13 BR   UNL     1       5.978   3.754  13.024  0.00  0.00    +0.000 Br
ATOM     14  C   UNL     1       5.226   3.723  15.771  0.00  0.00    +0.000 A 
ATOM     15  C   UNL     1       5.360   4.008  17.147  0.00  0.00    +0.000 A 
BRANCH   9  17
ATOM     16  C   UNL     1       7.682   5.783  19.346  0.00  0.00    +0.000 C 
ATOM     17  O   UNL     1       6.639   4.898  18.943  0.00  0.00    +0.000 OA
ENDBRANCH   9  17
ENDBRANCH   8  15
ENDBRANCH   6   8
ENDBRANCH   5   6
ENDBRANCH   1   5
BRANCH   3  18
ATOM     18  C   UNL     1       1.077   4.677  20.215  0.00  0.00    +0.000 C 
BRANCH  18  19
ATOM     19  C   UNL     1       1.986   5.687  20.904  0.00  0.00    +0.000 C 
BRANCH  19  20
ATOM     20  C   UNL     1       1.661   7.087  20.450  0.00  0.00    +0.000 A 
ATOM     21  C   UNL     1       2.138   7.562  19.222  0.00  0.00    +0.000 A 
ATOM     22  C   UNL     1       1.871   8.870  18.820  0.00  0.00    +0.000 A 
ATOM     23  C   UNL     1       1.115   9.700  19.651  0.00  0.00    +0.000 A 
ATOM     24  C   UNL     1       0.659   9.251  20.891  0.00  0.00    +0.000 A 
ATOM     25  C   UNL     1       0.931   7.944  21.287  0.00  0.00    +0.000 A 
BRANCH  23  26
ATOM     26  S   UNL     1       0.729  11.341  19.117  0.00  0.00    +0.000 S 
ATOM     27  O   UNL     1       0.052  12.045  20.184  0.00  0.00    +0.000 OA
ATOM     28  O   UNL     1       1.856  11.896  18.410  0.00  0.00    +0.000 OA
BRANCH  26  29
ATOM     29  N   UNL     1      -0.441  11.027  17.957  0.00  0.00    +0.000 NA
ATOM     30  H   UNL     1      -1.370  11.126  18.362  0.00  0.00    +0.000 HD
ATOM     31  H   UNL     1      -0.276  11.601  17.129  0.00  0.00    +0.000 HD
ENDBRANCH  26  29
ENDBRANCH  23  26
ENDBRANCH  19  20
ENDBRANCH  18  19
ENDBRANCH   3  18
TORSDOF 10
ENDMDL
MODEL 7
REMARK VINA RESULT:      -7.3      7.282     10.516
REMARK  Name = 
REMARK  12 active torsions:
REMARK  status: ('A' for Active; 'I' for Inactive)
REMARK    1  A    between atoms: C_1  and  O_2
REMARK    2  A    between atoms: O_2  and  C_3
REMARK    3  A    between atoms: C_9  and  C_10
REMARK    4  A    between atoms: C_10  and  N_11
REMARK    5  A    between atoms: N_11  and  C_12
REMARK    6  A    between atoms: N_11  and  C_13
REMARK    7  A    between atoms: C_13  and  C_14
REMARK    8  A    between atoms: N_16  and  C_17
REMARK    9  A    between atoms: C_17  and  C_18
REMARK   10  A    between atoms: C_18  and  C_19
REMARK   11  A    between atoms: C_22  and  S_23
REMARK   12  A    between atoms: S_23  and  N_24
REMARK                            x       y       z     vdW  Elec       q    Type
REMARK                         _______ _______ _______ _____ _____    ______ ____
ROOT
ATOM      1  C   UNL     1       0.970   9.622  19.856  0.00  0.00    +0.000 C 
ATOM      2  O   UNL     1       1.200   8.588  20.477  0.00  0.00    +0.000 OA
ATOM      3  N   UNL     1       1.199   9.762  18.503  0.00  0.00    +0.000 N 
ATOM      4  H   UNL     1       0.765  10.581  18.075  0.00  0.00    +0.000 HD
ENDROOT
BRANCH   1   5
ATOM      5  C   UNL     1       0.443  10.881  20.543  0.00  0.00    +0.000 C 
BRANCH   5   6
ATOM      6  N   UNL     1       0.065  11.948  19.575  0.00  0.00    +0.000 NA
ATOM      7  C   UNL     1       1.163  12.921  19.523  0.00  0.00    +0.000 C 
BRANCH   6   8
ATOM      8  C   UNL     1      -1.211  12.587  19.974  0.00  0.00    +0.000 C 
BRANCH   8  15
ATOM      9  C   UNL     1      -3.747  12.279  19.610  0.00  0.00    +0.000 A 
ATOM     10  C   UNL     1      -4.795  11.790  18.815  0.00  0.00    +0.000 A 
ATOM     11  C   UNL     1      -4.538  11.179  17.587  0.00  0.00    +0.000 A 
ATOM     12  C   UNL     1      -3.230  11.070  17.133  0.00  0.00    +0.000 A 
ATOM     13 BR   UNL     1      -2.879  10.289  15.450  0.00  0.00    +0.000 Br
ATOM     14  C   UNL     1      -2.177  11.540  17.910  0.00  0.00    +0.000 A 
ATOM     15  C   UNL     1      -2.415  12.134  19.167  0.00  0.00    +0.000 A 
BRANCH   9  17
ATOM     16  C   UNL     1      -5.277  12.903  21.314  0.00  0.00    +0.000 C 
ATOM     17  O   UNL     1      -3.947  12.935  20.801  0.00  0.00    +0.000 OA
ENDBRANCH   9  17
ENDBRANCH   8  15
ENDBRANCH   6   8
ENDBRANCH   5   6
ENDBRANCH   1   5
BRANCH   3  18
ATOM     18  C   UNL     1       1.537   8.605  17.710  0.00  0.00    +0.000 C 
BRANCH  18  19
ATOM     19  C   UNL     1       2.993   8.185  17.869  0.00  0.00    +0.000 C 
BRANCH  19  20
ATOM     20  C   UNL     1       3.090   6.707  18.146  0.00  0.00    +0.000 A 
ATOM     21  C   UNL     1       1.973   5.879  17.971  0.00  0.00    +0.000 A 
ATOM     22  C   UNL     1       2.051   4.518  18.264  0.00  0.00    +0.000 A 
ATOM     23  C   UNL     1       3.257   3.987  18.729  0.00  0.00    +0.000 A 
ATOM     24  C   UNL     1       4.368   4.804  18.937  0.00  0.00    +0.000 A 
ATOM     25  C   UNL     1       4.283   6.163  18.643  0.00  0.00    +0.000 A 
BRANCH  23  26
ATOM     26  S   UNL     1       3.373   2.251  19.049  0.00  0.00    +0.000 S 
ATOM     27  O   UNL     1       2.347   1.870  19.996  0.00  0.00    +0.000 OA
ATOM     28  O   UNL     1       3.590   1.546  17.810  0.00  0.00    +0.000 OA
BRANCH  26  29
ATOM     29  N   UNL     1       4.823   2.181  19.888  0.00  0.00    +0.000 NA
ATOM     30  H   UNL     1       4.882   2.952  20.549  0.00  0.00    +0.000 HD
ATOM     31  H   UNL     1       4.943   1.256  20.302  0.00  0.00    +0.000 HD
ENDBRANCH  26  29
ENDBRANCH  23  26
ENDBRANCH  19  20
ENDBRANCH  18  19
ENDBRANCH   3  18
TORSDOF 10
ENDMDL
MODEL 8
REMARK VINA RESULT:      -7.2      7.149     10.494
REMARK  Name = 
REMARK  12 active torsions:
REMARK  status: ('A' for Active; 'I' for Inactive)
REMARK    1  A    between atoms: C_1  and  O_2
REMARK    2  A    between atoms: O_2  and  C_3
REMARK    3  A    between atoms: C_9  and  C_10
REMARK    4  A    between atoms: C_10  and  N_11
REMARK    5  A    between atoms: N_11  and  C_12
REMARK    6  A    between atoms: N_11  and  C_13
REMARK    7  A    between atoms: C_13  and  C_14
REMARK    8  A    between atoms: N_16  and  C_17
REMARK    9  A    between atoms: C_17  and  C_18
REMARK   10  A    between atoms: C_18  and  C_19
REMARK   11  A    between atoms: C_22  and  S_23
REMARK   12  A    between atoms: S_23  and  N_24
REMARK                            x       y       z     vdW  Elec       q    Type
REMARK                         _______ _______ _______ _____ _____    ______ ____
ROOT
ATOM      1  C   UNL     1       0.407  11.212  21.291  0.00  0.00    +0.000 C 
ATOM      2  O   UNL     1       0.682  10.542  22.283  0.00  0.00    +0.000 OA
ATOM      3  N   UNL     1       0.568  10.757  19.999  0.00  0.00    +0.000 N 
ATOM      4  H   UNL     1       0.102  11.317  19.283  0.00  0.00    +0.000 HD
ENDROOT
BRANCH   1   5
ATOM      5  C   UNL     1      -0.104  12.648  21.397  0.00  0.00    +0.000 C 
BRANCH   5   6
ATOM      6  N   UNL     1      -1.039  13.009  20.295  0.00  0.00    +0.000 NA
ATOM      7  C   UNL     1      -0.816  14.419  19.958  0.00  0.00    +0.000 C 
BRANCH   6   8
ATOM      8  C   UNL     1      -2.443  12.761  20.699  0.00  0.00    +0.000 C 
BRANCH   8  15
ATOM      9  C   UNL     1      -4.737  12.503  19.546  0.00  0.00    +0.000 A 
ATOM     10  C   UNL     1      -5.495  11.993  18.480  0.00  0.00    +0.000 A 
ATOM     11  C   UNL     1      -4.885  11.294  17.437  0.00  0.00    +0.000 A 
ATOM     12  C   UNL     1      -3.508  11.117  17.441  0.00  0.00    +0.000 A 
ATOM     13 BR   UNL     1      -2.671  10.215  16.008  0.00  0.00    +0.000 Br
ATOM     14  C   UNL     1      -2.740  11.607  18.492  0.00  0.00    +0.000 A 
ATOM     15  C   UNL     1      -3.343  12.289  19.569  0.00  0.00    +0.000 A 
BRANCH   9  17
ATOM     16  C   UNL     1      -6.148  12.539  21.455  0.00  0.00    +0.000 C 
ATOM     17  O   UNL     1      -5.279  13.243  20.570  0.00  0.00    +0.000 OA
ENDBRANCH   9  17
ENDBRANCH   8  15
ENDBRANCH   6   8
ENDBRANCH   5   6
ENDBRANCH   1   5
BRANCH   3  18
ATOM     18  C   UNL     1       0.884   9.369  19.762  0.00  0.00    +0.000 C 
BRANCH  18  19
ATOM     19  C   UNL     1       1.672   9.154  18.476  0.00  0.00    +0.000 C 
BRANCH  19  20
ATOM     20  C   UNL     1       2.443   7.860  18.539  0.00  0.00    +0.000 A 
ATOM     21  C   UNL     1       3.343   7.522  17.521  0.00  0.00    +0.000 A 
ATOM     22  C   UNL     1       4.027   6.308  17.558  0.00  0.00    +0.000 A 
ATOM     23  C   UNL     1       3.809   5.433  18.626  0.00  0.00    +0.000 A 
ATOM     24  C   UNL     1       2.893   5.742  19.631  0.00  0.00    +0.000 A 
ATOM     25  C   UNL     1       2.212   6.956  19.586  0.00  0.00    +0.000 A 
BRANCH  23  26
ATOM     26  S   UNL     1       4.717   3.917  18.702  0.00  0.00    +0.000 S 
ATOM     27  O   UNL     1       4.448   3.137  17.514  0.00  0.00    +0.000 OA
ATOM     28  O   UNL     1       6.054   4.179  19.175  0.00  0.00    +0.000 OA
BRANCH  26  29
ATOM     29  N   UNL     1       3.922   3.137  19.956  0.00  0.00    +0.000 NA
ATOM     30  H   UNL     1       4.307   3.430  20.851  0.00  0.00    +0.000 HD
ATOM     31  H   UNL     1       2.914   3.266  19.864  0.00  0.00    +0.000 HD
ENDBRANCH  26  29
ENDBRANCH  23  26
ENDBRANCH  19  20
ENDBRANCH  18  19
ENDBRANCH   3  18
TORSDOF 10
ENDMDL
MODEL 9
REMARK VINA RESULT:      -7.2      6.223      8.319
REMARK  Name = 
REMARK  12 active torsions:
REMARK  status: ('A' for Active; 'I' for Inactive)
REMARK    1  A    between atoms: C_1  and  O_2
REMARK    2  A    between atoms: O_2  and  C_3
REMARK    3  A    between atoms: C_9  and  C_10
REMARK    4  A    between atoms: C_10  and  N_11
REMARK    5  A    between atoms: N_11  and  C_12
REMARK    6  A    between atoms: N_11  and  C_13
REMARK    7  A    between atoms: C_13  and  C_14
REMARK    8  A    between atoms: N_16  and  C_17
REMARK    9  A    between atoms: C_17  and  C_18
REMARK   10  A    between atoms: C_18  and  C_19
REMARK   11  A    between atoms: C_22  and  S_23
REMARK   12  A    between atoms: S_23  and  N_24
REMARK                            x       y       z     vdW  Elec       q    Type
REMARK                         _______ _______ _______ _____ _____    ______ ____
ROOT
ATOM      1  C   UNL     1       2.214   4.645  18.130  0.00  0.00    +0.000 C 
ATOM      2  O   UNL     1       1.374   4.504  19.015  0.00  0.00    +0.000 OA
ATOM      3  N   UNL     1       2.835   5.845  17.856  0.00  0.00    +0.000 N 
ATOM      4  H   UNL     1       3.659   5.778  17.257  0.00  0.00    +0.000 HD
ENDROOT
BRANCH   1   5
ATOM      5  C   UNL     1       2.623   3.496  17.209  0.00  0.00    +0.000 C 
BRANCH   5   6
ATOM      6  N   UNL     1       3.951   2.922  17.561  0.00  0.00    +0.000 NA
ATOM      7  C   UNL     1       3.797   2.155  18.803  0.00  0.00    +0.000 C 
BRANCH   6   8
ATOM      8  C   UNL     1       4.963   3.995  17.705  0.00  0.00    +0.000 C 
BRANCH   8  15
ATOM      9  C   UNL     1       7.006   4.944  16.447  0.00  0.00    +0.000 A 
ATOM     10  C   UNL     1       7.660   5.187  15.229  0.00  0.00    +0.000 A 
ATOM     11  C   UNL     1       7.110   4.752  14.021  0.00  0.00    +0.000 A 
ATOM     12  C   UNL     1       5.912   4.051  14.024  0.00  0.00    +0.000 A 
ATOM     13 BR   UNL     1       5.188   3.415  12.399  0.00  0.00    +0.000 Br
ATOM     14  C   UNL     1       5.244   3.807  15.220  0.00  0.00    +0.000 A 
ATOM     15  C   UNL     1       5.769   4.266  16.446  0.00  0.00    +0.000 A 
BRANCH   9  17
ATOM     16  C   UNL     1       7.486   6.695  17.976  0.00  0.00    +0.000 C 
ATOM     17  O   UNL     1       7.527   5.304  17.666  0.00  0.00    +0.000 OA
ENDBRANCH   9  17
ENDBRANCH   8  15
ENDBRANCH   6   8
ENDBRANCH   5   6
ENDBRANCH   1   5
BRANCH   3  18
ATOM     18  C   UNL     1       2.662   6.962  18.753  0.00  0.00    +0.000 C 
BRANCH  18  19
ATOM     19  C   UNL     1       2.086   8.192  18.062  0.00  0.00    +0.000 C 
BRANCH  19  20
ATOM     20  C   UNL     1       1.391   9.082  19.060  0.00  0.00    +0.000 A 
ATOM     21  C   UNL     1       1.206   8.656  20.381  0.00  0.00    +0.000 A 
ATOM     22  C   UNL     1       0.529   9.462  21.295  0.00  0.00    +0.000 A 
ATOM     23  C   UNL     1       0.041  10.705  20.880  0.00  0.00    +0.000 A 
ATOM     24  C   UNL     1       0.190  11.130  19.560  0.00  0.00    +0.000 A 
ATOM     25  C   UNL     1       0.867  10.318  18.652  0.00  0.00    +0.000 A 
BRANCH  23  26
ATOM     26  S   UNL     1      -0.769  11.752  22.052  0.00  0.00    +0.000 S 
ATOM     27  O   UNL     1      -2.025  12.209  21.497  0.00  0.00    +0.000 OA
ATOM     28  O   UNL     1      -0.664  11.175  23.369  0.00  0.00    +0.000 OA
BRANCH  26  29
ATOM     29  N   UNL     1       0.251  13.084  22.043  0.00  0.00    +0.000 NA
ATOM     30  H   UNL     1      -0.203  13.869  21.580  0.00  0.00    +0.000 HD
ATOM     31  H   UNL     1       0.578  13.280  22.989  0.00  0.00    +0.000 HD
ENDBRANCH  26  29
ENDBRANCH  23  26
ENDBRANCH  19  20
ENDBRANCH  18  19
ENDBRANCH   3  18
TORSDOF 10
ENDMDL
