MODEL 1
REMARK VINA RESULT:      -9.2      0.000      0.000
REMARK  Name = 
REMARK  12 active torsions:
REMARK  status: ('A' for Active; 'I' for Inactive)
REMARK    1  A    between atoms: C_1  and  C_2
REMARK    2  A    between atoms: C_5  and  C_6
REMARK    3  A    between atoms: C_8  and  C_9
REMARK    4  A    between atoms: C_12  and  S_13
REMARK    5  A    between atoms: S_13  and  C_14
REMARK    6  A    between atoms: C_14  and  C_15
REMARK    7  A    between atoms: N_17  and  C_18
REMARK    8  A    between atoms: C_18  and  C_19
REMARK    9  A    between atoms: C_18  and  C_20
REMARK   10  A    between atoms: C_20  and  C_21
REMARK   11  A    between atoms: C_20  and  C_22
REMARK   12  A    between atoms: N_23  and  N_24
REMARK                            x       y       z     vdW  Elec       q    Type
REMARK                         _______ _______ _______ _____ _____    ______ ____
ROOT
ATOM      1  C   UNL     1       4.161   5.992  17.703  0.00  0.00    +0.000 A 
ATOM      2  N   UNL     1       4.160   6.815  16.661  0.00  0.00    +0.000 NA
ATOM      3  N   UNL     1       5.301   6.629  15.921  0.00  0.00    +0.000 NA
ATOM      4  C   UNL     1       5.964   5.652  16.484  0.00  0.00    +0.000 A 
ATOM      5  N   UNL     1       5.297   5.198  17.596  0.00  0.00    +0.000 N 
ENDROOT
BRANCH   1   8
ATOM      6  C   UNL     1       1.717   7.224  20.307  0.00  0.00    +0.000 A 
ATOM      7  C   UNL     1       2.716   7.197  19.339  0.00  0.00    +0.000 A 
ATOM      8  C   UNL     1       3.170   5.982  18.807  0.00  0.00    +0.000 A 
ATOM      9  C   UNL     1       2.646   4.776  19.349  0.00  0.00    +0.000 A 
ATOM     10  C   UNL     1       3.021   3.461  18.957  0.00  0.00    +0.000 A 
ATOM     11  C   UNL     1       2.479   2.324  19.555  0.00  0.00    +0.000 A 
ATOM     12  C   UNL     1       1.530   2.471  20.553  0.00  0.00    +0.000 A 
ATOM     13  C   UNL     1       1.132   3.754  20.934  0.00  0.00    +0.000 A 
ATOM     14  C   UNL     1       1.662   4.897  20.359  0.00  0.00    +0.000 A 
ATOM     15  N   UNL     1       1.199   6.079  20.800  0.00  0.00    +0.000 NA
BRANCH   6  20
ATOM     16  C   UNL     1      -0.657  12.169  22.302  0.00  0.00    +0.000 C 
ATOM     17  C   UNL     1      -0.044  10.892  21.804  0.00  0.00    +0.000 A 
ATOM     18  C   UNL     1       0.058   9.765  22.622  0.00  0.00    +0.000 A 
ATOM     19  C   UNL     1       0.640   8.585  22.137  0.00  0.00    +0.000 A 
ATOM     20  C   UNL     1       1.138   8.492  20.822  0.00  0.00    +0.000 A 
ATOM     21  C   UNL     1       1.033   9.644  20.023  0.00  0.00    +0.000 A 
ATOM     22  C   UNL     1       0.447  10.823  20.500  0.00  0.00    +0.000 A 
ENDBRANCH   6  20
ENDBRANCH   1   8
BRANCH   5  23
ATOM     23  N   UNL     1       5.759   4.170  18.502  0.00  0.00    +0.000 N 
ATOM     24  H   UNL     1       6.160   3.392  17.973  0.00  0.00    +0.000 HD
ATOM     25  H   UNL     1       6.521   4.511  19.086  0.00  0.00    +0.000 HD
ENDBRANCH   5  23
BRANCH   4  26
ATOM     26  S   UNL     1       7.490   5.014  15.971  0.00  0.00    +0.000 S 
BRANCH  26  27
ATOM     27  C   UNL     1       7.260   4.966  14.171  0.00  0.00    +0.000 C 
BRANCH  27  28
ATOM     28  C   UNL     1       6.285   3.862  13.794  0.00  0.00    +0.000 C 
ATOM     29  O   UNL     1       5.561   3.324  14.626  0.00  0.00    +0.000 OA
ATOM     30  N   UNL     1       6.301   3.501  12.460  0.00  0.00    +0.000 N 
ATOM     31  H   UNL     1       7.010   3.904  11.854  0.00  0.00    +0.000 HD
BRANCH  30  32
ATOM     32  C   UNL     1       5.453   2.432  11.923  0.00  0.00    +0.000 C 
ATOM     33  C   UNL     1       4.241   3.082  11.249  0.00  0.00    +0.000 C 
BRANCH  32  34
ATOM     34  C   UNL     1       6.238   1.501  10.953  0.00  0.00    +0.000 C 
ATOM     35  C   UNL     1       7.718   1.881  10.841  0.00  0.00    +0.000 C 
ATOM     36  C   UNL     1       6.167   0.029  11.382  0.00  0.00    +0.000 C 
ENDBRANCH  32  34
ENDBRANCH  30  32
ENDBRANCH  27  28
ENDBRANCH  26  27
ENDBRANCH   4  26
TORSDOF 8
ENDMDL
MODEL 2
REMARK VINA RESULT:      -8.9      3.645      7.079
REMARK  Name = 
REMARK  12 active torsions:
REMARK  status: ('A' for Active; 'I' for Inactive)
REMARK    1  A    between atoms: C_1  and  C_2
REMARK    2  A    between atoms: C_5  and  C_6
REMARK    3  A    between atoms: C_8  and  C_9
REMARK    4  A    between atoms: C_12  and  S_13
REMARK    5  A    between atoms: S_13  and  C_14
REMARK    6  A    between atoms: C_14  and  C_15
REMARK    7  A    between atoms: N_17  and  C_18
REMARK    8  A    between atoms: C_18  and  C_19
REMARK    9  A    between atoms: C_18  and  C_20
REMARK   10  A    between atoms: C_20  and  C_21
REMARK   11  A    between atoms: C_20  and  C_22
REMARK   12  A    between atoms: N_23  and  N_24
REMARK                            x       y       z     vdW  Elec       q    Type
REMARK                         _______ _______ _______ _____ _____    ______ ____
ROOT
ATOM      1  C   UNL     1       1.188   9.796  18.561  0.00  0.00    +0.000 A 
ATOM      2  N   UNL     1       1.818   9.425  17.454  0.00  0.00    +0.000 NA
ATOM      3  N   UNL     1       2.462   8.230  17.663  0.00  0.00    +0.000 NA
ATOM      4  C   UNL     1       2.172   7.851  18.880  0.00  0.00    +0.000 A 
ATOM      5  N   UNL     1       1.365   8.778  19.493  0.00  0.00    +0.000 N 
ENDROOT
BRANCH   1   8
ATOM      6  C   UNL     1      -1.537  12.281  19.382  0.00  0.00    +0.000 A 
ATOM      7  C   UNL     1      -0.877  11.093  19.079  0.00  0.00    +0.000 A 
ATOM      8  C   UNL     1       0.492  11.089  18.777  0.00  0.00    +0.000 A 
ATOM      9  C   UNL     1       1.167  12.339  18.700  0.00  0.00    +0.000 A 
ATOM     10  C   UNL     1       2.538  12.520  18.370  0.00  0.00    +0.000 A 
ATOM     11  C   UNL     1       3.122  13.784  18.290  0.00  0.00    +0.000 A 
ATOM     12  C   UNL     1       2.353  14.904  18.556  0.00  0.00    +0.000 A 
ATOM     13  C   UNL     1       1.010  14.743  18.906  0.00  0.00    +0.000 A 
ATOM     14  C   UNL     1       0.408  13.499  18.985  0.00  0.00    +0.000 A 
ATOM     15  N   UNL     1      -0.889  13.464  19.337  0.00  0.00    +0.000 NA
BRANCH   6  20
ATOM     16  C   UNL     1      -7.139  12.526  20.999  0.00  0.00    +0.000 C 
ATOM     17  C   UNL     1      -5.702  12.453  20.571  0.00  0.00    +0.000 A 
ATOM     18  C   UNL     1      -5.342  11.994  19.303  0.00  0.00    +0.000 A 
ATOM     19  C   UNL     1      -3.991  11.928  18.927  0.00  0.00    +0.000 A 
ATOM     20  C   UNL     1      -2.960  12.317  19.805  0.00  0.00    +0.000 A 
ATOM     21  C   UNL     1      -3.350  12.765  21.079  0.00  0.00    +0.000 A 
ATOM     22  C   UNL     1      -4.696  12.838  21.457  0.00  0.00    +0.000 A 
ENDBRANCH   6  20
ENDBRANCH   1   8
BRANCH   5  23
ATOM     23  N   UNL     1       0.894   8.725  20.859  0.00  0.00    +0.000 N 
ATOM     24  H   UNL     1       0.320   9.547  21.063  0.00  0.00    +0.000 HD
ATOM     25  H   UNL     1       0.273   7.930  21.003  0.00  0.00    +0.000 HD
ENDBRANCH   5  23
BRANCH   4  26
ATOM     26  S   UNL     1       2.734   6.418  19.674  0.00  0.00    +0.000 S 
BRANCH  26  27
ATOM     27  C   UNL     1       2.205   5.139  18.498  0.00  0.00    +0.000 C 
BRANCH  27  28
ATOM     28  C   UNL     1       3.393   4.643  17.691  0.00  0.00    +0.000 C 
ATOM     29  O   UNL     1       3.412   3.526  17.184  0.00  0.00    +0.000 OA
ATOM     30  N   UNL     1       4.447   5.533  17.599  0.00  0.00    +0.000 N 
ATOM     31  H   UNL     1       4.411   6.390  18.143  0.00  0.00    +0.000 HD
BRANCH  30  32
ATOM     32  C   UNL     1       5.689   5.212  16.888  0.00  0.00    +0.000 C 
ATOM     33  C   UNL     1       5.631   5.876  15.509  0.00  0.00    +0.000 C 
BRANCH  32  34
ATOM     34  C   UNL     1       6.948   5.641  17.697  0.00  0.00    +0.000 C 
ATOM     35  C   UNL     1       7.359   7.091  17.419  0.00  0.00    +0.000 C 
ATOM     36  C   UNL     1       6.738   5.499  19.210  0.00  0.00    +0.000 C 
ENDBRANCH  32  34
ENDBRANCH  30  32
ENDBRANCH  27  28
ENDBRANCH  26  27
ENDBRANCH   4  26
TORSDOF 8
ENDMDL
MODEL 3
REMARK VINA RESULT:      -8.8      1.001      1.631
REMARK  Name = 
REMARK  12 active torsions:
REMARK  status: ('A' for Active; 'I' for Inactive)
REMARK    1  A    between atoms: C_1  and  C_2
REMARK    2  A    between atoms: C_5  and  C_6
REMARK    3  A    between atoms: C_8  and  C_9
REMARK    4  A    between atoms: C_12  and  S_13
REMARK    5  A    between atoms: S_13  and  C_14
REMARK    6  A    between atoms: C_14  and  C_15
REMARK    7  A    between atoms: N_17  and  C_18
REMARK    8  A    between atoms: C_18  and  C_19
REMARK    9  A    between atoms: C_18  and  C_20
REMARK   10  A    between atoms: C_20  and  C_21
REMARK   11  A    between atoms: C_20  and  C_22
REMARK   12  A    between atoms: N_23  and  N_24
REMARK                            x       y       z     vdW  Elec       q    Type
REMARK                         _______ _______ _______ _____ _____    ______ ____
ROOT
ATOM      1  C   UNL     1       3.904   6.496  17.999  0.00  0.00    +0.000 A 
ATOM      2  N   UNL     1       3.746   7.125  16.841  0.00  0.00    +0.000 NA
ATOM      3  N   UNL     1       4.943   7.173  16.170  0.00  0.00    +0.000 NA
ATOM      4  C   UNL     1       5.811   6.519  16.897  0.00  0.00    +0.000 A 
ATOM      5  N   UNL     1       5.222   6.056  18.048  0.00  0.00    +0.000 N 
ENDROOT
BRANCH   1   8
ATOM      6  C   UNL     1       1.315   7.418  20.592  0.00  0.00    +0.000 A 
ATOM      7  C   UNL     1       2.345   7.510  19.660  0.00  0.00    +0.000 A 
ATOM      8  C   UNL     1       2.879   6.359  19.064  0.00  0.00    +0.000 A 
ATOM      9  C   UNL     1       2.402   5.092  19.503  0.00  0.00    +0.000 A 
ATOM     10  C   UNL     1       2.859   3.829  19.035  0.00  0.00    +0.000 A 
ATOM     11  C   UNL     1       2.358   2.627  19.535  0.00  0.00    +0.000 A 
ATOM     12  C   UNL     1       1.371   2.656  20.506  0.00  0.00    +0.000 A 
ATOM     13  C   UNL     1       0.894   3.887  20.959  0.00  0.00    +0.000 A 
ATOM     14  C   UNL     1       1.381   5.093  20.483  0.00  0.00    +0.000 A 
ATOM     15  N   UNL     1       0.843   6.217  20.987  0.00  0.00    +0.000 NA
BRANCH   6  20
ATOM     16  C   UNL     1      -1.184  12.157  22.907  0.00  0.00    +0.000 C 
ATOM     17  C   UNL     1      -0.543  10.944  22.297  0.00  0.00    +0.000 A 
ATOM     18  C   UNL     1       0.006  10.979  21.013  0.00  0.00    +0.000 A 
ATOM     19  C   UNL     1       0.595   9.831  20.461  0.00  0.00    +0.000 A 
ATOM     20  C   UNL     1       0.654   8.616  21.171  0.00  0.00    +0.000 A 
ATOM     21  C   UNL     1       0.084   8.606  22.456  0.00  0.00    +0.000 A 
ATOM     22  C   UNL     1      -0.499   9.749  23.015  0.00  0.00    +0.000 A 
ENDBRANCH   6  20
ENDBRANCH   1   8
BRANCH   5  23
ATOM     23  N   UNL     1       5.887   5.345  19.118  0.00  0.00    +0.000 N 
ATOM     24  H   UNL     1       5.961   5.945  19.943  0.00  0.00    +0.000 HD
ATOM     25  H   UNL     1       5.336   4.544  19.424  0.00  0.00    +0.000 HD
ENDBRANCH   5  23
BRANCH   4  26
ATOM     26  S   UNL     1       7.487   6.281  16.534  0.00  0.00    +0.000 S 
BRANCH  26  27
ATOM     27  C   UNL     1       7.454   4.612  15.818  0.00  0.00    +0.000 C 
BRANCH  27  28
ATOM     28  C   UNL     1       7.320   4.691  14.306  0.00  0.00    +0.000 C 
ATOM     29  O   UNL     1       7.816   5.607  13.658  0.00  0.00    +0.000 OA
ATOM     30  N   UNL     1       6.581   3.672  13.733  0.00  0.00    +0.000 N 
ATOM     31  H   UNL     1       6.100   3.016  14.342  0.00  0.00    +0.000 HD
BRANCH  30  32
ATOM     32  C   UNL     1       6.319   3.604  12.292  0.00  0.00    +0.000 C 
ATOM     33  C   UNL     1       7.625   3.219  11.590  0.00  0.00    +0.000 C 
BRANCH  32  34
ATOM     34  C   UNL     1       5.159   2.621  11.959  0.00  0.00    +0.000 C 
ATOM     35  C   UNL     1       4.036   3.287  11.158  0.00  0.00    +0.000 C 
ATOM     36  C   UNL     1       5.643   1.405  11.159  0.00  0.00    +0.000 C 
ENDBRANCH  32  34
ENDBRANCH  30  32
ENDBRANCH  27  28
ENDBRANCH  26  27
ENDBRANCH   4  26
TORSDOF 8
ENDMDL
MODEL 4
REMARK VINA RESULT:      -8.8      4.059      9.410
REMARK  Name = 
REMARK  12 active torsions:
REMARK  status: ('A' for Active; 'I' for Inactive)
REMARK    1  A    between atoms: C_1  and  C_2
REMARK    2  A    between atoms: C_5  and  C_6
REMARK    3  A    between atoms: C_8  and  C_9
REMARK    4  A    between atoms: C_12  and  S_13
REMARK    5  A    between atoms: S_13  and  C_14
REMARK    6  A    between atoms: C_14  and  C_15
REMARK    7  A    between atoms: N_17  and  C_18
REMARK    8  A    between atoms: C_18  and  C_19
REMARK    9  A    between atoms: C_18  and  C_20
REMARK   10  A    between atoms: C_20  and  C_21
REMARK   11  A    between atoms: C_20  and  C_22
REMARK   12  A    between atoms: N_23  and  N_24
REMARK                            x       y       z     vdW  Elec       q    Type
REMARK                         _______ _______ _______ _____ _____    ______ ____
ROOT
ATOM      1  C   UNL     1       1.954   7.318  19.670  0.00  0.00    +0.000 A 
ATOM      2  N   UNL     1       1.673   7.561  20.944  0.00  0.00    +0.000 NA
ATOM      3  N   UNL     1       1.265   8.864  21.090  0.00  0.00    +0.000 NA
ATOM      4  C   UNL     1       1.242   9.391  19.893  0.00  0.00    +0.000 A 
ATOM      5  N   UNL     1       1.648   8.471  18.956  0.00  0.00    +0.000 N 
ENDROOT
BRANCH   1   8
ATOM      6  C   UNL     1       4.048   5.000  17.543  0.00  0.00    +0.000 A 
ATOM      7  C   UNL     1       3.395   6.137  18.013  0.00  0.00    +0.000 A 
ATOM      8  C   UNL     1       2.552   6.071  19.131  0.00  0.00    +0.000 A 
ATOM      9  C   UNL     1       2.310   4.797  19.715  0.00  0.00    +0.000 A 
ATOM     10  C   UNL     1       1.456   4.544  20.824  0.00  0.00    +0.000 A 
ATOM     11  C   UNL     1       1.250   3.258  21.324  0.00  0.00    +0.000 A 
ATOM     12  C   UNL     1       1.909   2.190  20.740  0.00  0.00    +0.000 A 
ATOM     13  C   UNL     1       2.770   2.423  19.666  0.00  0.00    +0.000 A 
ATOM     14  C   UNL     1       2.984   3.689  19.148  0.00  0.00    +0.000 A 
ATOM     15  N   UNL     1       3.840   3.796  18.116  0.00  0.00    +0.000 NA
BRANCH   6  20
ATOM     16  C   UNL     1       7.946   5.095  13.202  0.00  0.00    +0.000 C 
ATOM     17  C   UNL     1       6.933   5.064  14.309  0.00  0.00    +0.000 A 
ATOM     18  C   UNL     1       5.820   4.223  14.253  0.00  0.00    +0.000 A 
ATOM     19  C   UNL     1       4.882   4.216  15.297  0.00  0.00    +0.000 A 
ATOM     20  C   UNL     1       5.026   5.046  16.426  0.00  0.00    +0.000 A 
ATOM     21  C   UNL     1       6.149   5.890  16.452  0.00  0.00    +0.000 A 
ATOM     22  C   UNL     1       7.091   5.898  15.416  0.00  0.00    +0.000 A 
ENDBRANCH   6  20
ENDBRANCH   1   8
BRANCH   5  23
ATOM     23  N   UNL     1       1.806   8.715  17.539  0.00  0.00    +0.000 N 
ATOM     24  H   UNL     1       2.465   9.483  17.388  0.00  0.00    +0.000 HD
ATOM     25  H   UNL     1       2.229   7.913  17.074  0.00  0.00    +0.000 HD
ENDBRANCH   5  23
BRANCH   4  26
ATOM     26  S   UNL     1       0.816  11.021  19.493  0.00  0.00    +0.000 S 
BRANCH  26  27
ATOM     27  C   UNL     1      -0.991  10.960  19.664  0.00  0.00    +0.000 C 
BRANCH  27  28
ATOM     28  C   UNL     1      -1.656  11.563  18.438  0.00  0.00    +0.000 C 
ATOM     29  O   UNL     1      -1.215  12.568  17.889  0.00  0.00    +0.000 OA
ATOM     30  N   UNL     1      -2.798  10.910  18.014  0.00  0.00    +0.000 N 
ATOM     31  H   UNL     1      -3.172  10.159  18.587  0.00  0.00    +0.000 HD
BRANCH  30  32
ATOM     32  C   UNL     1      -3.589  11.370  16.868  0.00  0.00    +0.000 C 
ATOM     33  C   UNL     1      -3.176  10.546  15.645  0.00  0.00    +0.000 C 
BRANCH  32  34
ATOM     34  C   UNL     1      -5.118  11.285  17.147  0.00  0.00    +0.000 C 
ATOM     35  C   UNL     1      -5.433  10.692  18.525  0.00  0.00    +0.000 C 
ATOM     36  C   UNL     1      -5.798  12.659  17.066  0.00  0.00    +0.000 C 
ENDBRANCH  32  34
ENDBRANCH  30  32
ENDBRANCH  27  28
ENDBRANCH  26  27
ENDBRANCH   4  26
TORSDOF 8
ENDMDL
MODEL 5
REMARK VINA RESULT:      -8.7      3.757      6.611
REMARK  Name = 
REMARK  12 active torsions:
REMARK  status: ('A' for Active; 'I' for Inactive)
REMARK    1  A    between atoms: C_1  and  C_2
REMARK    2  A    between atoms: C_5  and  C_6
REMARK    3  A    between atoms: C_8  and  C_9
REMARK    4  A    between atoms: C_12  and  S_13
REMARK    5  A    between atoms: S_13  and  C_14
REMARK    6  A    between atoms: C_14  and  C_15
REMARK    7  A    between atoms: N_17  and  C_18
REMARK    8  A    between atoms: C_18  and  C_19
REMARK    9  A    between atoms: C_18  and  C_20
REMARK   10  A    between atoms: C_20  and  C_21
REMARK   11  A    between atoms: C_20  and  C_22
REMARK   12  A    between atoms: N_23  and  N_24
REMARK                            x       y       z     vdW  Elec       q    Type
REMARK                         _______ _______ _______ _____ _____    ______ ____
ROOT
ATOM      1  C   UNL     1       1.575   9.146  18.550  0.00  0.00    +0.000 A 
ATOM      2  N   UNL     1       2.292   8.713  17.520  0.00  0.00    +0.000 NA
ATOM      3  N   UNL     1       2.898   7.524  17.843  0.00  0.00    +0.000 NA
ATOM      4  C   UNL     1       2.499   7.210  19.048  0.00  0.00    +0.000 A 
ATOM      5  N   UNL     1       1.656   8.175  19.542  0.00  0.00    +0.000 N 
ENDROOT
BRANCH   1   8
ATOM      6  C   UNL     1       1.002  12.845  19.063  0.00  0.00    +0.000 A 
ATOM      7  C   UNL     1       1.596  11.587  19.060  0.00  0.00    +0.000 A 
ATOM      8  C   UNL     1       0.882  10.455  18.641  0.00  0.00    +0.000 A 
ATOM      9  C   UNL     1      -0.491  10.615  18.305  0.00  0.00    +0.000 A 
ATOM     10  C   UNL     1      -1.370   9.573  17.900  0.00  0.00    +0.000 A 
ATOM     11  C   UNL     1      -2.715   9.806  17.612  0.00  0.00    +0.000 A 
ATOM     12  C   UNL     1      -3.214  11.094  17.705  0.00  0.00    +0.000 A 
ATOM     13  C   UNL     1      -2.360  12.133  18.078  0.00  0.00    +0.000 A 
ATOM     14  C   UNL     1      -1.024  11.925  18.376  0.00  0.00    +0.000 A 
ATOM     15  N   UNL     1      -0.294  13.000  18.718  0.00  0.00    +0.000 NA
BRANCH   6  20
ATOM     16  C   UNL     1       3.919  17.689  20.507  0.00  0.00    +0.000 C 
ATOM     17  C   UNL     1       3.183  16.435  20.134  0.00  0.00    +0.000 A 
ATOM     18  C   UNL     1       3.794  15.182  20.206  0.00  0.00    +0.000 A 
ATOM     19  C   UNL     1       3.088  14.025  19.846  0.00  0.00    +0.000 A 
ATOM     20  C   UNL     1       1.752  14.082  19.404  0.00  0.00    +0.000 A 
ATOM     21  C   UNL     1       1.163  15.356  19.330  0.00  0.00    +0.000 A 
ATOM     22  C   UNL     1       1.861  16.514  19.694  0.00  0.00    +0.000 A 
ENDBRANCH   6  20
ENDBRANCH   1   8
BRANCH   5  23
ATOM     23  N   UNL     1       1.069   8.196  20.864  0.00  0.00    +0.000 N 
ATOM     24  H   UNL     1       0.361   8.932  20.920  0.00  0.00    +0.000 HD
ATOM     25  H   UNL     1       0.565   7.332  21.055  0.00  0.00    +0.000 HD
ENDBRANCH   5  23
BRANCH   4  26
ATOM     26  S   UNL     1       2.970   5.813  19.957  0.00  0.00    +0.000 S 
BRANCH  26  27
ATOM     27  C   UNL     1       3.191   4.593  18.630  0.00  0.00    +0.000 C 
BRANCH  27  28
ATOM     28  C   UNL     1       4.667   4.281  18.444  0.00  0.00    +0.000 C 
ATOM     29  O   UNL     1       5.263   3.499  19.177  0.00  0.00    +0.000 OA
ATOM     30  N   UNL     1       5.281   4.964  17.410  0.00  0.00    +0.000 N 
ATOM     31  H   UNL     1       4.757   5.685  16.922  0.00  0.00    +0.000 HD
BRANCH  30  32
ATOM     32  C   UNL     1       6.707   4.814  17.104  0.00  0.00    +0.000 C 
ATOM     33  C   UNL     1       6.849   4.604  15.594  0.00  0.00    +0.000 C 
BRANCH  32  34
ATOM     34  C   UNL     1       7.540   6.028  17.611  0.00  0.00    +0.000 C 
ATOM     35  C   UNL     1       6.829   7.366  17.383  0.00  0.00    +0.000 C 
ATOM     36  C   UNL     1       7.863   5.922  19.108  0.00  0.00    +0.000 C 
ENDBRANCH  32  34
ENDBRANCH  30  32
ENDBRANCH  27  28
ENDBRANCH  26  27
ENDBRANCH   4  26
TORSDOF 8
ENDMDL
MODEL 6
REMARK VINA RESULT:      -8.7      6.329     10.142
REMARK  Name = 
REMARK  12 active torsions:
REMARK  status: ('A' for Active; 'I' for Inactive)
REMARK    1  A    between atoms: C_1  and  C_2
REMARK    2  A    between atoms: C_5  and  C_6
REMARK    3  A    between atoms: C_8  and  C_9
REMARK    4  A    between atoms: C_12  and  S_13
REMARK    5  A    between atoms: S_13  and  C_14
REMARK    6  A    between atoms: C_14  and  C_15
REMARK    7  A    between atoms: N_17  and  C_18
REMARK    8  A    between atoms: C_18  and  C_19
REMARK    9  A    between atoms: C_18  and  C_20
REMARK   10  A    between atoms: C_20  and  C_21
REMARK   11  A    between atoms: C_20  and  C_22
REMARK   12  A    between atoms: N_23  and  N_24
REMARK                            x       y       z     vdW  Elec       q    Type
REMARK                         _______ _______ _______ _____ _____    ______ ____
ROOT
ATOM      1  C   UNL     1       1.580  13.359  20.178  0.00  0.00    +0.000 A 
ATOM      2  N   UNL     1       1.159  13.344  21.437  0.00  0.00    +0.000 NA
ATOM      3  N   UNL     1       0.508  12.163  21.695  0.00  0.00    +0.000 NA
ATOM      4  C   UNL     1       0.587  11.441  20.607  0.00  0.00    +0.000 A 
ATOM      5  N   UNL     1       1.260  12.125  19.624  0.00  0.00    +0.000 N 
ENDROOT
BRANCH   1   8
ATOM      6  C   UNL     1       4.218  15.588  18.644  0.00  0.00    +0.000 A 
ATOM      7  C   UNL     1       3.604  14.573  19.373  0.00  0.00    +0.000 A 
ATOM      8  C   UNL     1       2.208  14.510  19.482  0.00  0.00    +0.000 A 
ATOM      9  C   UNL     1       1.441  15.561  18.906  0.00  0.00    +0.000 A 
ATOM     10  C   UNL     1       0.025  15.676  18.956  0.00  0.00    +0.000 A 
ATOM     11  C   UNL     1      -0.654  16.753  18.387  0.00  0.00    +0.000 A 
ATOM     12  C   UNL     1       0.067  17.739  17.734  0.00  0.00    +0.000 A 
ATOM     13  C   UNL     1       1.456  17.630  17.653  0.00  0.00    +0.000 A 
ATOM     14  C   UNL     1       2.152  16.574  18.217  0.00  0.00    +0.000 A 
ATOM     15  N   UNL     1       3.488  16.569  18.072  0.00  0.00    +0.000 NA
BRANCH   6  20
ATOM     16  C   UNL     1       9.999  15.722  17.861  0.00  0.00    +0.000 C 
ATOM     17  C   UNL     1       8.511  15.675  18.052  0.00  0.00    +0.000 A 
ATOM     18  C   UNL     1       7.768  14.544  17.709  0.00  0.00    +0.000 A 
ATOM     19  C   UNL     1       6.377  14.526  17.890  0.00  0.00    +0.000 A 
ATOM     20  C   UNL     1       5.686  15.633  18.419  0.00  0.00    +0.000 A 
ATOM     21  C   UNL     1       6.456  16.763  18.746  0.00  0.00    +0.000 A 
ATOM     22  C   UNL     1       7.845  16.785  18.573  0.00  0.00    +0.000 A 
ENDBRANCH   6  20
ENDBRANCH   1   8
BRANCH   5  23
ATOM     23  N   UNL     1       1.486  11.666  18.271  0.00  0.00    +0.000 N 
ATOM     24  H   UNL     1       2.028  12.361  17.753  0.00  0.00    +0.000 HD
ATOM     25  H   UNL     1       2.060  10.824  18.261  0.00  0.00    +0.000 HD
ENDBRANCH   5  23
BRANCH   4  26
ATOM     26  S   UNL     1      -0.083   9.862  20.369  0.00  0.00    +0.000 S 
BRANCH  26  27
ATOM     27  C   UNL     1       1.288   8.814  20.935  0.00  0.00    +0.000 C 
BRANCH  27  28
ATOM     28  C   UNL     1       1.901   8.070  19.760  0.00  0.00    +0.000 C 
ATOM     29  O   UNL     1       2.076   8.608  18.672  0.00  0.00    +0.000 OA
ATOM     30  N   UNL     1       2.216   6.747  20.009  0.00  0.00    +0.000 N 
ATOM     31  H   UNL     1       1.932   6.336  20.894  0.00  0.00    +0.000 HD
BRANCH  30  32
ATOM     32  C   UNL     1       2.784   5.866  18.983  0.00  0.00    +0.000 C 
ATOM     33  C   UNL     1       4.130   5.347  19.497  0.00  0.00    +0.000 C 
BRANCH  32  34
ATOM     34  C   UNL     1       1.811   4.711  18.607  0.00  0.00    +0.000 C 
ATOM     35  C   UNL     1       2.440   3.704  17.638  0.00  0.00    +0.000 C 
ATOM     36  C   UNL     1       1.333   3.933  19.841  0.00  0.00    +0.000 C 
ENDBRANCH  32  34
ENDBRANCH  30  32
ENDBRANCH  27  28
ENDBRANCH  26  27
ENDBRANCH   4  26
TORSDOF 8
ENDMDL
MODEL 7
REMARK VINA RESULT:      -8.6      3.552      6.945
REMARK  Name = 
REMARK  12 active torsions:
REMARK  status: ('A' for Active; 'I' for Inactive)
REMARK    1  A    between atoms: C_1  and  C_2
REMARK    2  A    between atoms: C_5  and  C_6
REMARK    3  A    between atoms: C_8  and  C_9
REMARK    4  A    between atoms: C_12  and  S_13
REMARK    5  A    between atoms: S_13  and  C_14
REMARK    6  A    between atoms: C_14  and  C_15
REMARK    7  A    between atoms: N_17  and  C_18
REMARK    8  A    between atoms: C_18  and  C_19
REMARK    9  A    between atoms: C_18  and  C_20
REMARK   10  A    between atoms: C_20  and  C_21
REMARK   11  A    between atoms: C_20  and  C_22
REMARK   12  A    between atoms: N_23  and  N_24
REMARK                            x       y       z     vdW  Elec       q    Type
REMARK                         _______ _______ _______ _____ _____    ______ ____
ROOT
ATOM      1  C   UNL     1       1.063   9.799  19.157  0.00  0.00    +0.000 A 
ATOM      2  N   UNL     1       1.428   9.404  17.944  0.00  0.00    +0.000 NA
ATOM      3  N   UNL     1       2.010   8.162  18.015  0.00  0.00    +0.000 NA
ATOM      4  C   UNL     1       1.942   7.782  19.265  0.00  0.00    +0.000 A 
ATOM      5  N   UNL     1       1.345   8.755  20.030  0.00  0.00    +0.000 N 
ENDROOT
BRANCH   1   8
ATOM      6  C   UNL     1      -1.155  12.458  20.671  0.00  0.00    +0.000 A 
ATOM      7  C   UNL     1      -0.673  11.225  20.238  0.00  0.00    +0.000 A 
ATOM      8  C   UNL     1       0.523  11.135  19.513  0.00  0.00    +0.000 A 
ATOM      9  C   UNL     1       1.183  12.343  19.154  0.00  0.00    +0.000 A 
ATOM     10  C   UNL     1       2.380  12.437  18.391  0.00  0.00    +0.000 A 
ATOM     11  C   UNL     1       2.953  13.664  18.057  0.00  0.00    +0.000 A 
ATOM     12  C   UNL     1       2.354  14.833  18.494  0.00  0.00    +0.000 A 
ATOM     13  C   UNL     1       1.192  14.759  19.265  0.00  0.00    +0.000 A 
ATOM     14  C   UNL     1       0.601  13.553  19.602  0.00  0.00    +0.000 A 
ATOM     15  N   UNL     1      -0.512  13.602  20.354  0.00  0.00    +0.000 NA
BRANCH   6  20
ATOM     16  C   UNL     1      -5.924  12.862  24.010  0.00  0.00    +0.000 C 
ATOM     17  C   UNL     1      -4.688  12.758  23.164  0.00  0.00    +0.000 A 
ATOM     18  C   UNL     1      -3.472  12.331  23.701  0.00  0.00    +0.000 A 
ATOM     19  C   UNL     1      -2.328  12.248  22.892  0.00  0.00    +0.000 A 
ATOM     20  C   UNL     1      -2.362  12.588  21.526  0.00  0.00    +0.000 A 
ATOM     21  C   UNL     1      -3.596  13.025  21.013  0.00  0.00    +0.000 A 
ATOM     22  C   UNL     1      -4.742  13.105  21.814  0.00  0.00    +0.000 A 
ENDBRANCH   6  20
ENDBRANCH   1   8
BRANCH   5  23
ATOM     23  N   UNL     1       1.155   8.711  21.464  0.00  0.00    +0.000 N 
ATOM     24  H   UNL     1       0.158   8.764  21.685  0.00  0.00    +0.000 HD
ATOM     25  H   UNL     1       1.462   7.818  21.847  0.00  0.00    +0.000 HD
ENDBRANCH   5  23
BRANCH   4  26
ATOM     26  S   UNL     1       2.542   6.298  19.925  0.00  0.00    +0.000 S 
BRANCH  26  27
ATOM     27  C   UNL     1       1.996   5.111  18.663  0.00  0.00    +0.000 C 
BRANCH  27  28
ATOM     28  C   UNL     1       3.161   4.724  17.767  0.00  0.00    +0.000 C 
ATOM     29  O   UNL     1       3.193   3.651  17.172  0.00  0.00    +0.000 OA
ATOM     30  N   UNL     1       4.179   5.657  17.699  0.00  0.00    +0.000 N 
ATOM     31  H   UNL     1       4.140   6.467  18.312  0.00  0.00    +0.000 HD
BRANCH  30  32
ATOM     32  C   UNL     1       5.396   5.439  16.911  0.00  0.00    +0.000 C 
ATOM     33  C   UNL     1       5.312   6.314  15.657  0.00  0.00    +0.000 C 
BRANCH  32  34
ATOM     34  C   UNL     1       6.683   5.719  17.740  0.00  0.00    +0.000 C 
ATOM     35  C   UNL     1       7.708   4.586  17.637  0.00  0.00    +0.000 C 
ATOM     36  C   UNL     1       7.379   7.017  17.306  0.00  0.00    +0.000 C 
ENDBRANCH  32  34
ENDBRANCH  30  32
ENDBRANCH  27  28
ENDBRANCH  26  27
ENDBRANCH   4  26
TORSDOF 8
ENDMDL
MODEL 8
REMARK VINA RESULT:      -8.5      3.499      6.961
REMARK  Name = 
REMARK  12 active torsions:
REMARK  status: ('A' for Active; 'I' for Inactive)
REMARK    1  A    between atoms: C_1  and  C_2
REMARK    2  A    between atoms: C_5  and  C_6
REMARK    3  A    between atoms: C_8  and  C_9
REMARK    4  A    between atoms: C_12  and  S_13
REMARK    5  A    between atoms: S_13  and  C_14
REMARK    6  A    between atoms: C_14  and  C_15
REMARK    7  A    between atoms: N_17  and  C_18
REMARK    8  A    between atoms: C_18  and  C_19
REMARK    9  A    between atoms: C_18  and  C_20
REMARK   10  A    between atoms: C_20  and  C_21
REMARK   11  A    between atoms: C_20  and  C_22
REMARK   12  A    between atoms: N_23  and  N_24
REMARK                            x       y       z     vdW  Elec       q    Type
REMARK                         _______ _______ _______ _____ _____    ______ ____
ROOT
ATOM      1  C   UNL     1       1.060   9.805  19.110  0.00  0.00    +0.000 A 
ATOM      2  N   UNL     1       1.426   9.432  17.890  0.00  0.00    +0.000 NA
ATOM      3  N   UNL     1       2.021   8.196  17.941  0.00  0.00    +0.000 NA
ATOM      4  C   UNL     1       1.961   7.796  19.185  0.00  0.00    +0.000 A 
ATOM      5  N   UNL     1       1.356   8.751  19.967  0.00  0.00    +0.000 N 
ENDROOT
BRANCH   1   8
ATOM      6  C   UNL     1      -1.189  12.416  20.659  0.00  0.00    +0.000 A 
ATOM      7  C   UNL     1      -0.695  11.196  20.206  0.00  0.00    +0.000 A 
ATOM      8  C   UNL     1       0.507  11.130  19.488  0.00  0.00    +0.000 A 
ATOM      9  C   UNL     1       1.160  12.350  19.157  0.00  0.00    +0.000 A 
ATOM     10  C   UNL     1       2.361  12.468  18.404  0.00  0.00    +0.000 A 
ATOM     11  C   UNL     1       2.927  13.705  18.099  0.00  0.00    +0.000 A 
ATOM     12  C   UNL     1       2.315  14.861  18.553  0.00  0.00    +0.000 A 
ATOM     13  C   UNL     1       1.149  14.763  19.315  0.00  0.00    +0.000 A 
ATOM     14  C   UNL     1       0.565  13.546  19.624  0.00  0.00    +0.000 A 
ATOM     15  N   UNL     1      -0.554  13.572  20.369  0.00  0.00    +0.000 NA
BRANCH   6  20
ATOM     16  C   UNL     1      -5.943  12.933  24.004  0.00  0.00    +0.000 C 
ATOM     17  C   UNL     1      -4.730  12.798  23.130  0.00  0.00    +0.000 A 
ATOM     18  C   UNL     1      -4.797  13.013  21.753  0.00  0.00    +0.000 A 
ATOM     19  C   UNL     1      -3.650  12.875  20.955  0.00  0.00    +0.000 A 
ATOM     20  C   UNL     1      -2.404  12.520  21.507  0.00  0.00    +0.000 A 
ATOM     21  C   UNL     1      -2.367  12.300  22.895  0.00  0.00    +0.000 A 
ATOM     22  C   UNL     1      -3.506  12.441  23.697  0.00  0.00    +0.000 A 
ENDBRANCH   6  20
ENDBRANCH   1   8
BRANCH   5  23
ATOM     23  N   UNL     1       1.171   8.683  21.400  0.00  0.00    +0.000 N 
ATOM     24  H   UNL     1       1.144   9.627  21.793  0.00  0.00    +0.000 HD
ATOM     25  H   UNL     1       0.266   8.276  21.634  0.00  0.00    +0.000 HD
ENDBRANCH   5  23
BRANCH   4  26
ATOM     26  S   UNL     1       2.579   6.309  19.820  0.00  0.00    +0.000 S 
BRANCH  26  27
ATOM     27  C   UNL     1       1.988   5.127  18.575  0.00  0.00    +0.000 C 
BRANCH  27  28
ATOM     28  C   UNL     1       3.139   4.680  17.687  0.00  0.00    +0.000 C 
ATOM     29  O   UNL     1       3.155   3.576  17.153  0.00  0.00    +0.000 OA
ATOM     30  N   UNL     1       4.164   5.598  17.556  0.00  0.00    +0.000 N 
ATOM     31  H   UNL     1       4.139   6.442  18.122  0.00  0.00    +0.000 HD
BRANCH  30  32
ATOM     32  C   UNL     1       5.369   5.326  16.766  0.00  0.00    +0.000 C 
ATOM     33  C   UNL     1       5.331   6.216  15.520  0.00  0.00    +0.000 C 
BRANCH  32  34
ATOM     34  C   UNL     1       6.667   5.533  17.599  0.00  0.00    +0.000 C 
ATOM     35  C   UNL     1       6.406   5.518  19.109  0.00  0.00    +0.000 C 
ATOM     36  C   UNL     1       7.723   4.460  17.299  0.00  0.00    +0.000 C 
ENDBRANCH  32  34
ENDBRANCH  30  32
ENDBRANCH  27  28
ENDBRANCH  26  27
ENDBRANCH   4  26
TORSDOF 8
ENDMDL
MODEL 9
REMARK VINA RESULT:      -8.5      4.191      7.609
REMARK  Name = 
REMARK  12 active torsions:
REMARK  status: ('A' for Active; 'I' for Inactive)
REMARK    1  A    between atoms: C_1  and  C_2
REMARK    2  A    between atoms: C_5  and  C_6
REMARK    3  A    between atoms: C_8  and  C_9
REMARK    4  A    between atoms: C_12  and  S_13
REMARK    5  A    between atoms: S_13  and  C_14
REMARK    6  A    between atoms: C_14  and  C_15
REMARK    7  A    between atoms: N_17  and  C_18
REMARK    8  A    between atoms: C_18  and  C_19
REMARK    9  A    between atoms: C_18  and  C_20
REMARK   10  A    between atoms: C_20  and  C_21
REMARK   11  A    between atoms: C_20  and  C_22
REMARK   12  A    between atoms: N_23  and  N_24
REMARK                            x       y       z     vdW  Elec       q    Type
REMARK                         _______ _______ _______ _____ _____    ______ ____
ROOT
ATOM      1  C   UNL     1       0.966   9.844  20.154  0.00  0.00    +0.000 A 
ATOM      2  N   UNL     1       1.317   9.065  21.170  0.00  0.00    +0.000 NA
ATOM      3  N   UNL     1       1.814   7.877  20.694  0.00  0.00    +0.000 NA
ATOM      4  C   UNL     1       1.819   7.963  19.389  0.00  0.00    +0.000 A 
ATOM      5  N   UNL     1       1.316   9.176  18.986  0.00  0.00    +0.000 N 
ENDROOT
BRANCH   1   8
ATOM      6  C   UNL     1      -1.613  12.440  21.095  0.00  0.00    +0.000 A 
ATOM      7  C   UNL     1      -0.978  11.217  20.897  0.00  0.00    +0.000 A 
ATOM      8  C   UNL     1       0.268  11.150  20.257  0.00  0.00    +0.000 A 
ATOM      9  C   UNL     1       0.821  12.352  19.736  0.00  0.00    +0.000 A 
ATOM     10  C   UNL     1       2.049  12.459  19.027  0.00  0.00    +0.000 A 
ATOM     11  C   UNL     1       2.513  13.674  18.524  0.00  0.00    +0.000 A 
ATOM     12  C   UNL     1       1.767  14.822  18.731  0.00  0.00    +0.000 A 
ATOM     13  C   UNL     1       0.570  14.740  19.445  0.00  0.00    +0.000 A 
ATOM     14  C   UNL     1       0.087  13.544  19.948  0.00  0.00    +0.000 A 
ATOM     15  N   UNL     1      -1.074  13.585  20.625  0.00  0.00    +0.000 NA
BRANCH   6  20
ATOM     16  C   UNL     1      -6.586  13.044  24.090  0.00  0.00    +0.000 C 
ATOM     17  C   UNL     1      -5.315  12.886  23.306  0.00  0.00    +0.000 A 
ATOM     18  C   UNL     1      -5.298  13.003  21.915  0.00  0.00    +0.000 A 
ATOM     19  C   UNL     1      -4.099  12.844  21.203  0.00  0.00    +0.000 A 
ATOM     20  C   UNL     1      -2.883  12.566  21.856  0.00  0.00    +0.000 A 
ATOM     21  C   UNL     1      -2.930  12.443  23.255  0.00  0.00    +0.000 A 
ATOM     22  C   UNL     1      -4.122  12.605  23.972  0.00  0.00    +0.000 A 
ENDBRANCH   6  20
ENDBRANCH   1   8
BRANCH   5  23
ATOM     23  N   UNL     1       1.113   9.599  17.618  0.00  0.00    +0.000 N 
ATOM     24  H   UNL     1       1.102   8.785  16.998  0.00  0.00    +0.000 HD
ATOM     25  H   UNL     1       0.197  10.030  17.500  0.00  0.00    +0.000 HD
ENDBRANCH   5  23
BRANCH   4  26
ATOM     26  S   UNL     1       2.331   6.737  18.279  0.00  0.00    +0.000 S 
BRANCH  26  27
ATOM     27  C   UNL     1       4.024   6.428  18.859  0.00  0.00    +0.000 C 
BRANCH  27  28
ATOM     28  C   UNL     1       4.154   5.000  19.364  0.00  0.00    +0.000 C 
ATOM     29  O   UNL     1       5.234   4.420  19.398  0.00  0.00    +0.000 OA
ATOM     30  N   UNL     1       2.966   4.408  19.751  0.00  0.00    +0.000 N 
ATOM     31  H   UNL     1       2.096   4.905  19.582  0.00  0.00    +0.000 HD
BRANCH  30  32
ATOM     32  C   UNL     1       2.894   3.025  20.232  0.00  0.00    +0.000 C 
ATOM     33  C   UNL     1       2.183   3.031  21.589  0.00  0.00    +0.000 C 
BRANCH  32  34
ATOM     34  C   UNL     1       2.196   2.088  19.204  0.00  0.00    +0.000 C 
ATOM     35  C   UNL     1       0.799   2.582  18.813  0.00  0.00    +0.000 C 
ATOM     36  C   UNL     1       3.012   1.934  17.914  0.00  0.00    +0.000 C 
ENDBRANCH  32  34
ENDBRANCH  30  32
ENDBRANCH  27  28
ENDBRANCH  26  27
ENDBRANCH   4  26
TORSDOF 8
ENDMDL
