MODEL 1
REMARK VINA RESULT:      -7.7      0.000      0.000
REMARK  Name = 
REMARK  12 active torsions:
REMARK  status: ('A' for Active; 'I' for Inactive)
REMARK    1  A    between atoms: C_1  and  C_2
REMARK    2  A    between atoms: C_2  and  O_3
REMARK    3  A    between atoms: O_3  and  C_4
REMARK    4  A    between atoms: C_7  and  S_8
REMARK    5  A    between atoms: S_8  and  N_11
REMARK    6  A    between atoms: N_11  and  C_12
REMARK    7  A    between atoms: C_15  and  C_16
REMARK    8  A    between atoms: C_16  and  O_18
REMARK    9  A    between atoms: O_18  and  C_19
REMARK   10  A    between atoms: C_20  and  C_21
REMARK   11  A    between atoms: C_21  and  O_22
REMARK   12  A    between atoms: O_22  and  C_23
REMARK                            x       y       z     vdW  Elec       q    Type
REMARK                         _______ _______ _______ _____ _____    ______ ____
ROOT
ATOM      1  C   UNL     1       3.231   5.905  19.323  0.00  0.00    +0.000 A 
ATOM      2  C   UNL     1       4.398   6.117  18.582  0.00  0.00    +0.000 A 
ATOM      3  C   UNL     1       4.808   5.171  17.627  0.00  0.00    +0.000 A 
ATOM      4  C   UNL     1       5.829   5.132  16.627  0.00  0.00    +0.000 A 
ATOM      5  C   UNL     1       5.624   3.958  15.921  0.00  0.00    +0.000 A 
ATOM      6  O   UNL     1       4.561   3.270  16.444  0.00  0.00    +0.000 OA
ATOM      7  C   UNL     1       4.041   4.024  17.463  0.00  0.00    +0.000 A 
ATOM      8  C   UNL     1       2.882   3.746  18.230  0.00  0.00    +0.000 A 
ATOM      9  C   UNL     1       2.101   2.596  17.997  0.00  0.00    +0.000 A 
ATOM     10  C   UNL     1       0.952   2.367  18.757  0.00  0.00    +0.000 A 
ATOM     11  C   UNL     1       0.598   3.254  19.769  0.00  0.00    +0.000 A 
ATOM     12  C   UNL     1       1.357   4.406  19.993  0.00  0.00    +0.000 A 
ATOM     13  C   UNL     1       2.494   4.702  19.209  0.00  0.00    +0.000 A 
ENDROOT
BRANCH   1  14
ATOM     14  N   UNL     1       2.716   7.056  20.024  0.00  0.00    +0.000 N 
ATOM     15  H   UNL     1       2.061   6.834  20.775  0.00  0.00    +0.000 HD
BRANCH  14  16
ATOM     16  S   UNL     1       1.952   8.224  19.019  0.00  0.00    +0.000 S 
ATOM     17  O   UNL     1       1.083   7.450  18.155  0.00  0.00    +0.000 OA
ATOM     18  O   UNL     1       2.915   9.161  18.489  0.00  0.00    +0.000 OA
BRANCH  16  22
ATOM     19  C   UNL     1      -0.657  10.578  21.957  0.00  0.00    +0.000 A 
ATOM     20  C   UNL     1      -0.035   9.390  22.348  0.00  0.00    +0.000 A 
ATOM     21  C   UNL     1       0.773   8.682  21.459  0.00  0.00    +0.000 A 
ATOM     22  C   UNL     1       0.917   9.132  20.147  0.00  0.00    +0.000 A 
ATOM     23  C   UNL     1       0.307  10.325  19.746  0.00  0.00    +0.000 A 
ATOM     24  C   UNL     1      -0.479  11.050  20.655  0.00  0.00    +0.000 A 
BRANCH  19  25
ATOM     25  O   UNL     1      -1.441  11.153  22.917  0.00  0.00    +0.000 OA
BRANCH  25  27
ATOM     26  C   UNL     1      -3.223  12.526  23.685  0.00  0.00    +0.000 C 
ATOM     27  C   UNL     1      -2.378  12.137  22.483  0.00  0.00    +0.000 C 
ENDBRANCH  25  27
ENDBRANCH  19  25
ENDBRANCH  16  22
ENDBRANCH  14  16
ENDBRANCH   1  14
BRANCH   4  28
ATOM     28  C   UNL     1       6.808   6.149  16.306  0.00  0.00    +0.000 C 
ATOM     29  O   UNL     1       7.726   5.987  15.507  0.00  0.00    +0.000 OA
BRANCH  28  30
ATOM     30  O   UNL     1       6.545   7.333  16.934  0.00  0.00    +0.000 OA
ATOM     31  C   UNL     1       7.670   7.933  17.573  0.00  0.00    +0.000 C 
ENDBRANCH  28  30
ENDBRANCH   4  28
BRANCH   5  32
ATOM     32  C   UNL     1       6.252   3.399  14.690  0.00  0.00    +0.000 C 
BRANCH  32  33
ATOM     33  O   UNL     1       5.642   4.013  13.553  0.00  0.00    +0.000 OA
ATOM     34  C   UNL     1       6.128   3.438  12.344  0.00  0.00    +0.000 C 
ENDBRANCH  32  33
ENDBRANCH   5  32
TORSDOF 9
ENDMDL
MODEL 2
REMARK VINA RESULT:      -7.5      3.253     10.879
REMARK  Name = 
REMARK  12 active torsions:
REMARK  status: ('A' for Active; 'I' for Inactive)
REMARK    1  A    between atoms: C_1  and  C_2
REMARK    2  A    between atoms: C_2  and  O_3
REMARK    3  A    between atoms: O_3  and  C_4
REMARK    4  A    between atoms: C_7  and  S_8
REMARK    5  A    between atoms: S_8  and  N_11
REMARK    6  A    between atoms: N_11  and  C_12
REMARK    7  A    between atoms: C_15  and  C_16
REMARK    8  A    between atoms: C_16  and  O_18
REMARK    9  A    between atoms: O_18  and  C_19
REMARK   10  A    between atoms: C_20  and  C_21
REMARK   11  A    between atoms: C_21  and  O_22
REMARK   12  A    between atoms: O_22  and  C_23
REMARK                            x       y       z     vdW  Elec       q    Type
REMARK                         _______ _______ _______ _____ _____    ______ ____
ROOT
ATOM      1  C   UNL     1      -1.176  11.861  19.418  0.00  0.00    +0.000 A 
ATOM      2  C   UNL     1      -1.715  12.678  20.415  0.00  0.00    +0.000 A 
ATOM      3  C   UNL     1      -3.106  12.857  20.505  0.00  0.00    +0.000 A 
ATOM      4  C   UNL     1      -3.979  13.483  21.449  0.00  0.00    +0.000 A 
ATOM      5  C   UNL     1      -5.266  13.196  21.024  0.00  0.00    +0.000 A 
ATOM      6  O   UNL     1      -5.231  12.459  19.869  0.00  0.00    +0.000 OA
ATOM      7  C   UNL     1      -3.915  12.223  19.570  0.00  0.00    +0.000 A 
ATOM      8  C   UNL     1      -3.406  11.428  18.511  0.00  0.00    +0.000 A 
ATOM      9  C   UNL     1      -4.262  10.758  17.615  0.00  0.00    +0.000 A 
ATOM     10  C   UNL     1      -3.724   9.964  16.599  0.00  0.00    +0.000 A 
ATOM     11  C   UNL     1      -2.344   9.865  16.449  0.00  0.00    +0.000 A 
ATOM     12  C   UNL     1      -1.490  10.511  17.346  0.00  0.00    +0.000 A 
ATOM     13  C   UNL     1      -1.994  11.277  18.420  0.00  0.00    +0.000 A 
ENDROOT
BRANCH   1  14
ATOM     14  N   UNL     1       0.202  11.475  19.600  0.00  0.00    +0.000 N 
ATOM     15  H   UNL     1       0.683  11.213  18.739  0.00  0.00    +0.000 HD
BRANCH  14  16
ATOM     16  S   UNL     1       0.445  10.195  20.723  0.00  0.00    +0.000 S 
ATOM     17  O   UNL     1      -0.880   9.652  20.950  0.00  0.00    +0.000 OA
ATOM     18  O   UNL     1       1.292  10.617  21.814  0.00  0.00    +0.000 OA
BRANCH  16  22
ATOM     19  C   UNL     1       2.869   7.136  18.327  0.00  0.00    +0.000 A 
ATOM     20  C   UNL     1       2.516   8.364  17.765  0.00  0.00    +0.000 A 
ATOM     21  C   UNL     1       1.793   9.303  18.500  0.00  0.00    +0.000 A 
ATOM     22  C   UNL     1       1.366   8.991  19.790  0.00  0.00    +0.000 A 
ATOM     23  C   UNL     1       1.721   7.767  20.367  0.00  0.00    +0.000 A 
ATOM     24  C   UNL     1       2.477   6.840  19.634  0.00  0.00    +0.000 A 
BRANCH  19  25
ATOM     25  O   UNL     1       3.552   6.301  17.488  0.00  0.00    +0.000 OA
BRANCH  25  27
ATOM     26  C   UNL     1       5.185   5.921  15.802  0.00  0.00    +0.000 C 
ATOM     27  C   UNL     1       4.823   6.752  17.022  0.00  0.00    +0.000 C 
ENDBRANCH  25  27
ENDBRANCH  19  25
ENDBRANCH  16  22
ENDBRANCH  14  16
ENDBRANCH   1  14
BRANCH   4  28
ATOM     28  C   UNL     1      -3.630  14.169  22.674  0.00  0.00    +0.000 C 
ATOM     29  O   UNL     1      -3.054  15.252  22.712  0.00  0.00    +0.000 OA
BRANCH  28  30
ATOM     30  O   UNL     1      -4.084  13.510  23.781  0.00  0.00    +0.000 OA
ATOM     31  C   UNL     1      -3.497  12.229  23.997  0.00  0.00    +0.000 C 
ENDBRANCH  28  30
ENDBRANCH   4  28
BRANCH   5  32
ATOM     32  C   UNL     1      -6.606  13.440  21.630  0.00  0.00    +0.000 C 
BRANCH  32  33
ATOM     33  O   UNL     1      -6.916  12.345  22.495  0.00  0.00    +0.000 OA
ATOM     34  C   UNL     1      -7.567  12.801  23.677  0.00  0.00    +0.000 C 
ENDBRANCH  32  33
ENDBRANCH   5  32
TORSDOF 9
ENDMDL
MODEL 3
REMARK VINA RESULT:      -7.5      0.620      1.037
REMARK  Name = 
REMARK  12 active torsions:
REMARK  status: ('A' for Active; 'I' for Inactive)
REMARK    1  A    between atoms: C_1  and  C_2
REMARK    2  A    between atoms: C_2  and  O_3
REMARK    3  A    between atoms: O_3  and  C_4
REMARK    4  A    between atoms: C_7  and  S_8
REMARK    5  A    between atoms: S_8  and  N_11
REMARK    6  A    between atoms: N_11  and  C_12
REMARK    7  A    between atoms: C_15  and  C_16
REMARK    8  A    between atoms: C_16  and  O_18
REMARK    9  A    between atoms: O_18  and  C_19
REMARK   10  A    between atoms: C_20  and  C_21
REMARK   11  A    between atoms: C_21  and  O_22
REMARK   12  A    between atoms: O_22  and  C_23
REMARK                            x       y       z     vdW  Elec       q    Type
REMARK                         _______ _______ _______ _____ _____    ______ ____
ROOT
ATOM      1  C   UNL     1       3.068   6.099  19.227  0.00  0.00    +0.000 A 
ATOM      2  C   UNL     1       4.253   6.281  18.508  0.00  0.00    +0.000 A 
ATOM      3  C   UNL     1       4.712   5.276  17.639  0.00  0.00    +0.000 A 
ATOM      4  C   UNL     1       5.765   5.186  16.676  0.00  0.00    +0.000 A 
ATOM      5  C   UNL     1       5.605   3.960  16.052  0.00  0.00    +0.000 A 
ATOM      6  O   UNL     1       4.540   3.289  16.593  0.00  0.00    +0.000 OA
ATOM      7  C   UNL     1       3.973   4.104  17.537  0.00  0.00    +0.000 A 
ATOM      8  C   UNL     1       2.796   3.858  18.288  0.00  0.00    +0.000 A 
ATOM      9  C   UNL     1       2.045   2.677  18.116  0.00  0.00    +0.000 A 
ATOM     10  C   UNL     1       0.877   2.479  18.856  0.00  0.00    +0.000 A 
ATOM     11  C   UNL     1       0.474   3.431  19.789  0.00  0.00    +0.000 A 
ATOM     12  C   UNL     1       1.203   4.612  19.950  0.00  0.00    +0.000 A 
ATOM     13  C   UNL     1       2.358   4.875  19.181  0.00  0.00    +0.000 A 
ENDROOT
BRANCH   1  14
ATOM     14  N   UNL     1       2.509   7.286  19.826  0.00  0.00    +0.000 N 
ATOM     15  H   UNL     1       1.748   7.108  20.483  0.00  0.00    +0.000 HD
BRANCH  14  16
ATOM     16  S   UNL     1       1.940   8.455  18.700  0.00  0.00    +0.000 S 
ATOM     17  O   UNL     1       1.111   7.702  17.779  0.00  0.00    +0.000 OA
ATOM     18  O   UNL     1       3.017   9.299  18.239  0.00  0.00    +0.000 OA
BRANCH  16  22
ATOM     19  C   UNL     1      -0.888  11.059  21.190  0.00  0.00    +0.000 A 
ATOM     20  C   UNL     1      -0.945  11.076  19.796  0.00  0.00    +0.000 A 
ATOM     21  C   UNL     1      -0.096  10.271  19.037  0.00  0.00    +0.000 A 
ATOM     22  C   UNL     1       0.861   9.482  19.675  0.00  0.00    +0.000 A 
ATOM     23  C   UNL     1       0.921   9.449  21.072  0.00  0.00    +0.000 A 
ATOM     24  C   UNL     1       0.041  10.237  21.830  0.00  0.00    +0.000 A 
BRANCH  19  25
ATOM     25  O   UNL     1      -1.757  11.916  21.806  0.00  0.00    +0.000 OA
BRANCH  25  27
ATOM     26  C   UNL     1      -1.325  13.673  23.348  0.00  0.00    +0.000 C 
ATOM     27  C   UNL     1      -1.535  12.176  23.191  0.00  0.00    +0.000 C 
ENDBRANCH  25  27
ENDBRANCH  19  25
ENDBRANCH  16  22
ENDBRANCH  14  16
ENDBRANCH   1  14
BRANCH   4  28
ATOM     28  C   UNL     1       6.733   6.198  16.310  0.00  0.00    +0.000 C 
ATOM     29  O   UNL     1       7.676   6.000  15.550  0.00  0.00    +0.000 OA
BRANCH  28  30
ATOM     30  O   UNL     1       6.431   7.418  16.846  0.00  0.00    +0.000 OA
ATOM     31  C   UNL     1       7.499   8.041  17.555  0.00  0.00    +0.000 C 
ENDBRANCH  28  30
ENDBRANCH   4  28
BRANCH   5  32
ATOM     32  C   UNL     1       6.282   3.326  14.886  0.00  0.00    +0.000 C 
BRANCH  32  33
ATOM     33  O   UNL     1       5.638   3.773  13.692  0.00  0.00    +0.000 OA
ATOM     34  C   UNL     1       6.531   3.720  12.583  0.00  0.00    +0.000 C 
ENDBRANCH  32  33
ENDBRANCH   5  32
TORSDOF 9
ENDMDL
MODEL 4
REMARK VINA RESULT:      -7.4      2.919     10.109
REMARK  Name = 
REMARK  12 active torsions:
REMARK  status: ('A' for Active; 'I' for Inactive)
REMARK    1  A    between atoms: C_1  and  C_2
REMARK    2  A    between atoms: C_2  and  O_3
REMARK    3  A    between atoms: O_3  and  C_4
REMARK    4  A    between atoms: C_7  and  S_8
REMARK    5  A    between atoms: S_8  and  N_11
REMARK    6  A    between atoms: N_11  and  C_12
REMARK    7  A    between atoms: C_15  and  C_16
REMARK    8  A    between atoms: C_16  and  O_18
REMARK    9  A    between atoms: O_18  and  C_19
REMARK   10  A    between atoms: C_20  and  C_21
REMARK   11  A    between atoms: C_21  and  O_22
REMARK   12  A    between atoms: O_22  and  C_23
REMARK                            x       y       z     vdW  Elec       q    Type
REMARK                         _______ _______ _______ _____ _____    ______ ____
ROOT
ATOM      1  C   UNL     1      -0.923  10.596  18.320  0.00  0.00    +0.000 A 
ATOM      2  C   UNL     1      -0.734  11.118  19.603  0.00  0.00    +0.000 A 
ATOM      3  C   UNL     1      -1.765  11.839  20.229  0.00  0.00    +0.000 A 
ATOM      4  C   UNL     1      -1.964  12.372  21.541  0.00  0.00    +0.000 A 
ATOM      5  C   UNL     1      -3.260  12.863  21.559  0.00  0.00    +0.000 A 
ATOM      6  O   UNL     1      -3.850  12.687  20.335  0.00  0.00    +0.000 OA
ATOM      7  C   UNL     1      -2.953  12.032  19.533  0.00  0.00    +0.000 A 
ATOM      8  C   UNL     1      -3.165  11.565  18.211  0.00  0.00    +0.000 A 
ATOM      9  C   UNL     1      -4.403  11.736  17.559  0.00  0.00    +0.000 A 
ATOM     10  C   UNL     1      -4.584  11.240  16.265  0.00  0.00    +0.000 A 
ATOM     11  C   UNL     1      -3.531  10.612  15.607  0.00  0.00    +0.000 A 
ATOM     12  C   UNL     1      -2.307  10.423  16.255  0.00  0.00    +0.000 A 
ATOM     13  C   UNL     1      -2.102  10.859  17.583  0.00  0.00    +0.000 A 
ENDROOT
BRANCH   1  14
ATOM     14  N   UNL     1       0.041   9.609  17.897  0.00  0.00    +0.000 N 
ATOM     15  H   UNL     1      -0.224   8.645  18.105  0.00  0.00    +0.000 HD
BRANCH  14  16
ATOM     16  S   UNL     1       1.626   9.842  18.521  0.00  0.00    +0.000 S 
ATOM     17  O   UNL     1       1.420  10.263  19.893  0.00  0.00    +0.000 OA
ATOM     18  O   UNL     1       2.437  10.608  17.603  0.00  0.00    +0.000 OA
BRANCH  16  22
ATOM     19  C   UNL     1       3.435   5.636  18.634  0.00  0.00    +0.000 A 
ATOM     20  C   UNL     1       3.711   6.503  17.576  0.00  0.00    +0.000 A 
ATOM     21  C   UNL     1       3.175   7.790  17.549  0.00  0.00    +0.000 A 
ATOM     22  C   UNL     1       2.305   8.197  18.560  0.00  0.00    +0.000 A 
ATOM     23  C   UNL     1       2.028   7.341  19.631  0.00  0.00    +0.000 A 
ATOM     24  C   UNL     1       2.598   6.059  19.668  0.00  0.00    +0.000 A 
BRANCH  19  25
ATOM     25  O   UNL     1       4.003   4.398  18.519  0.00  0.00    +0.000 OA
BRANCH  25  27
ATOM     26  C   UNL     1       4.153   2.535  19.988  0.00  0.00    +0.000 C 
ATOM     27  C   UNL     1       3.255   3.294  19.025  0.00  0.00    +0.000 C 
ENDBRANCH  25  27
ENDBRANCH  19  25
ENDBRANCH  16  22
ENDBRANCH  14  16
ENDBRANCH   1  14
BRANCH   4  28
ATOM     28  C   UNL     1      -1.070  12.311  22.677  0.00  0.00    +0.000 C 
ATOM     29  O   UNL     1      -0.249  13.182  22.950  0.00  0.00    +0.000 OA
BRANCH  28  30
ATOM     30  O   UNL     1      -1.300  11.212  23.455  0.00  0.00    +0.000 OA
ATOM     31  C   UNL     1      -0.518  10.068  23.120  0.00  0.00    +0.000 C 
ENDBRANCH  28  30
ENDBRANCH   4  28
BRANCH   5  32
ATOM     32  C   UNL     1      -4.112  13.418  22.647  0.00  0.00    +0.000 C 
BRANCH  32  33
ATOM     33  O   UNL     1      -4.688  12.327  23.370  0.00  0.00    +0.000 OA
ATOM     34  C   UNL     1      -4.382  12.420  24.758  0.00  0.00    +0.000 C 
ENDBRANCH  32  33
ENDBRANCH   5  32
TORSDOF 9
ENDMDL
MODEL 5
REMARK VINA RESULT:      -7.4      3.393     10.980
REMARK  Name = 
REMARK  12 active torsions:
REMARK  status: ('A' for Active; 'I' for Inactive)
REMARK    1  A    between atoms: C_1  and  C_2
REMARK    2  A    between atoms: C_2  and  O_3
REMARK    3  A    between atoms: O_3  and  C_4
REMARK    4  A    between atoms: C_7  and  S_8
REMARK    5  A    between atoms: S_8  and  N_11
REMARK    6  A    between atoms: N_11  and  C_12
REMARK    7  A    between atoms: C_15  and  C_16
REMARK    8  A    between atoms: C_16  and  O_18
REMARK    9  A    between atoms: O_18  and  C_19
REMARK   10  A    between atoms: C_20  and  C_21
REMARK   11  A    between atoms: C_21  and  O_22
REMARK   12  A    between atoms: O_22  and  C_23
REMARK                            x       y       z     vdW  Elec       q    Type
REMARK                         _______ _______ _______ _____ _____    ______ ____
ROOT
ATOM      1  C   UNL     1      -1.310  11.941  19.416  0.00  0.00    +0.000 A 
ATOM      2  C   UNL     1      -1.843  12.635  20.506  0.00  0.00    +0.000 A 
ATOM      3  C   UNL     1      -3.234  12.801  20.626  0.00  0.00    +0.000 A 
ATOM      4  C   UNL     1      -4.100  13.310  21.642  0.00  0.00    +0.000 A 
ATOM      5  C   UNL     1      -5.390  13.073  21.196  0.00  0.00    +0.000 A 
ATOM      6  O   UNL     1      -5.362  12.477  19.962  0.00  0.00    +0.000 OA
ATOM      7  C   UNL     1      -4.048  12.279  19.628  0.00  0.00    +0.000 A 
ATOM      8  C   UNL     1      -3.546  11.615  18.480  0.00  0.00    +0.000 A 
ATOM      9  C   UNL     1      -4.408  11.054  17.517  0.00  0.00    +0.000 A 
ATOM     10  C   UNL     1      -3.877  10.385  16.411  0.00  0.00    +0.000 A 
ATOM     11  C   UNL     1      -2.498  10.306  16.242  0.00  0.00    +0.000 A 
ATOM     12  C   UNL     1      -1.638  10.844  17.203  0.00  0.00    +0.000 A 
ATOM     13  C   UNL     1      -2.135  11.478  18.363  0.00  0.00    +0.000 A 
ENDROOT
BRANCH   1  14
ATOM     14  N   UNL     1       0.069  11.538  19.542  0.00  0.00    +0.000 N 
ATOM     15  H   UNL     1       0.509  11.261  18.664  0.00  0.00    +0.000 HD
BRANCH  14  16
ATOM     16  S   UNL     1       0.344  10.268  20.668  0.00  0.00    +0.000 S 
ATOM     17  O   UNL     1      -0.966   9.689  20.892  0.00  0.00    +0.000 OA
ATOM     18  O   UNL     1       1.177  10.714  21.761  0.00  0.00    +0.000 OA
BRANCH  16  22
ATOM     19  C   UNL     1       2.751   7.189  18.280  0.00  0.00    +0.000 A 
ATOM     20  C   UNL     1       2.434   6.962  19.620  0.00  0.00    +0.000 A 
ATOM     21  C   UNL     1       1.686   7.891  20.344  0.00  0.00    +0.000 A 
ATOM     22  C   UNL     1       1.301   9.088  19.740  0.00  0.00    +0.000 A 
ATOM     23  C   UNL     1       1.605   9.323  18.395  0.00  0.00    +0.000 A 
ATOM     24  C   UNL     1       2.329   8.368  17.664  0.00  0.00    +0.000 A 
BRANCH  19  25
ATOM     25  O   UNL     1       3.511   6.211  17.702  0.00  0.00    +0.000 OA
BRANCH  25  27
ATOM     26  C   UNL     1       3.951   3.966  17.055  0.00  0.00    +0.000 C 
ATOM     27  C   UNL     1       3.155   4.860  17.992  0.00  0.00    +0.000 C 
ENDBRANCH  25  27
ENDBRANCH  19  25
ENDBRANCH  16  22
ENDBRANCH  14  16
ENDBRANCH   1  14
BRANCH   4  28
ATOM     28  C   UNL     1      -3.742  13.848  22.937  0.00  0.00    +0.000 C 
ATOM     29  O   UNL     1      -3.848  15.033  23.239  0.00  0.00    +0.000 OA
BRANCH  28  30
ATOM     30  O   UNL     1      -3.349  12.873  23.809  0.00  0.00    +0.000 OA
ATOM     31  C   UNL     1      -4.372  12.406  24.685  0.00  0.00    +0.000 C 
ENDBRANCH  28  30
ENDBRANCH   4  28
BRANCH   5  32
ATOM     32  C   UNL     1      -6.725  13.242  21.835  0.00  0.00    +0.000 C 
BRANCH  32  33
ATOM     33  O   UNL     1      -6.994  14.641  21.956  0.00  0.00    +0.000 OA
ATOM     34  C   UNL     1      -7.438  15.181  20.715  0.00  0.00    +0.000 C 
ENDBRANCH  32  33
ENDBRANCH   5  32
TORSDOF 9
ENDMDL
MODEL 6
REMARK VINA RESULT:      -7.4      3.098     10.733
REMARK  Name = 
REMARK  12 active torsions:
REMARK  status: ('A' for Active; 'I' for Inactive)
REMARK    1  A    between atoms: C_1  and  C_2
REMARK    2  A    between atoms: C_2  and  O_3
REMARK    3  A    between atoms: O_3  and  C_4
REMARK    4  A    between atoms: C_7  and  S_8
REMARK    5  A    between atoms: S_8  and  N_11
REMARK    6  A    between atoms: N_11  and  C_12
REMARK    7  A    between atoms: C_15  and  C_16
REMARK    8  A    between atoms: C_16  and  O_18
REMARK    9  A    between atoms: O_18  and  C_19
REMARK   10  A    between atoms: C_20  and  C_21
REMARK   11  A    between atoms: C_21  and  O_22
REMARK   12  A    between atoms: O_22  and  C_23
REMARK                            x       y       z     vdW  Elec       q    Type
REMARK                         _______ _______ _______ _____ _____    ______ ____
ROOT
ATOM      1  C   UNL     1      -0.892  11.704  19.692  0.00  0.00    +0.000 A 
ATOM      2  C   UNL     1      -1.391  12.491  20.734  0.00  0.00    +0.000 A 
ATOM      3  C   UNL     1      -2.769  12.753  20.823  0.00  0.00    +0.000 A 
ATOM      4  C   UNL     1      -3.612  13.373  21.796  0.00  0.00    +0.000 A 
ATOM      5  C   UNL     1      -4.910  13.195  21.343  0.00  0.00    +0.000 A 
ATOM      6  O   UNL     1      -4.906  12.530  20.145  0.00  0.00    +0.000 OA
ATOM      7  C   UNL     1      -3.604  12.229  19.843  0.00  0.00    +0.000 A 
ATOM      8  C   UNL     1      -3.133  11.471  18.741  0.00  0.00    +0.000 A 
ATOM      9  C   UNL     1      -4.018  10.913  17.797  0.00  0.00    +0.000 A 
ATOM     10  C   UNL     1      -3.519  10.151  16.739  0.00  0.00    +0.000 A 
ATOM     11  C   UNL     1      -2.146   9.973  16.595  0.00  0.00    +0.000 A 
ATOM     12  C   UNL     1      -1.264  10.507  17.538  0.00  0.00    +0.000 A 
ATOM     13  C   UNL     1      -1.733  11.236  18.653  0.00  0.00    +0.000 A 
ENDROOT
BRANCH   1  14
ATOM     14  N   UNL     1       0.457  11.221  19.862  0.00  0.00    +0.000 N 
ATOM     15  H   UNL     1       0.914  10.935  18.995  0.00  0.00    +0.000 HD
BRANCH  14  16
ATOM     16  S   UNL     1       0.616   9.916  20.970  0.00  0.00    +0.000 S 
ATOM     17  O   UNL     1      -0.744   9.477  21.216  0.00  0.00    +0.000 OA
ATOM     18  O   UNL     1       1.512  10.259  22.050  0.00  0.00    +0.000 OA
BRANCH  16  22
ATOM     19  C   UNL     1       2.748   6.699  18.504  0.00  0.00    +0.000 A 
ATOM     20  C   UNL     1       2.379   7.914  17.925  0.00  0.00    +0.000 A 
ATOM     21  C   UNL     1       1.745   8.901  18.679  0.00  0.00    +0.000 A 
ATOM     22  C   UNL     1       1.423   8.651  20.012  0.00  0.00    +0.000 A 
ATOM     23  C   UNL     1       1.796   7.441  20.607  0.00  0.00    +0.000 A 
ATOM     24  C   UNL     1       2.463   6.465  19.851  0.00  0.00    +0.000 A 
BRANCH  19  25
ATOM     25  O   UNL     1       3.336   5.814  17.645  0.00  0.00    +0.000 OA
BRANCH  25  27
ATOM     26  C   UNL     1       1.585   4.207  17.610  0.00  0.00    +0.000 C 
ATOM     27  C   UNL     1       3.067   4.429  17.859  0.00  0.00    +0.000 C 
ENDBRANCH  25  27
ENDBRANCH  19  25
ENDBRANCH  16  22
ENDBRANCH  14  16
ENDBRANCH   1  14
BRANCH   4  28
ATOM     28  C   UNL     1      -3.236  13.958  23.065  0.00  0.00    +0.000 C 
ATOM     29  O   UNL     1      -2.787  13.315  24.009  0.00  0.00    +0.000 OA
BRANCH  28  30
ATOM     30  O   UNL     1      -3.362  15.319  23.063  0.00  0.00    +0.000 OA
ATOM     31  C   UNL     1      -2.289  16.018  22.437  0.00  0.00    +0.000 C 
ENDBRANCH  28  30
ENDBRANCH   4  28
BRANCH   5  32
ATOM     32  C   UNL     1      -6.238  13.486  21.952  0.00  0.00    +0.000 C 
BRANCH  32  33
ATOM     33  O   UNL     1      -6.535  12.459  22.901  0.00  0.00    +0.000 OA
ATOM     34  C   UNL     1      -7.401  12.946  23.922  0.00  0.00    +0.000 C 
ENDBRANCH  32  33
ENDBRANCH   5  32
TORSDOF 9
ENDMDL
MODEL 7
REMARK VINA RESULT:      -7.4      3.244     10.687
REMARK  Name = 
REMARK  12 active torsions:
REMARK  status: ('A' for Active; 'I' for Inactive)
REMARK    1  A    between atoms: C_1  and  C_2
REMARK    2  A    between atoms: C_2  and  O_3
REMARK    3  A    between atoms: O_3  and  C_4
REMARK    4  A    between atoms: C_7  and  S_8
REMARK    5  A    between atoms: S_8  and  N_11
REMARK    6  A    between atoms: N_11  and  C_12
REMARK    7  A    between atoms: C_15  and  C_16
REMARK    8  A    between atoms: C_16  and  O_18
REMARK    9  A    between atoms: O_18  and  C_19
REMARK   10  A    between atoms: C_20  and  C_21
REMARK   11  A    between atoms: C_21  and  O_22
REMARK   12  A    between atoms: O_22  and  C_23
REMARK                            x       y       z     vdW  Elec       q    Type
REMARK                         _______ _______ _______ _____ _____    ______ ____
ROOT
ATOM      1  C   UNL     1      -1.077  11.703  19.227  0.00  0.00    +0.000 A 
ATOM      2  C   UNL     1      -1.550  12.521  20.256  0.00  0.00    +0.000 A 
ATOM      3  C   UNL     1      -2.927  12.771  20.382  0.00  0.00    +0.000 A 
ATOM      4  C   UNL     1      -3.745  13.416  21.361  0.00  0.00    +0.000 A 
ATOM      5  C   UNL     1      -5.054  13.209  20.959  0.00  0.00    +0.000 A 
ATOM      6  O   UNL     1      -5.083  12.502  19.786  0.00  0.00    +0.000 OA
ATOM      7  C   UNL     1      -3.789  12.204  19.450  0.00  0.00    +0.000 A 
ATOM      8  C   UNL     1      -3.345  11.412  18.361  0.00  0.00    +0.000 A 
ATOM      9  C   UNL     1      -4.255  10.812  17.467  0.00  0.00    +0.000 A 
ATOM     10  C   UNL     1      -3.782  10.018  16.419  0.00  0.00    +0.000 A 
ATOM     11  C   UNL     1      -2.413   9.850  16.236  0.00  0.00    +0.000 A 
ATOM     12  C   UNL     1      -1.506  10.427  17.129  0.00  0.00    +0.000 A 
ATOM     13  C   UNL     1      -1.946  11.190  18.234  0.00  0.00    +0.000 A 
ENDROOT
BRANCH   1  14
ATOM     14  N   UNL     1       0.283  11.240  19.367  0.00  0.00    +0.000 N 
ATOM     15  H   UNL     1       0.701  10.891  18.504  0.00  0.00    +0.000 HD
BRANCH  14  16
ATOM     16  S   UNL     1       0.505  10.024  20.563  0.00  0.00    +0.000 S 
ATOM     17  O   UNL     1      -0.821   9.482  20.783  0.00  0.00    +0.000 OA
ATOM     18  O   UNL     1       1.320  10.511  21.652  0.00  0.00    +0.000 OA
BRANCH  16  22
ATOM     19  C   UNL     1       2.907   6.784  18.393  0.00  0.00    +0.000 A 
ATOM     20  C   UNL     1       2.513   6.611  19.721  0.00  0.00    +0.000 A 
ATOM     21  C   UNL     1       1.767   7.590  20.377  0.00  0.00    +0.000 A 
ATOM     22  C   UNL     1       1.460   8.780  19.719  0.00  0.00    +0.000 A 
ATOM     23  C   UNL     1       1.840   8.962  18.386  0.00  0.00    +0.000 A 
ATOM     24  C   UNL     1       2.562   7.959  17.721  0.00  0.00    +0.000 A 
BRANCH  19  25
ATOM     25  O   UNL     1       3.655   5.760  17.883  0.00  0.00    +0.000 OA
BRANCH  25  27
ATOM     26  C   UNL     1       5.601   4.783  18.837  0.00  0.00    +0.000 C 
ATOM     27  C   UNL     1       5.074   5.900  17.952  0.00  0.00    +0.000 C 
ENDBRANCH  25  27
ENDBRANCH  19  25
ENDBRANCH  16  22
ENDBRANCH  14  16
ENDBRANCH   1  14
BRANCH   4  28
ATOM     28  C   UNL     1      -3.333  14.050  22.596  0.00  0.00    +0.000 C 
ATOM     29  O   UNL     1      -3.552  15.227  22.867  0.00  0.00    +0.000 OA
BRANCH  28  30
ATOM     30  O   UNL     1      -2.742  13.168  23.456  0.00  0.00    +0.000 OA
ATOM     31  C   UNL     1      -3.645  12.292  24.126  0.00  0.00    +0.000 C 
ENDBRANCH  28  30
ENDBRANCH   4  28
BRANCH   5  32
ATOM     32  C   UNL     1      -6.365  13.506  21.602  0.00  0.00    +0.000 C 
BRANCH  32  33
ATOM     33  O   UNL     1      -6.725  12.398  22.429  0.00  0.00    +0.000 OA
ATOM     34  C   UNL     1      -7.917  11.777  21.956  0.00  0.00    +0.000 C 
ENDBRANCH  32  33
ENDBRANCH   5  32
TORSDOF 9
ENDMDL
MODEL 8
REMARK VINA RESULT:      -7.3      3.197     10.478
REMARK  Name = 
REMARK  12 active torsions:
REMARK  status: ('A' for Active; 'I' for Inactive)
REMARK    1  A    between atoms: C_1  and  C_2
REMARK    2  A    between atoms: C_2  and  O_3
REMARK    3  A    between atoms: O_3  and  C_4
REMARK    4  A    between atoms: C_7  and  S_8
REMARK    5  A    between atoms: S_8  and  N_11
REMARK    6  A    between atoms: N_11  and  C_12
REMARK    7  A    between atoms: C_15  and  C_16
REMARK    8  A    between atoms: C_16  and  O_18
REMARK    9  A    between atoms: O_18  and  C_19
REMARK   10  A    between atoms: C_20  and  C_21
REMARK   11  A    between atoms: C_21  and  O_22
REMARK   12  A    between atoms: O_22  and  C_23
REMARK                            x       y       z     vdW  Elec       q    Type
REMARK                         _______ _______ _______ _____ _____    ______ ____
ROOT
ATOM      1  C   UNL     1      -0.249  11.305  19.580  0.00  0.00    +0.000 A 
ATOM      2  C   UNL     1      -0.355  12.280  20.575  0.00  0.00    +0.000 A 
ATOM      3  C   UNL     1      -1.576  12.945  20.783  0.00  0.00    +0.000 A 
ATOM      4  C   UNL     1      -2.065  13.859  21.767  0.00  0.00    +0.000 A 
ATOM      5  C   UNL     1      -3.409  14.041  21.482  0.00  0.00    +0.000 A 
ATOM      6  O   UNL     1      -3.760  13.316  20.373  0.00  0.00    +0.000 OA
ATOM      7  C   UNL     1      -2.652  12.621  19.966  0.00  0.00    +0.000 A 
ATOM      8  C   UNL     1      -2.572  11.675  18.912  0.00  0.00    +0.000 A 
ATOM      9  C   UNL     1      -3.700  11.336  18.138  0.00  0.00    +0.000 A 
ATOM     10  C   UNL     1      -3.588  10.382  17.124  0.00  0.00    +0.000 A 
ATOM     11  C   UNL     1      -2.356   9.795  16.852  0.00  0.00    +0.000 A 
ATOM     12  C   UNL     1      -1.238  10.113  17.627  0.00  0.00    +0.000 A 
ATOM     13  C   UNL     1      -1.322  11.030  18.698  0.00  0.00    +0.000 A 
ENDROOT
BRANCH   1  14
ATOM     14  N   UNL     1       0.917  10.457  19.654  0.00  0.00    +0.000 N 
ATOM     15  H   UNL     1       1.133   9.962  18.788  0.00  0.00    +0.000 HD
BRANCH  14  16
ATOM     16  S   UNL     1       0.869   9.282  20.909  0.00  0.00    +0.000 S 
ATOM     17  O   UNL     1      -0.541   8.996  21.087  0.00  0.00    +0.000 OA
ATOM     18  O   UNL     1       1.713   9.670  22.015  0.00  0.00    +0.000 OA
BRANCH  16  22
ATOM     19  C   UNL     1       2.735   5.567  18.988  0.00  0.00    +0.000 A 
ATOM     20  C   UNL     1       2.126   5.492  20.242  0.00  0.00    +0.000 A 
ATOM     21  C   UNL     1       1.542   6.619  20.821  0.00  0.00    +0.000 A 
ATOM     22  C   UNL     1       1.618   7.848  20.166  0.00  0.00    +0.000 A 
ATOM     23  C   UNL     1       2.217   7.934  18.905  0.00  0.00    +0.000 A 
ATOM     24  C   UNL     1       2.773   6.789  18.315  0.00  0.00    +0.000 A 
BRANCH  19  25
ATOM     25  O   UNL     1       3.289   4.395  18.555  0.00  0.00    +0.000 OA
BRANCH  25  27
ATOM     26  C   UNL     1       2.585   2.258  17.788  0.00  0.00    +0.000 C 
ATOM     27  C   UNL     1       2.646   3.741  17.462  0.00  0.00    +0.000 C 
ENDBRANCH  25  27
ENDBRANCH  19  25
ENDBRANCH  16  22
ENDBRANCH  14  16
ENDBRANCH   1  14
BRANCH   4  28
ATOM     28  C   UNL     1      -1.367  14.400  22.914  0.00  0.00    +0.000 C 
ATOM     29  O   UNL     1      -0.845  13.711  23.785  0.00  0.00    +0.000 OA
BRANCH  28  30
ATOM     30  O   UNL     1      -1.288  15.763  22.872  0.00  0.00    +0.000 OA
ATOM     31  C   UNL     1      -1.659  16.421  24.081  0.00  0.00    +0.000 C 
ENDBRANCH  28  30
ENDBRANCH   4  28
BRANCH   5  32
ATOM     32  C   UNL     1      -4.503  14.757  22.195  0.00  0.00    +0.000 C 
BRANCH  32  33
ATOM     33  O   UNL     1      -4.764  14.075  23.424  0.00  0.00    +0.000 OA
ATOM     34  C   UNL     1      -5.829  13.142  23.270  0.00  0.00    +0.000 C 
ENDBRANCH  32  33
ENDBRANCH   5  32
TORSDOF 9
ENDMDL
MODEL 9
REMARK VINA RESULT:      -7.3      1.125      1.489
REMARK  Name = 
REMARK  12 active torsions:
REMARK  status: ('A' for Active; 'I' for Inactive)
REMARK    1  A    between atoms: C_1  and  C_2
REMARK    2  A    between atoms: C_2  and  O_3
REMARK    3  A    between atoms: O_3  and  C_4
REMARK    4  A    between atoms: C_7  and  S_8
REMARK    5  A    between atoms: S_8  and  N_11
REMARK    6  A    between atoms: N_11  and  C_12
REMARK    7  A    between atoms: C_15  and  C_16
REMARK    8  A    between atoms: C_16  and  O_18
REMARK    9  A    between atoms: O_18  and  C_19
REMARK   10  A    between atoms: C_20  and  C_21
REMARK   11  A    between atoms: C_21  and  O_22
REMARK   12  A    between atoms: O_22  and  C_23
REMARK                            x       y       z     vdW  Elec       q    Type
REMARK                         _______ _______ _______ _____ _____    ______ ____
ROOT
ATOM      1  C   UNL     1       2.810   6.370  19.304  0.00  0.00    +0.000 A 
ATOM      2  C   UNL     1       3.866   6.600  18.418  0.00  0.00    +0.000 A 
ATOM      3  C   UNL     1       4.405   5.538  17.671  0.00  0.00    +0.000 A 
ATOM      4  C   UNL     1       5.355   5.439  16.607  0.00  0.00    +0.000 A 
ATOM      5  C   UNL     1       5.350   4.110  16.216  0.00  0.00    +0.000 A 
ATOM      6  O   UNL     1       4.478   3.391  16.991  0.00  0.00    +0.000 OA
ATOM      7  C   UNL     1       3.876   4.267  17.856  0.00  0.00    +0.000 A 
ATOM      8  C   UNL     1       2.841   3.981  18.783  0.00  0.00    +0.000 A 
ATOM      9  C   UNL     1       2.295   2.688  18.903  0.00  0.00    +0.000 A 
ATOM     10  C   UNL     1       1.260   2.449  19.810  0.00  0.00    +0.000 A 
ATOM     11  C   UNL     1       0.792   3.480  20.620  0.00  0.00    +0.000 A 
ATOM     12  C   UNL     1       1.316   4.769  20.493  0.00  0.00    +0.000 A 
ATOM     13  C   UNL     1       2.324   5.063  19.548  0.00  0.00    +0.000 A 
ENDROOT
BRANCH   1  14
ATOM     14  N   UNL     1       2.115   7.545  19.769  0.00  0.00    +0.000 N 
ATOM     15  H   UNL     1       1.265   7.349  20.301  0.00  0.00    +0.000 HD
BRANCH  14  16
ATOM     16  S   UNL     1       1.689   8.662  18.533  0.00  0.00    +0.000 S 
ATOM     17  O   UNL     1       0.933   7.878  17.577  0.00  0.00    +0.000 OA
ATOM     18  O   UNL     1       2.830   9.455  18.135  0.00  0.00    +0.000 OA
BRANCH  16  22
ATOM     19  C   UNL     1      -1.291  11.464  20.592  0.00  0.00    +0.000 A 
ATOM     20  C   UNL     1      -1.201  11.418  19.200  0.00  0.00    +0.000 A 
ATOM     21  C   UNL     1      -0.306  10.553  18.571  0.00  0.00    +0.000 A 
ATOM     22  C   UNL     1       0.551   9.767  19.342  0.00  0.00    +0.000 A 
ATOM     23  C   UNL     1       0.464   9.797  20.737  0.00  0.00    +0.000 A 
ATOM     24  C   UNL     1      -0.463  10.646  21.362  0.00  0.00    +0.000 A 
BRANCH  19  25
ATOM     25  O   UNL     1      -2.189  12.376  21.074  0.00  0.00    +0.000 OA
BRANCH  25  27
ATOM     26  C   UNL     1      -4.180  13.671  20.997  0.00  0.00    +0.000 C 
ATOM     27  C   UNL     1      -3.302  12.690  20.239  0.00  0.00    +0.000 C 
ENDBRANCH  25  27
ENDBRANCH  19  25
ENDBRANCH  16  22
ENDBRANCH  14  16
ENDBRANCH   1  14
BRANCH   4  28
ATOM     28  C   UNL     1       6.090   6.505  15.960  0.00  0.00    +0.000 C 
ATOM     29  O   UNL     1       5.596   7.281  15.147  0.00  0.00    +0.000 OA
BRANCH  28  30
ATOM     30  O   UNL     1       7.373   6.598  16.418  0.00  0.00    +0.000 OA
ATOM     31  C   UNL     1       7.567   7.543  17.468  0.00  0.00    +0.000 C 
ENDBRANCH  28  30
ENDBRANCH   4  28
BRANCH   5  32
ATOM     32  C   UNL     1       6.007   3.388  15.091  0.00  0.00    +0.000 C 
BRANCH  32  33
ATOM     33  O   UNL     1       5.841   4.161  13.900  0.00  0.00    +0.000 OA
ATOM     34  C   UNL     1       5.998   3.348  12.741  0.00  0.00    +0.000 C 
ENDBRANCH  32  33
ENDBRANCH   5  32
TORSDOF 9
ENDMDL
