MODEL 1
REMARK VINA RESULT:      -8.8      0.000      0.000
REMARK  Name = 
REMARK  6 active torsions:
REMARK  status: ('A' for Active; 'I' for Inactive)
REMARK    1  A    between atoms: C_2  and  C_5
REMARK    2  A    between atoms: N_3  and  O_4
REMARK    3  A    between atoms: C_10  and  N_11
REMARK    4  A    between atoms: N_11  and  C_12
REMARK    5  A    between atoms: C_12  and  C_13
REMARK    6  A    between atoms: C_12  and  C_19
REMARK                            x       y       z     vdW  Elec       q    Type
REMARK                         _______ _______ _______ _____ _____    ______ ____
ROOT
ATOM      1  C   UNL     1      -0.321  10.835  21.650  0.00  0.00    +0.000 A 
ATOM      2  C   UNL     1      -0.270  11.137  20.303  0.00  0.00    +0.000 A 
ATOM      3  C   UNL     1       0.478  10.187  19.532  0.00  0.00    +0.000 A 
ATOM      4  C   UNL     1       0.737  10.124  18.146  0.00  0.00    +0.000 A 
ATOM      5  C   UNL     1       1.541   9.102  17.620  0.00  0.00    +0.000 A 
ATOM      6  C   UNL     1       2.128   8.138  18.435  0.00  0.00    +0.000 A 
ATOM      7  C   UNL     1       1.802   8.148  19.801  0.00  0.00    +0.000 A 
ATOM      8  C   UNL     1       1.003   9.181  20.339  0.00  0.00    +0.000 A 
ATOM      9  S   UNL     1       0.543   9.397  21.984  0.00  0.00    +0.000 S 
ENDROOT
BRANCH   1  11
ATOM     10  O   UNL     1      -1.814  11.093  23.474  0.00  0.00    +0.000 OA
ATOM     11  C   UNL     1      -1.011  11.591  22.680  0.00  0.00    +0.000 C 
ATOM     12  N   UNL     1      -0.736  12.940  22.742  0.00  0.00    +0.000 N 
ATOM     13  H   UNL     1      -0.143  13.427  22.079  0.00  0.00    +0.000 HD
BRANCH  12  14
ATOM     14  O   UNL     1      -1.409  13.708  23.715  0.00  0.00    +0.000 OA
ATOM     15  H   UNL     1      -2.290  13.842  23.304  0.00  0.00    +0.000 HD
ENDBRANCH  12  14
ENDBRANCH   1  11
BRANCH   6  16
ATOM     16  N   UNL     1       2.910   7.093  17.944  0.00  0.00    +0.000 N 
ATOM     17  H   UNL     1       2.481   6.613  17.161  0.00  0.00    +0.000 HD
BRANCH  16  18
ATOM     18  C   UNL     1       3.601   6.139  18.833  0.00  0.00    +0.000 C 
BRANCH  18  19
ATOM     19  C   UNL     1       2.644   4.996  19.188  0.00  0.00    +0.000 A 
ATOM     20  C   UNL     1       2.267   4.731  20.518  0.00  0.00    +0.000 A 
ATOM     21  C   UNL     1       1.396   3.680  20.817  0.00  0.00    +0.000 A 
ATOM     22  C   UNL     1       0.876   2.889  19.796  0.00  0.00    +0.000 A 
ATOM     23  C   UNL     1       1.221   3.150  18.472  0.00  0.00    +0.000 A 
ATOM     24  C   UNL     1       2.101   4.192  18.169  0.00  0.00    +0.000 A 
ENDBRANCH  18  19
BRANCH  18  25
ATOM     25  C   UNL     1       4.921   5.694  18.188  0.00  0.00    +0.000 A 
ATOM     26  C   UNL     1       5.977   5.218  18.990  0.00  0.00    +0.000 A 
ATOM     27  C   UNL     1       7.162   4.744  18.424  0.00  0.00    +0.000 A 
ATOM     28  C   UNL     1       7.310   4.715  17.041  0.00  0.00    +0.000 A 
ATOM     29  C   UNL     1       6.270   5.155  16.226  0.00  0.00    +0.000 A 
ATOM     30  C   UNL     1       5.083   5.630  16.792  0.00  0.00    +0.000 A 
ENDBRANCH  18  25
ENDBRANCH  16  18
ENDBRANCH   6  16
TORSDOF 6
ENDMDL
MODEL 2
REMARK VINA RESULT:      -8.8      1.239      3.634
REMARK  Name = 
REMARK  6 active torsions:
REMARK  status: ('A' for Active; 'I' for Inactive)
REMARK    1  A    between atoms: C_2  and  C_5
REMARK    2  A    between atoms: N_3  and  O_4
REMARK    3  A    between atoms: C_10  and  N_11
REMARK    4  A    between atoms: N_11  and  C_12
REMARK    5  A    between atoms: C_12  and  C_13
REMARK    6  A    between atoms: C_12  and  C_19
REMARK                            x       y       z     vdW  Elec       q    Type
REMARK                         _______ _______ _______ _____ _____    ______ ____
ROOT
ATOM      1  C   UNL     1      -0.991  11.279  21.474  0.00  0.00    +0.000 A 
ATOM      2  C   UNL     1      -0.518  11.247  20.176  0.00  0.00    +0.000 A 
ATOM      3  C   UNL     1       0.317  10.115  19.900  0.00  0.00    +0.000 A 
ATOM      4  C   UNL     1       0.961   9.713  18.710  0.00  0.00    +0.000 A 
ATOM      5  C   UNL     1       1.770   8.567  18.693  0.00  0.00    +0.000 A 
ATOM      6  C   UNL     1       1.987   7.807  19.839  0.00  0.00    +0.000 A 
ATOM      7  C   UNL     1       1.280   8.155  21.001  0.00  0.00    +0.000 A 
ATOM      8  C   UNL     1       0.473   9.314  21.028  0.00  0.00    +0.000 A 
ATOM      9  S   UNL     1      -0.421   9.933  22.362  0.00  0.00    +0.000 S 
ENDROOT
BRANCH   1  11
ATOM     10  O   UNL     1      -2.098  13.376  21.524  0.00  0.00    +0.000 OA
ATOM     11  C   UNL     1      -1.868  12.284  22.050  0.00  0.00    +0.000 C 
ATOM     12  N   UNL     1      -2.453  11.970  23.257  0.00  0.00    +0.000 N 
ATOM     13  H   UNL     1      -2.254  11.124  23.779  0.00  0.00    +0.000 HD
BRANCH  12  14
ATOM     14  O   UNL     1      -3.291  12.935  23.856  0.00  0.00    +0.000 OA
ATOM     15  H   UNL     1      -2.739  13.746  23.814  0.00  0.00    +0.000 HD
ENDBRANCH  12  14
ENDBRANCH   1  11
BRANCH   6  16
ATOM     16  N   UNL     1       2.764   6.647  19.853  0.00  0.00    +0.000 N 
ATOM     17  H   UNL     1       3.561   6.715  20.476  0.00  0.00    +0.000 HD
BRANCH  16  18
ATOM     18  C   UNL     1       3.117   5.920  18.620  0.00  0.00    +0.000 C 
BRANCH  18  19
ATOM     19  C   UNL     1       4.629   6.021  18.389  0.00  0.00    +0.000 A 
ATOM     20  C   UNL     1       5.553   5.377  19.233  0.00  0.00    +0.000 A 
ATOM     21  C   UNL     1       6.927   5.488  19.006  0.00  0.00    +0.000 A 
ATOM     22  C   UNL     1       7.399   6.229  17.926  0.00  0.00    +0.000 A 
ATOM     23  C   UNL     1       6.500   6.856  17.067  0.00  0.00    +0.000 A 
ATOM     24  C   UNL     1       5.125   6.757  17.299  0.00  0.00    +0.000 A 
ENDBRANCH  18  19
BRANCH  18  25
ATOM     25  C   UNL     1       2.574   4.486  18.691  0.00  0.00    +0.000 A 
ATOM     26  C   UNL     1       1.699   4.110  19.729  0.00  0.00    +0.000 A 
ATOM     27  C   UNL     1       1.137   2.833  19.778  0.00  0.00    +0.000 A 
ATOM     28  C   UNL     1       1.420   1.909  18.778  0.00  0.00    +0.000 A 
ATOM     29  C   UNL     1       2.260   2.265  17.726  0.00  0.00    +0.000 A 
ATOM     30  C   UNL     1       2.823   3.544  17.676  0.00  0.00    +0.000 A 
ENDBRANCH  18  25
ENDBRANCH  16  18
ENDBRANCH   6  16
TORSDOF 6
ENDMDL
MODEL 3
REMARK VINA RESULT:      -8.7      1.099      3.782
REMARK  Name = 
REMARK  6 active torsions:
REMARK  status: ('A' for Active; 'I' for Inactive)
REMARK    1  A    between atoms: C_2  and  C_5
REMARK    2  A    between atoms: N_3  and  O_4
REMARK    3  A    between atoms: C_10  and  N_11
REMARK    4  A    between atoms: N_11  and  C_12
REMARK    5  A    between atoms: C_12  and  C_13
REMARK    6  A    between atoms: C_12  and  C_19
REMARK                            x       y       z     vdW  Elec       q    Type
REMARK                         _______ _______ _______ _____ _____    ______ ____
ROOT
ATOM      1  C   UNL     1      -0.863  11.017  21.006  0.00  0.00    +0.000 A 
ATOM      2  C   UNL     1      -0.566  11.039  19.657  0.00  0.00    +0.000 A 
ATOM      3  C   UNL     1       0.361  10.019  19.260  0.00  0.00    +0.000 A 
ATOM      4  C   UNL     1       0.887   9.695  17.991  0.00  0.00    +0.000 A 
ATOM      5  C   UNL     1       1.824   8.661  17.854  0.00  0.00    +0.000 A 
ATOM      6  C   UNL     1       2.285   7.940  18.953  0.00  0.00    +0.000 A 
ATOM      7  C   UNL     1       1.700   8.202  20.202  0.00  0.00    +0.000 A 
ATOM      8  C   UNL     1       0.765   9.250  20.349  0.00  0.00    +0.000 A 
ATOM      9  S   UNL     1      -0.016   9.759  21.796  0.00  0.00    +0.000 S 
ENDROOT
BRANCH   1  11
ATOM     10  O   UNL     1      -2.341  12.864  21.171  0.00  0.00    +0.000 OA
ATOM     11  C   UNL     1      -1.775  11.907  21.705  0.00  0.00    +0.000 C 
ATOM     12  N   UNL     1      -1.991  11.642  23.039  0.00  0.00    +0.000 N 
ATOM     13  H   UNL     1      -1.505  10.918  23.557  0.00  0.00    +0.000 HD
BRANCH  12  14
ATOM     14  O   UNL     1      -2.852  12.502  23.753  0.00  0.00    +0.000 OA
ATOM     15  H   UNL     1      -3.484  11.873  24.162  0.00  0.00    +0.000 HD
ENDBRANCH  12  14
ENDBRANCH   1  11
BRANCH   6  16
ATOM     16  N   UNL     1       3.196   6.888  18.851  0.00  0.00    +0.000 N 
ATOM     17  H   UNL     1       4.156   7.204  18.768  0.00  0.00    +0.000 HD
BRANCH  16  18
ATOM     18  C   UNL     1       2.952   5.713  17.992  0.00  0.00    +0.000 C 
BRANCH  18  19
ATOM     19  C   UNL     1       4.256   5.319  17.292  0.00  0.00    +0.000 A 
ATOM     20  C   UNL     1       4.378   4.117  16.571  0.00  0.00    +0.000 A 
ATOM     21  C   UNL     1       5.579   3.777  15.944  0.00  0.00    +0.000 A 
ATOM     22  C   UNL     1       6.672   4.637  16.014  0.00  0.00    +0.000 A 
ATOM     23  C   UNL     1       6.565   5.841  16.706  0.00  0.00    +0.000 A 
ATOM     24  C   UNL     1       5.369   6.179  17.343  0.00  0.00    +0.000 A 
ENDBRANCH  18  19
BRANCH  18  25
ATOM     25  C   UNL     1       2.303   4.594  18.819  0.00  0.00    +0.000 A 
ATOM     26  C   UNL     1       1.438   3.668  18.205  0.00  0.00    +0.000 A 
ATOM     27  C   UNL     1       0.890   2.601  18.919  0.00  0.00    +0.000 A 
ATOM     28  C   UNL     1       1.212   2.424  20.261  0.00  0.00    +0.000 A 
ATOM     29  C   UNL     1       2.086   3.310  20.885  0.00  0.00    +0.000 A 
ATOM     30  C   UNL     1       2.635   4.379  20.169  0.00  0.00    +0.000 A 
ENDBRANCH  18  25
ENDBRANCH  16  18
ENDBRANCH   6  16
TORSDOF 6
ENDMDL
MODEL 4
REMARK VINA RESULT:      -8.7      1.189      3.581
REMARK  Name = 
REMARK  6 active torsions:
REMARK  status: ('A' for Active; 'I' for Inactive)
REMARK    1  A    between atoms: C_2  and  C_5
REMARK    2  A    between atoms: N_3  and  O_4
REMARK    3  A    between atoms: C_10  and  N_11
REMARK    4  A    between atoms: N_11  and  C_12
REMARK    5  A    between atoms: C_12  and  C_13
REMARK    6  A    between atoms: C_12  and  C_19
REMARK                            x       y       z     vdW  Elec       q    Type
REMARK                         _______ _______ _______ _____ _____    ______ ____
ROOT
ATOM      1  C   UNL     1      -0.742  11.266  21.263  0.00  0.00    +0.000 A 
ATOM      2  C   UNL     1      -0.521  11.262  19.899  0.00  0.00    +0.000 A 
ATOM      3  C   UNL     1       0.347  10.206  19.464  0.00  0.00    +0.000 A 
ATOM      4  C   UNL     1       0.789   9.850  18.172  0.00  0.00    +0.000 A 
ATOM      5  C   UNL     1       1.681   8.782  17.997  0.00  0.00    +0.000 A 
ATOM      6  C   UNL     1       2.179   8.058  19.077  0.00  0.00    +0.000 A 
ATOM      7  C   UNL     1       1.674   8.355  20.353  0.00  0.00    +0.000 A 
ATOM      8  C   UNL     1       0.785   9.436  20.539  0.00  0.00    +0.000 A 
ATOM      9  S   UNL     1       0.106   9.988  22.020  0.00  0.00    +0.000 S 
ENDROOT
BRANCH   1  11
ATOM     10  O   UNL     1      -2.806  12.265  21.865  0.00  0.00    +0.000 OA
ATOM     11  C   UNL     1      -1.582  12.194  22.000  0.00  0.00    +0.000 C 
ATOM     12  N   UNL     1      -0.942  13.033  22.885  0.00  0.00    +0.000 N 
ATOM     13  H   UNL     1       0.066  13.078  22.994  0.00  0.00    +0.000 HD
BRANCH  12  14
ATOM     14  O   UNL     1      -1.726  13.964  23.599  0.00  0.00    +0.000 OA
ATOM     15  H   UNL     1      -2.594  13.896  23.146  0.00  0.00    +0.000 HD
ENDBRANCH  12  14
ENDBRANCH   1  11
BRANCH   6  16
ATOM     16  N   UNL     1       3.046   6.974  18.938  0.00  0.00    +0.000 N 
ATOM     17  H   UNL     1       4.000   7.255  18.741  0.00  0.00    +0.000 HD
BRANCH  16  18
ATOM     18  C   UNL     1       2.684   5.766  18.172  0.00  0.00    +0.000 C 
BRANCH  18  19
ATOM     19  C   UNL     1       3.858   5.368  17.271  0.00  0.00    +0.000 A 
ATOM     20  C   UNL     1       4.649   6.330  16.616  0.00  0.00    +0.000 A 
ATOM     21  C   UNL     1       5.713   5.943  15.796  0.00  0.00    +0.000 A 
ATOM     22  C   UNL     1       6.012   4.594  15.630  0.00  0.00    +0.000 A 
ATOM     23  C   UNL     1       5.253   3.628  16.287  0.00  0.00    +0.000 A 
ATOM     24  C   UNL     1       4.182   4.011  17.098  0.00  0.00    +0.000 A 
ENDBRANCH  18  19
BRANCH  18  25
ATOM     25  C   UNL     1       2.210   4.667  19.132  0.00  0.00    +0.000 A 
ATOM     26  C   UNL     1       2.649   4.657  20.471  0.00  0.00    +0.000 A 
ATOM     27  C   UNL     1       2.179   3.709  21.382  0.00  0.00    +0.000 A 
ATOM     28  C   UNL     1       1.243   2.762  20.980  0.00  0.00    +0.000 A 
ATOM     29  C   UNL     1       0.772   2.768  19.670  0.00  0.00    +0.000 A 
ATOM     30  C   UNL     1       1.242   3.717  18.757  0.00  0.00    +0.000 A 
ENDBRANCH  18  25
ENDBRANCH  16  18
ENDBRANCH   6  16
TORSDOF 6
ENDMDL
MODEL 5
REMARK VINA RESULT:      -8.7      1.398      3.783
REMARK  Name = 
REMARK  6 active torsions:
REMARK  status: ('A' for Active; 'I' for Inactive)
REMARK    1  A    between atoms: C_2  and  C_5
REMARK    2  A    between atoms: N_3  and  O_4
REMARK    3  A    between atoms: C_10  and  N_11
REMARK    4  A    between atoms: N_11  and  C_12
REMARK    5  A    between atoms: C_12  and  C_13
REMARK    6  A    between atoms: C_12  and  C_19
REMARK                            x       y       z     vdW  Elec       q    Type
REMARK                         _______ _______ _______ _____ _____    ______ ____
ROOT
ATOM      1  C   UNL     1      -1.056  11.376  20.282  0.00  0.00    +0.000 A 
ATOM      2  C   UNL     1      -0.604  11.200  18.988  0.00  0.00    +0.000 A 
ATOM      3  C   UNL     1       0.323  10.114  18.851  0.00  0.00    +0.000 A 
ATOM      4  C   UNL     1       0.980   9.602  17.711  0.00  0.00    +0.000 A 
ATOM      5  C   UNL     1       1.886   8.539  17.832  0.00  0.00    +0.000 A 
ATOM      6  C   UNL     1       2.189   7.971  19.068  0.00  0.00    +0.000 A 
ATOM      7  C   UNL     1       1.472   8.421  20.189  0.00  0.00    +0.000 A 
ATOM      8  C   UNL     1       0.568   9.499  20.076  0.00  0.00    +0.000 A 
ATOM      9  S   UNL     1      -0.355  10.225  21.334  0.00  0.00    +0.000 S 
ENDROOT
BRANCH   1  11
ATOM     10  O   UNL     1      -2.179  12.670  21.922  0.00  0.00    +0.000 OA
ATOM     11  C   UNL     1      -2.008  12.375  20.736  0.00  0.00    +0.000 C 
ATOM     12  N   UNL     1      -2.751  13.005  19.761  0.00  0.00    +0.000 N 
ATOM     13  H   UNL     1      -2.713  12.764  18.777  0.00  0.00    +0.000 HD
BRANCH  12  14
ATOM     14  O   UNL     1      -3.702  13.963  20.171  0.00  0.00    +0.000 OA
ATOM     15  H   UNL     1      -3.534  14.026  21.136  0.00  0.00    +0.000 HD
ENDBRANCH  12  14
ENDBRANCH   1  11
BRANCH   6  16
ATOM     16  N   UNL     1       3.064   6.896  19.222  0.00  0.00    +0.000 N 
ATOM     17  H   UNL     1       4.006   7.185  19.460  0.00  0.00    +0.000 HD
BRANCH  16  18
ATOM     18  C   UNL     1       3.082   5.753  18.290  0.00  0.00    +0.000 C 
BRANCH  18  19
ATOM     19  C   UNL     1       4.528   5.465  17.872  0.00  0.00    +0.000 A 
ATOM     20  C   UNL     1       5.559   5.322  18.820  0.00  0.00    +0.000 A 
ATOM     21  C   UNL     1       6.872   5.065  18.415  0.00  0.00    +0.000 A 
ATOM     22  C   UNL     1       7.173   4.931  17.062  0.00  0.00    +0.000 A 
ATOM     23  C   UNL     1       6.162   5.048  16.111  0.00  0.00    +0.000 A 
ATOM     24  C   UNL     1       4.851   5.317  16.511  0.00  0.00    +0.000 A 
ENDBRANCH  18  19
BRANCH  18  25
ATOM     25  C   UNL     1       2.346   4.561  18.917  0.00  0.00    +0.000 A 
ATOM     26  C   UNL     1       2.169   4.492  20.313  0.00  0.00    +0.000 A 
ATOM     27  C   UNL     1       1.443   3.454  20.902  0.00  0.00    +0.000 A 
ATOM     28  C   UNL     1       0.861   2.473  20.107  0.00  0.00    +0.000 A 
ATOM     29  C   UNL     1       0.999   2.534  18.723  0.00  0.00    +0.000 A 
ATOM     30  C   UNL     1       1.725   3.573  18.132  0.00  0.00    +0.000 A 
ENDBRANCH  18  25
ENDBRANCH  16  18
ENDBRANCH   6  16
TORSDOF 6
ENDMDL
MODEL 6
REMARK VINA RESULT:      -8.7      1.506      3.765
REMARK  Name = 
REMARK  6 active torsions:
REMARK  status: ('A' for Active; 'I' for Inactive)
REMARK    1  A    between atoms: C_2  and  C_5
REMARK    2  A    between atoms: N_3  and  O_4
REMARK    3  A    between atoms: C_10  and  N_11
REMARK    4  A    between atoms: N_11  and  C_12
REMARK    5  A    between atoms: C_12  and  C_13
REMARK    6  A    between atoms: C_12  and  C_19
REMARK                            x       y       z     vdW  Elec       q    Type
REMARK                         _______ _______ _______ _____ _____    ______ ____
ROOT
ATOM      1  C   UNL     1      -0.892  11.707  20.217  0.00  0.00    +0.000 A 
ATOM      2  C   UNL     1      -0.401  11.466  18.949  0.00  0.00    +0.000 A 
ATOM      3  C   UNL     1       0.414  10.289  18.866  0.00  0.00    +0.000 A 
ATOM      4  C   UNL     1       1.066   9.695  17.764  0.00  0.00    +0.000 A 
ATOM      5  C   UNL     1       1.851   8.546  17.939  0.00  0.00    +0.000 A 
ATOM      6  C   UNL     1       2.036   7.969  19.193  0.00  0.00    +0.000 A 
ATOM      7  C   UNL     1       1.319   8.506  20.274  0.00  0.00    +0.000 A 
ATOM      8  C   UNL     1       0.537   9.670  20.107  0.00  0.00    +0.000 A 
ATOM      9  S   UNL     1      -0.363  10.506  21.313  0.00  0.00    +0.000 S 
ENDROOT
BRANCH   1  11
ATOM     10  O   UNL     1      -2.557  12.742  21.552  0.00  0.00    +0.000 OA
ATOM     11  C   UNL     1      -1.756  12.805  20.615  0.00  0.00    +0.000 C 
ATOM     12  N   UNL     1      -1.654  13.966  19.880  0.00  0.00    +0.000 N 
ATOM     13  H   UNL     1      -1.071  14.063  19.056  0.00  0.00    +0.000 HD
BRANCH  12  14
ATOM     14  O   UNL     1      -2.497  15.043  20.225  0.00  0.00    +0.000 OA
ATOM     15  H   UNL     1      -3.355  14.773  19.831  0.00  0.00    +0.000 HD
ENDBRANCH  12  14
ENDBRANCH   1  11
BRANCH   6  16
ATOM     16  N   UNL     1       2.788   6.812  19.400  0.00  0.00    +0.000 N 
ATOM     17  H   UNL     1       3.558   6.952  20.044  0.00  0.00    +0.000 HD
BRANCH  16  18
ATOM     18  C   UNL     1       3.181   5.918  18.294  0.00  0.00    +0.000 C 
BRANCH  18  19
ATOM     19  C   UNL     1       4.709   5.884  18.192  0.00  0.00    +0.000 A 
ATOM     20  C   UNL     1       5.516   5.481  19.273  0.00  0.00    +0.000 A 
ATOM     21  C   UNL     1       6.908   5.462  19.158  0.00  0.00    +0.000 A 
ATOM     22  C   UNL     1       7.516   5.829  17.960  0.00  0.00    +0.000 A 
ATOM     23  C   UNL     1       6.734   6.210  16.873  0.00  0.00    +0.000 A 
ATOM     24  C   UNL     1       5.342   6.242  16.988  0.00  0.00    +0.000 A 
ENDBRANCH  18  19
BRANCH  18  25
ATOM     25  C   UNL     1       2.519   4.546  18.477  0.00  0.00    +0.000 A 
ATOM     26  C   UNL     1       2.963   3.438  17.730  0.00  0.00    +0.000 A 
ATOM     27  C   UNL     1       2.424   2.165  17.928  0.00  0.00    +0.000 A 
ATOM     28  C   UNL     1       1.441   1.967  18.892  0.00  0.00    +0.000 A 
ATOM     29  C   UNL     1       1.004   3.041  19.663  0.00  0.00    +0.000 A 
ATOM     30  C   UNL     1       1.544   4.316  19.466  0.00  0.00    +0.000 A 
ENDBRANCH  18  25
ENDBRANCH  16  18
ENDBRANCH   6  16
TORSDOF 6
ENDMDL
MODEL 7
REMARK VINA RESULT:      -8.7      1.532      3.745
REMARK  Name = 
REMARK  6 active torsions:
REMARK  status: ('A' for Active; 'I' for Inactive)
REMARK    1  A    between atoms: C_2  and  C_5
REMARK    2  A    between atoms: N_3  and  O_4
REMARK    3  A    between atoms: C_10  and  N_11
REMARK    4  A    between atoms: N_11  and  C_12
REMARK    5  A    between atoms: C_12  and  C_13
REMARK    6  A    between atoms: C_12  and  C_19
REMARK                            x       y       z     vdW  Elec       q    Type
REMARK                         _______ _______ _______ _____ _____    ______ ____
ROOT
ATOM      1  C   UNL     1      -0.794  11.620  20.400  0.00  0.00    +0.000 A 
ATOM      2  C   UNL     1      -0.235  11.427  19.152  0.00  0.00    +0.000 A 
ATOM      3  C   UNL     1       0.541  10.225  19.053  0.00  0.00    +0.000 A 
ATOM      4  C   UNL     1       1.239   9.666  17.962  0.00  0.00    +0.000 A 
ATOM      5  C   UNL     1       1.970   8.479  18.120  0.00  0.00    +0.000 A 
ATOM      6  C   UNL     1       2.056   7.830  19.349  0.00  0.00    +0.000 A 
ATOM      7  C   UNL     1       1.293   8.337  20.413  0.00  0.00    +0.000 A 
ATOM      8  C   UNL     1       0.565   9.538  20.264  0.00  0.00    +0.000 A 
ATOM      9  S   UNL     1      -0.377  10.343  21.458  0.00  0.00    +0.000 S 
ENDROOT
BRANCH   1  11
ATOM     10  O   UNL     1      -1.537  13.310  21.889  0.00  0.00    +0.000 OA
ATOM     11  C   UNL     1      -1.641  12.729  20.805  0.00  0.00    +0.000 C 
ATOM     12  N   UNL     1      -2.609  13.124  19.908  0.00  0.00    +0.000 N 
ATOM     13  H   UNL     1      -2.796  12.648  19.033  0.00  0.00    +0.000 HD
BRANCH  12  14
ATOM     14  O   UNL     1      -3.464  14.182  20.283  0.00  0.00    +0.000 OA
ATOM     15  H   UNL     1      -3.131  14.925  19.734  0.00  0.00    +0.000 HD
ENDBRANCH  12  14
ENDBRANCH   1  11
BRANCH   6  16
ATOM     16  N   UNL     1       2.751   6.635  19.536  0.00  0.00    +0.000 N 
ATOM     17  H   UNL     1       3.455   6.698  20.264  0.00  0.00    +0.000 HD
BRANCH  16  18
ATOM     18  C   UNL     1       3.232   5.816  18.407  0.00  0.00    +0.000 C 
BRANCH  18  19
ATOM     19  C   UNL     1       4.760   5.909  18.331  0.00  0.00    +0.000 A 
ATOM     20  C   UNL     1       5.586   5.402  19.352  0.00  0.00    +0.000 A 
ATOM     21  C   UNL     1       6.976   5.502  19.263  0.00  0.00    +0.000 A 
ATOM     22  C   UNL     1       7.564   6.094  18.148  0.00  0.00    +0.000 A 
ATOM     23  C   UNL     1       6.764   6.582  17.118  0.00  0.00    +0.000 A 
ATOM     24  C   UNL     1       5.373   6.495  17.209  0.00  0.00    +0.000 A 
ENDBRANCH  18  19
BRANCH  18  25
ATOM     25  C   UNL     1       2.681   4.389  18.532  0.00  0.00    +0.000 A 
ATOM     26  C   UNL     1       1.497   4.146  19.255  0.00  0.00    +0.000 A 
ATOM     27  C   UNL     1       0.937   2.869  19.326  0.00  0.00    +0.000 A 
ATOM     28  C   UNL     1       1.539   1.808  18.657  0.00  0.00    +0.000 A 
ATOM     29  C   UNL     1       2.695   2.027  17.913  0.00  0.00    +0.000 A 
ATOM     30  C   UNL     1       3.256   3.306  17.842  0.00  0.00    +0.000 A 
ENDBRANCH  18  25
ENDBRANCH  16  18
ENDBRANCH   6  16
TORSDOF 6
ENDMDL
MODEL 8
REMARK VINA RESULT:      -8.7      0.821      1.274
REMARK  Name = 
REMARK  6 active torsions:
REMARK  status: ('A' for Active; 'I' for Inactive)
REMARK    1  A    between atoms: C_2  and  C_5
REMARK    2  A    between atoms: N_3  and  O_4
REMARK    3  A    between atoms: C_10  and  N_11
REMARK    4  A    between atoms: N_11  and  C_12
REMARK    5  A    between atoms: C_12  and  C_13
REMARK    6  A    between atoms: C_12  and  C_19
REMARK                            x       y       z     vdW  Elec       q    Type
REMARK                         _______ _______ _______ _____ _____    ______ ____
ROOT
ATOM      1  C   UNL     1      -0.405  11.254  21.741  0.00  0.00    +0.000 A 
ATOM      2  C   UNL     1      -0.297  11.550  20.396  0.00  0.00    +0.000 A 
ATOM      3  C   UNL     1       0.381  10.536  19.640  0.00  0.00    +0.000 A 
ATOM      4  C   UNL     1       0.666  10.451  18.261  0.00  0.00    +0.000 A 
ATOM      5  C   UNL     1       1.386   9.361  17.751  0.00  0.00    +0.000 A 
ATOM      6  C   UNL     1       1.865   8.348  18.578  0.00  0.00    +0.000 A 
ATOM      7  C   UNL     1       1.510   8.387  19.936  0.00  0.00    +0.000 A 
ATOM      8  C   UNL     1       0.794   9.487  20.458  0.00  0.00    +0.000 A 
ATOM      9  S   UNL     1       0.317   9.744  22.092  0.00  0.00    +0.000 S 
ENDROOT
BRANCH   1  11
ATOM     10  O   UNL     1      -0.490  12.997  23.346  0.00  0.00    +0.000 OA
ATOM     11  C   UNL     1      -1.049  12.069  22.756  0.00  0.00    +0.000 C 
ATOM     12  N   UNL     1      -2.356  11.757  23.058  0.00  0.00    +0.000 N 
ATOM     13  H   UNL     1      -2.854  10.965  22.665  0.00  0.00    +0.000 HD
BRANCH  12  14
ATOM     14  O   UNL     1      -3.002  12.514  24.058  0.00  0.00    +0.000 OA
ATOM     15  H   UNL     1      -2.942  13.426  23.702  0.00  0.00    +0.000 HD
ENDBRANCH  12  14
ENDBRANCH   1  11
BRANCH   6  16
ATOM     16  N   UNL     1       2.562   7.236  18.103  0.00  0.00    +0.000 N 
ATOM     17  H   UNL     1       2.062   6.739  17.375  0.00  0.00    +0.000 HD
BRANCH  16  18
ATOM     18  C   UNL     1       3.256   6.296  19.004  0.00  0.00    +0.000 C 
BRANCH  18  19
ATOM     19  C   UNL     1       2.407   5.030  19.162  0.00  0.00    +0.000 A 
ATOM     20  C   UNL     1       1.710   4.747  20.352  0.00  0.00    +0.000 A 
ATOM     21  C   UNL     1       0.946   3.584  20.474  0.00  0.00    +0.000 A 
ATOM     22  C   UNL     1       0.853   2.694  19.407  0.00  0.00    +0.000 A 
ATOM     23  C   UNL     1       1.518   2.967  18.215  0.00  0.00    +0.000 A 
ATOM     24  C   UNL     1       2.293   4.123  18.093  0.00  0.00    +0.000 A 
ENDBRANCH  18  19
BRANCH  18  25
ATOM     25  C   UNL     1       4.684   6.053  18.497  0.00  0.00    +0.000 A 
ATOM     26  C   UNL     1       5.112   6.621  17.282  0.00  0.00    +0.000 A 
ATOM     27  C   UNL     1       6.426   6.472  16.833  0.00  0.00    +0.000 A 
ATOM     28  C   UNL     1       7.348   5.768  17.601  0.00  0.00    +0.000 A 
ATOM     29  C   UNL     1       6.957   5.220  18.820  0.00  0.00    +0.000 A 
ATOM     30  C   UNL     1       5.641   5.369  19.269  0.00  0.00    +0.000 A 
ENDBRANCH  18  25
ENDBRANCH  16  18
ENDBRANCH   6  16
TORSDOF 6
ENDMDL
MODEL 9
REMARK VINA RESULT:      -8.7      1.562      3.913
REMARK  Name = 
REMARK  6 active torsions:
REMARK  status: ('A' for Active; 'I' for Inactive)
REMARK    1  A    between atoms: C_2  and  C_5
REMARK    2  A    between atoms: N_3  and  O_4
REMARK    3  A    between atoms: C_10  and  N_11
REMARK    4  A    between atoms: N_11  and  C_12
REMARK    5  A    between atoms: C_12  and  C_13
REMARK    6  A    between atoms: C_12  and  C_19
REMARK                            x       y       z     vdW  Elec       q    Type
REMARK                         _______ _______ _______ _____ _____    ______ ____
ROOT
ATOM      1  C   UNL     1      -0.603  11.984  20.158  0.00  0.00    +0.000 A 
ATOM      2  C   UNL     1       0.047  11.793  18.954  0.00  0.00    +0.000 A 
ATOM      3  C   UNL     1       0.755  10.548  18.879  0.00  0.00    +0.000 A 
ATOM      4  C   UNL     1       1.508   9.978  17.830  0.00  0.00    +0.000 A 
ATOM      5  C   UNL     1       2.151   8.744  18.007  0.00  0.00    +0.000 A 
ATOM      6  C   UNL     1       2.094   8.055  19.216  0.00  0.00    +0.000 A 
ATOM      7  C   UNL     1       1.276   8.578  20.231  0.00  0.00    +0.000 A 
ATOM      8  C   UNL     1       0.636   9.825  20.063  0.00  0.00    +0.000 A 
ATOM      9  S   UNL     1      -0.354  10.653  21.202  0.00  0.00    +0.000 S 
ENDROOT
BRANCH   1  11
ATOM     10  O   UNL     1      -1.142  13.887  21.467  0.00  0.00    +0.000 OA
ATOM     11  C   UNL     1      -1.413  13.131  20.530  0.00  0.00    +0.000 C 
ATOM     12  N   UNL     1      -2.546  13.354  19.778  0.00  0.00    +0.000 N 
ATOM     13  H   UNL     1      -2.867  12.735  19.042  0.00  0.00    +0.000 HD
BRANCH  12  14
ATOM     14  O   UNL     1      -3.368  14.446  20.130  0.00  0.00    +0.000 OA
ATOM     15  H   UNL     1      -3.830  14.111  20.928  0.00  0.00    +0.000 HD
ENDBRANCH  12  14
ENDBRANCH   1  11
BRANCH   6  16
ATOM     16  N   UNL     1       2.698   6.814  19.419  0.00  0.00    +0.000 N 
ATOM     17  H   UNL     1       3.411   6.837  20.140  0.00  0.00    +0.000 HD
BRANCH  16  18
ATOM     18  C   UNL     1       3.105   5.942  18.301  0.00  0.00    +0.000 C 
BRANCH  18  19
ATOM     19  C   UNL     1       4.633   5.931  18.199  0.00  0.00    +0.000 A 
ATOM     20  C   UNL     1       5.305   6.463  17.082  0.00  0.00    +0.000 A 
ATOM     21  C   UNL     1       6.701   6.438  17.009  0.00  0.00    +0.000 A 
ATOM     22  C   UNL     1       7.446   5.898  18.054  0.00  0.00    +0.000 A 
ATOM     23  C   UNL     1       6.799   5.388  19.177  0.00  0.00    +0.000 A 
ATOM     24  C   UNL     1       5.404   5.400  19.248  0.00  0.00    +0.000 A 
ENDBRANCH  18  19
BRANCH  18  25
ATOM     25  C   UNL     1       2.462   4.557  18.466  0.00  0.00    +0.000 A 
ATOM     26  C   UNL     1       2.827   3.500  17.610  0.00  0.00    +0.000 A 
ATOM     27  C   UNL     1       2.309   2.214  17.782  0.00  0.00    +0.000 A 
ATOM     28  C   UNL     1       1.430   1.953  18.828  0.00  0.00    +0.000 A 
ATOM     29  C   UNL     1       1.075   2.975  19.704  0.00  0.00    +0.000 A 
ATOM     30  C   UNL     1       1.594   4.262  19.532  0.00  0.00    +0.000 A 
ENDBRANCH  18  25
ENDBRANCH  16  18
ENDBRANCH   6  16
TORSDOF 6
ENDMDL
