MODEL 1
REMARK VINA RESULT:      -8.1      0.000      0.000
REMARK  Name = 
REMARK  8 active torsions:
REMARK  status: ('A' for Active; 'I' for Inactive)
REMARK    1  A    between atoms: C_1  and  N_2
REMARK    2  A    between atoms: N_2  and  C_3
REMARK    3  A    between atoms: C_4  and  C_6
REMARK    4  A    between atoms: C_9  and  C_10
REMARK    5  A    between atoms: C_10  and  O_11
REMARK    6  A    between atoms: O_11  and  C_12
REMARK    7  A    between atoms: C_12  and  C_13
REMARK    8  A    between atoms: C_13  and  C_15
REMARK                            x       y       z     vdW  Elec       q    Type
REMARK                         _______ _______ _______ _____ _____    ______ ____
ROOT
ATOM      1  O   UNL     1       7.520   7.933  17.255  0.00  0.00    +0.000 OA
ENDROOT
BRANCH   1   2
ATOM      2  C   UNL     1       8.345   8.146  18.398  0.00  0.00    +0.000 C 
BRANCH   2   6
ATOM      3  C   UNL     1       9.195  12.384  18.544  0.00  0.00    +0.000 A 
ATOM      4  C   UNL     1       8.379  11.842  17.550  0.00  0.00    +0.000 A 
ATOM      5  C   UNL     1       8.064  10.486  17.547  0.00  0.00    +0.000 A 
ATOM      6  C   UNL     1       8.643   9.620  18.477  0.00  0.00    +0.000 A 
ATOM      7  C   UNL     1       9.515  10.146  19.440  0.00  0.00    +0.000 A 
ATOM      8  C   UNL     1       9.786  11.521  19.479  0.00  0.00    +0.000 A 
BRANCH   3  12
ATOM      9  C   UNL     1      10.911  15.766  18.056  0.00  0.00    +0.000 C 
ATOM     10  N   UNL     1      10.638  14.349  17.911  0.00  0.00    +0.000 N 
ATOM     11  C   UNL     1      11.424  13.622  16.921  0.00  0.00    +0.000 C 
ATOM     12  C   UNL     1       9.526  13.844  18.594  0.00  0.00    +0.000 C 
ATOM     13  O   UNL     1       8.772  14.574  19.248  0.00  0.00    +0.000 OA
ENDBRANCH   3  12
ENDBRANCH   2   6
ENDBRANCH   1   2
BRANCH   1  14
ATOM     14  C   UNL     1       7.167   6.569  17.089  0.00  0.00    +0.000 C 
BRANCH  14  15
ATOM     15  C   UNL     1       5.751   6.411  16.516  0.00  0.00    +0.000 C 
ATOM     16  O   UNL     1       5.443   6.875  15.415  0.00  0.00    +0.000 OA
BRANCH  15  17
ATOM     17  C   UNL     1       4.713   5.657  17.372  0.00  0.00    +0.000 C 
ATOM     18  C   UNL     1       4.309   4.326  16.698  0.00  0.00    +0.000 C 
ATOM     19  C   UNL     1       3.294   3.564  17.567  0.00  0.00    +0.000 C 
ATOM     20  C   UNL     1       3.922   3.261  18.937  0.00  0.00    +0.000 C 
ATOM     21  C   UNL     1       4.311   4.571  19.638  0.00  0.00    +0.000 C 
ATOM     22  C   UNL     1       3.058   5.440  19.827  0.00  0.00    +0.000 C 
ATOM     23  C   UNL     1       2.427   5.756  18.463  0.00  0.00    +0.000 C 
ATOM     24  C   UNL     1       2.045   4.440  17.764  0.00  0.00    +0.000 C 
ATOM     25  C   UNL     1       3.446   6.514  17.592  0.00  0.00    +0.000 C 
ATOM     26  C   UNL     1       5.321   5.330  18.763  0.00  0.00    +0.000 C 
ENDBRANCH  15  17
ENDBRANCH  14  15
ENDBRANCH   1  14
TORSDOF 6
ENDMDL
MODEL 2
REMARK VINA RESULT:      -7.9      5.129      6.904
REMARK  Name = 
REMARK  8 active torsions:
REMARK  status: ('A' for Active; 'I' for Inactive)
REMARK    1  A    between atoms: C_1  and  N_2
REMARK    2  A    between atoms: N_2  and  C_3
REMARK    3  A    between atoms: C_4  and  C_6
REMARK    4  A    between atoms: C_9  and  C_10
REMARK    5  A    between atoms: C_10  and  O_11
REMARK    6  A    between atoms: O_11  and  C_12
REMARK    7  A    between atoms: C_12  and  C_13
REMARK    8  A    between atoms: C_13  and  C_15
REMARK                            x       y       z     vdW  Elec       q    Type
REMARK                         _______ _______ _______ _____ _____    ______ ____
ROOT
ATOM      1  O   UNL     1       1.677   5.417  19.683  0.00  0.00    +0.000 OA
ENDROOT
BRANCH   1   2
ATOM      2  C   UNL     1       2.574   6.455  20.071  0.00  0.00    +0.000 C 
BRANCH   2   6
ATOM      3  C   UNL     1       0.649  10.215  19.146  0.00  0.00    +0.000 A 
ATOM      4  C   UNL     1       0.540   9.638  20.411  0.00  0.00    +0.000 A 
ATOM      5  C   UNL     1       1.213   8.457  20.717  0.00  0.00    +0.000 A 
ATOM      6  C   UNL     1       1.925   7.770  19.731  0.00  0.00    +0.000 A 
ATOM      7  C   UNL     1       1.985   8.310  18.439  0.00  0.00    +0.000 A 
ATOM      8  C   UNL     1       1.357   9.529  18.147  0.00  0.00    +0.000 A 
BRANCH   3  12
ATOM      9  C   UNL     1      -0.166  13.926  18.714  0.00  0.00    +0.000 C 
ATOM     10  N   UNL     1       0.589  12.731  19.037  0.00  0.00    +0.000 N 
ATOM     11  C   UNL     1       1.991  12.912  19.398  0.00  0.00    +0.000 C 
ATOM     12  C   UNL     1      -0.034  11.501  18.796  0.00  0.00    +0.000 C 
ATOM     13  O   UNL     1      -1.155  11.426  18.279  0.00  0.00    +0.000 OA
ENDBRANCH   3  12
ENDBRANCH   2   6
ENDBRANCH   1   2
BRANCH   1  14
ATOM     14  C   UNL     1       2.110   4.735  18.518  0.00  0.00    +0.000 C 
BRANCH  14  15
ATOM     15  C   UNL     1       3.503   4.116  18.702  0.00  0.00    +0.000 C 
ATOM     16  O   UNL     1       3.704   3.198  19.502  0.00  0.00    +0.000 OA
BRANCH  15  17
ATOM     17  C   UNL     1       4.658   4.691  17.857  0.00  0.00    +0.000 C 
ATOM     18  C   UNL     1       5.876   5.025  18.748  0.00  0.00    +0.000 C 
ATOM     19  C   UNL     1       7.035   5.573  17.899  0.00  0.00    +0.000 C 
ATOM     20  C   UNL     1       7.449   4.519  16.860  0.00  0.00    +0.000 C 
ATOM     21  C   UNL     1       6.261   4.187  15.946  0.00  0.00    +0.000 C 
ATOM     22  C   UNL     1       5.798   5.464  15.227  0.00  0.00    +0.000 C 
ATOM     23  C   UNL     1       5.374   6.522  16.256  0.00  0.00    +0.000 C 
ATOM     24  C   UNL     1       6.568   6.846  17.171  0.00  0.00    +0.000 C 
ATOM     25  C   UNL     1       4.217   5.970  17.108  0.00  0.00    +0.000 C 
ATOM     26  C   UNL     1       5.104   3.645  16.800  0.00  0.00    +0.000 C 
ENDBRANCH  15  17
ENDBRANCH  14  15
ENDBRANCH   1  14
TORSDOF 6
ENDMDL
MODEL 3
REMARK VINA RESULT:      -7.8      6.121      7.911
REMARK  Name = 
REMARK  8 active torsions:
REMARK  status: ('A' for Active; 'I' for Inactive)
REMARK    1  A    between atoms: C_1  and  N_2
REMARK    2  A    between atoms: N_2  and  C_3
REMARK    3  A    between atoms: C_4  and  C_6
REMARK    4  A    between atoms: C_9  and  C_10
REMARK    5  A    between atoms: C_10  and  O_11
REMARK    6  A    between atoms: O_11  and  C_12
REMARK    7  A    between atoms: C_12  and  C_13
REMARK    8  A    between atoms: C_13  and  C_15
REMARK                            x       y       z     vdW  Elec       q    Type
REMARK                         _______ _______ _______ _____ _____    ______ ____
ROOT
ATOM      1  O   UNL     1       1.727   8.372  17.787  0.00  0.00    +0.000 OA
ENDROOT
BRANCH   1   2
ATOM      2  C   UNL     1       2.057   9.759  17.830  0.00  0.00    +0.000 C 
BRANCH   2   6
ATOM      3  C   UNL     1      -0.982  11.783  20.148  0.00  0.00    +0.000 A 
ATOM      4  C   UNL     1       0.361  12.154  20.232  0.00  0.00    +0.000 A 
ATOM      5  C   UNL     1       1.322  11.536  19.437  0.00  0.00    +0.000 A 
ATOM      6  C   UNL     1       0.980  10.459  18.617  0.00  0.00    +0.000 A 
ATOM      7  C   UNL     1      -0.356  10.037  18.575  0.00  0.00    +0.000 A 
ATOM      8  C   UNL     1      -1.335  10.699  19.330  0.00  0.00    +0.000 A 
BRANCH   3  12
ATOM      9  C   UNL     1      -3.368  12.725  22.984  0.00  0.00    +0.000 C 
ATOM     10  N   UNL     1      -2.287  12.057  22.285  0.00  0.00    +0.000 N 
ATOM     11  C   UNL     1      -1.430  11.180  23.075  0.00  0.00    +0.000 C 
ATOM     12  C   UNL     1      -2.045  12.452  20.964  0.00  0.00    +0.000 C 
ATOM     13  O   UNL     1      -2.681  13.367  20.427  0.00  0.00    +0.000 OA
ENDBRANCH   3  12
ENDBRANCH   2   6
ENDBRANCH   1   2
BRANCH   1  14
ATOM     14  C   UNL     1       2.325   7.640  18.844  0.00  0.00    +0.000 C 
BRANCH  14  15
ATOM     15  C   UNL     1       3.088   6.411  18.328  0.00  0.00    +0.000 C 
ATOM     16  O   UNL     1       3.994   6.513  17.496  0.00  0.00    +0.000 OA
BRANCH  15  17
ATOM     17  C   UNL     1       2.674   5.031  18.878  0.00  0.00    +0.000 C 
ATOM     18  C   UNL     1       3.917   4.143  19.122  0.00  0.00    +0.000 C 
ATOM     19  C   UNL     1       3.502   2.778  19.695  0.00  0.00    +0.000 C 
ATOM     20  C   UNL     1       2.767   2.986  21.029  0.00  0.00    +0.000 C 
ATOM     21  C   UNL     1       1.514   3.847  20.808  0.00  0.00    +0.000 C 
ATOM     22  C   UNL     1       0.581   3.144  19.810  0.00  0.00    +0.000 C 
ATOM     23  C   UNL     1       1.304   2.937  18.471  0.00  0.00    +0.000 C 
ATOM     24  C   UNL     1       2.560   2.079  18.700  0.00  0.00    +0.000 C 
ATOM     25  C   UNL     1       1.722   4.305  17.901  0.00  0.00    +0.000 C 
ATOM     26  C   UNL     1       1.933   5.207  20.231  0.00  0.00    +0.000 C 
ENDBRANCH  15  17
ENDBRANCH  14  15
ENDBRANCH   1  14
TORSDOF 6
ENDMDL
MODEL 4
REMARK VINA RESULT:      -7.8      3.284      9.629
REMARK  Name = 
REMARK  8 active torsions:
REMARK  status: ('A' for Active; 'I' for Inactive)
REMARK    1  A    between atoms: C_1  and  N_2
REMARK    2  A    between atoms: N_2  and  C_3
REMARK    3  A    between atoms: C_4  and  C_6
REMARK    4  A    between atoms: C_9  and  C_10
REMARK    5  A    between atoms: C_10  and  O_11
REMARK    6  A    between atoms: O_11  and  C_12
REMARK    7  A    between atoms: C_12  and  C_13
REMARK    8  A    between atoms: C_13  and  C_15
REMARK                            x       y       z     vdW  Elec       q    Type
REMARK                         _______ _______ _______ _____ _____    ______ ____
ROOT
ATOM      1  O   UNL     1       7.432   8.555  17.591  0.00  0.00    +0.000 OA
ENDROOT
BRANCH   1   2
ATOM      2  C   UNL     1       7.660   7.152  17.472  0.00  0.00    +0.000 C 
BRANCH   2   6
ATOM      3  C   UNL     1       3.939   5.199  18.493  0.00  0.00    +0.000 A 
ATOM      4  C   UNL     1       4.011   6.118  17.445  0.00  0.00    +0.000 A 
ATOM      5  C   UNL     1       5.226   6.696  17.086  0.00  0.00    +0.000 A 
ATOM      6  C   UNL     1       6.379   6.450  17.835  0.00  0.00    +0.000 A 
ATOM      7  C   UNL     1       6.301   5.577  18.930  0.00  0.00    +0.000 A 
ATOM      8  C   UNL     1       5.091   4.949  19.254  0.00  0.00    +0.000 A 
BRANCH   3  12
ATOM      9  C   UNL     1       1.059   2.703  18.806  0.00  0.00    +0.000 C 
ATOM     10  N   UNL     1       2.346   3.249  18.421  0.00  0.00    +0.000 N 
ATOM     11  C   UNL     1       3.278   2.343  17.758  0.00  0.00    +0.000 C 
ATOM     12  C   UNL     1       2.655   4.535  18.881  0.00  0.00    +0.000 C 
ATOM     13  O   UNL     1       1.894   5.162  19.628  0.00  0.00    +0.000 OA
ENDBRANCH   3  12
ENDBRANCH   2   6
ENDBRANCH   1   2
BRANCH   1  14
ATOM     14  C   UNL     1       8.510   9.226  18.222  0.00  0.00    +0.000 C 
BRANCH  14  15
ATOM     15  C   UNL     1       8.478  10.737  17.953  0.00  0.00    +0.000 C 
ATOM     16  O   UNL     1       7.606  11.251  17.247  0.00  0.00    +0.000 OA
BRANCH  15  17
ATOM     17  C   UNL     1       9.588  11.600  18.589  0.00  0.00    +0.000 C 
ATOM     18  C   UNL     1      10.887  11.525  17.754  0.00  0.00    +0.000 C 
ATOM     19  C   UNL     1      11.982  12.407  18.375  0.00  0.00    +0.000 C 
ATOM     20  C   UNL     1      11.499  13.866  18.418  0.00  0.00    +0.000 C 
ATOM     21  C   UNL     1      10.221  13.971  19.263  0.00  0.00    +0.000 C 
ATOM     22  C   UNL     1      10.511  13.483  20.691  0.00  0.00    +0.000 C 
ATOM     23  C   UNL     1      10.987  12.023  20.660  0.00  0.00    +0.000 C 
ATOM     24  C   UNL     1      12.265  11.924  19.808  0.00  0.00    +0.000 C 
ATOM     25  C   UNL     1       9.891  11.142  20.033  0.00  0.00    +0.000 C 
ATOM     26  C   UNL     1       9.132  13.084  18.641  0.00  0.00    +0.000 C 
ENDBRANCH  15  17
ENDBRANCH  14  15
ENDBRANCH   1  14
TORSDOF 6
ENDMDL
MODEL 5
REMARK VINA RESULT:      -7.8      6.130      7.949
REMARK  Name = 
REMARK  8 active torsions:
REMARK  status: ('A' for Active; 'I' for Inactive)
REMARK    1  A    between atoms: C_1  and  N_2
REMARK    2  A    between atoms: N_2  and  C_3
REMARK    3  A    between atoms: C_4  and  C_6
REMARK    4  A    between atoms: C_9  and  C_10
REMARK    5  A    between atoms: C_10  and  O_11
REMARK    6  A    between atoms: O_11  and  C_12
REMARK    7  A    between atoms: C_12  and  C_13
REMARK    8  A    between atoms: C_13  and  C_15
REMARK                            x       y       z     vdW  Elec       q    Type
REMARK                         _______ _______ _______ _____ _____    ______ ____
ROOT
ATOM      1  O   UNL     1       1.686   8.303  17.904  0.00  0.00    +0.000 OA
ENDROOT
BRANCH   1   2
ATOM      2  C   UNL     1       2.019   9.688  17.842  0.00  0.00    +0.000 C 
BRANCH   2   6
ATOM      3  C   UNL     1      -0.951  11.826  20.147  0.00  0.00    +0.000 A 
ATOM      4  C   UNL     1      -1.301  10.742  19.341  0.00  0.00    +0.000 A 
ATOM      5  C   UNL     1      -0.330  10.024  18.650  0.00  0.00    +0.000 A 
ATOM      6  C   UNL     1       1.004  10.438  18.664  0.00  0.00    +0.000 A 
ATOM      7  C   UNL     1       1.355  11.565  19.419  0.00  0.00    +0.000 A 
ATOM      8  C   UNL     1       0.386  12.253  20.163  0.00  0.00    +0.000 A 
BRANCH   3  12
ATOM      9  C   UNL     1      -3.319  13.006  22.908  0.00  0.00    +0.000 C 
ATOM     10  N   UNL     1      -2.287  12.234  22.243  0.00  0.00    +0.000 N 
ATOM     11  C   UNL     1      -1.543  11.282  23.061  0.00  0.00    +0.000 C 
ATOM     12  C   UNL     1      -1.968  12.597  20.930  0.00  0.00    +0.000 C 
ATOM     13  O   UNL     1      -2.497  13.567  20.373  0.00  0.00    +0.000 OA
ENDBRANCH   3  12
ENDBRANCH   2   6
ENDBRANCH   1   2
BRANCH   1  14
ATOM     14  C   UNL     1       2.424   7.614  18.900  0.00  0.00    +0.000 C 
BRANCH  14  15
ATOM     15  C   UNL     1       3.114   6.363  18.337  0.00  0.00    +0.000 C 
ATOM     16  O   UNL     1       3.964   6.437  17.445  0.00  0.00    +0.000 OA
BRANCH  15  17
ATOM     17  C   UNL     1       2.698   4.995  18.917  0.00  0.00    +0.000 C 
ATOM     18  C   UNL     1       1.854   5.177  20.199  0.00  0.00    +0.000 C 
ATOM     19  C   UNL     1       1.419   3.812  20.759  0.00  0.00    +0.000 C 
ATOM     20  C   UNL     1       0.578   3.073  19.706  0.00  0.00    +0.000 C 
ATOM     21  C   UNL     1       1.404   2.859  18.430  0.00  0.00    +0.000 C 
ATOM     22  C   UNL     1       2.654   2.030  18.764  0.00  0.00    +0.000 C 
ATOM     23  C   UNL     1       3.507   2.764  19.810  0.00  0.00    +0.000 C 
ATOM     24  C   UNL     1       2.671   2.980  21.084  0.00  0.00    +0.000 C 
ATOM     25  C   UNL     1       3.937   4.132  19.249  0.00  0.00    +0.000 C 
ATOM     26  C   UNL     1       1.840   4.225  17.877  0.00  0.00    +0.000 C 
ENDBRANCH  15  17
ENDBRANCH  14  15
ENDBRANCH   1  14
TORSDOF 6
ENDMDL
MODEL 6
REMARK VINA RESULT:      -7.8      5.715      7.053
REMARK  Name = 
REMARK  8 active torsions:
REMARK  status: ('A' for Active; 'I' for Inactive)
REMARK    1  A    between atoms: C_1  and  N_2
REMARK    2  A    between atoms: N_2  and  C_3
REMARK    3  A    between atoms: C_4  and  C_6
REMARK    4  A    between atoms: C_9  and  C_10
REMARK    5  A    between atoms: C_10  and  O_11
REMARK    6  A    between atoms: O_11  and  C_12
REMARK    7  A    between atoms: C_12  and  C_13
REMARK    8  A    between atoms: C_13  and  C_15
REMARK                            x       y       z     vdW  Elec       q    Type
REMARK                         _______ _______ _______ _____ _____    ______ ____
ROOT
ATOM      1  O   UNL     1       4.171   7.425  17.768  0.00  0.00    +0.000 OA
ENDROOT
BRANCH   1   2
ATOM      2  C   UNL     1       2.856   7.646  17.262  0.00  0.00    +0.000 C 
BRANCH   2   6
ATOM      3  C   UNL     1       0.801  10.288  20.000  0.00  0.00    +0.000 A 
ATOM      4  C   UNL     1       1.003   8.942  20.306  0.00  0.00    +0.000 A 
ATOM      5  C   UNL     1       1.717   8.114  19.445  0.00  0.00    +0.000 A 
ATOM      6  C   UNL     1       2.156   8.587  18.206  0.00  0.00    +0.000 A 
ATOM      7  C   UNL     1       1.901   9.922  17.862  0.00  0.00    +0.000 A 
ATOM      8  C   UNL     1       1.233  10.772  18.756  0.00  0.00    +0.000 A 
BRANCH   3  12
ATOM      9  C   UNL     1      -1.742  12.746  21.455  0.00  0.00    +0.000 C 
ATOM     10  N   UNL     1      -1.124  11.828  20.517  0.00  0.00    +0.000 N 
ATOM     11  C   UNL     1      -1.892  11.483  19.326  0.00  0.00    +0.000 C 
ATOM     12  C   UNL     1       0.066  11.212  20.922  0.00  0.00    +0.000 C 
ATOM     13  O   UNL     1       0.546  11.393  22.047  0.00  0.00    +0.000 OA
ENDBRANCH   3  12
ENDBRANCH   2   6
ENDBRANCH   1   2
BRANCH   1  14
ATOM     14  C   UNL     1       4.610   6.091  17.569  0.00  0.00    +0.000 C 
BRANCH  14  15
ATOM     15  C   UNL     1       4.782   5.342  18.898  0.00  0.00    +0.000 C 
ATOM     16  O   UNL     1       5.804   5.458  19.579  0.00  0.00    +0.000 OA
BRANCH  15  17
ATOM     17  C   UNL     1       3.632   4.419  19.353  0.00  0.00    +0.000 C 
ATOM     18  C   UNL     1       2.878   5.035  20.554  0.00  0.00    +0.000 C 
ATOM     19  C   UNL     1       1.716   4.126  20.987  0.00  0.00    +0.000 C 
ATOM     20  C   UNL     1       0.736   3.956  19.815  0.00  0.00    +0.000 C 
ATOM     21  C   UNL     1       1.457   3.323  18.616  0.00  0.00    +0.000 C 
ATOM     22  C   UNL     1       2.016   1.951  19.022  0.00  0.00    +0.000 C 
ATOM     23  C   UNL     1       3.003   2.110  20.188  0.00  0.00    +0.000 C 
ATOM     24  C   UNL     1       2.276   2.749  21.384  0.00  0.00    +0.000 C 
ATOM     25  C   UNL     1       4.163   3.024  19.753  0.00  0.00    +0.000 C 
ATOM     26  C   UNL     1       2.620   4.233  18.190  0.00  0.00    +0.000 C 
ENDBRANCH  15  17
ENDBRANCH  14  15
ENDBRANCH   1  14
TORSDOF 6
ENDMDL
MODEL 7
REMARK VINA RESULT:      -7.8      6.851      8.834
REMARK  Name = 
REMARK  8 active torsions:
REMARK  status: ('A' for Active; 'I' for Inactive)
REMARK    1  A    between atoms: C_1  and  N_2
REMARK    2  A    between atoms: N_2  and  C_3
REMARK    3  A    between atoms: C_4  and  C_6
REMARK    4  A    between atoms: C_9  and  C_10
REMARK    5  A    between atoms: C_10  and  O_11
REMARK    6  A    between atoms: O_11  and  C_12
REMARK    7  A    between atoms: C_12  and  C_13
REMARK    8  A    between atoms: C_13  and  C_15
REMARK                            x       y       z     vdW  Elec       q    Type
REMARK                         _______ _______ _______ _____ _____    ______ ____
ROOT
ATOM      1  O   UNL     1       0.900   8.130  20.693  0.00  0.00    +0.000 OA
ENDROOT
BRANCH   1   2
ATOM      2  C   UNL     1       0.862   9.441  20.134  0.00  0.00    +0.000 C 
BRANCH   2   6
ATOM      3  C   UNL     1      -1.841  11.753  22.594  0.00  0.00    +0.000 A 
ATOM      4  C   UNL     1      -1.111  10.688  23.123  0.00  0.00    +0.000 A 
ATOM      5  C   UNL     1      -0.199   9.988  22.338  0.00  0.00    +0.000 A 
ATOM      6  C   UNL     1      -0.074  10.268  20.975  0.00  0.00    +0.000 A 
ATOM      7  C   UNL     1      -0.851  11.295  20.420  0.00  0.00    +0.000 A 
ATOM      8  C   UNL     1      -1.725  12.039  21.225  0.00  0.00    +0.000 A 
BRANCH   3  12
ATOM      9  C   UNL     1      -3.404  14.448  24.811  0.00  0.00    +0.000 C 
ATOM     10  N   UNL     1      -2.424  13.772  23.983  0.00  0.00    +0.000 N 
ATOM     11  C   UNL     1      -1.212  14.513  23.653  0.00  0.00    +0.000 C 
ATOM     12  C   UNL     1      -2.804  12.547  23.422  0.00  0.00    +0.000 C 
ATOM     13  O   UNL     1      -3.940  12.082  23.573  0.00  0.00    +0.000 OA
ENDBRANCH   3  12
ENDBRANCH   2   6
ENDBRANCH   1   2
BRANCH   1  14
ATOM     14  C   UNL     1       2.165   7.510  20.534  0.00  0.00    +0.000 C 
BRANCH  14  15
ATOM     15  C   UNL     1       2.239   6.682  19.244  0.00  0.00    +0.000 C 
ATOM     16  O   UNL     1       2.306   7.217  18.134  0.00  0.00    +0.000 OA
BRANCH  15  17
ATOM     17  C   UNL     1       2.212   5.145  19.377  0.00  0.00    +0.000 C 
ATOM     18  C   UNL     1       1.214   4.707  20.474  0.00  0.00    +0.000 C 
ATOM     19  C   UNL     1       1.171   3.174  20.586  0.00  0.00    +0.000 C 
ATOM     20  C   UNL     1       0.730   2.577  19.240  0.00  0.00    +0.000 C 
ATOM     21  C   UNL     1       1.720   2.979  18.137  0.00  0.00    +0.000 C 
ATOM     22  C   UNL     1       3.122   2.460  18.495  0.00  0.00    +0.000 C 
ATOM     23  C   UNL     1       3.576   3.058  19.835  0.00  0.00    +0.000 C 
ATOM     24  C   UNL     1       2.577   2.655  20.935  0.00  0.00    +0.000 C 
ATOM     25  C   UNL     1       3.614   4.593  19.723  0.00  0.00    +0.000 C 
ATOM     26  C   UNL     1       1.763   4.511  18.033  0.00  0.00    +0.000 C 
ENDBRANCH  15  17
ENDBRANCH  14  15
ENDBRANCH   1  14
TORSDOF 6
ENDMDL
MODEL 8
REMARK VINA RESULT:      -7.8      5.696      6.754
REMARK  Name = 
REMARK  8 active torsions:
REMARK  status: ('A' for Active; 'I' for Inactive)
REMARK    1  A    between atoms: C_1  and  N_2
REMARK    2  A    between atoms: N_2  and  C_3
REMARK    3  A    between atoms: C_4  and  C_6
REMARK    4  A    between atoms: C_9  and  C_10
REMARK    5  A    between atoms: C_10  and  O_11
REMARK    6  A    between atoms: O_11  and  C_12
REMARK    7  A    between atoms: C_12  and  C_13
REMARK    8  A    between atoms: C_13  and  C_15
REMARK                            x       y       z     vdW  Elec       q    Type
REMARK                         _______ _______ _______ _____ _____    ______ ____
ROOT
ATOM      1  O   UNL     1       3.704   7.635  17.847  0.00  0.00    +0.000 OA
ENDROOT
BRANCH   1   2
ATOM      2  C   UNL     1       2.290   7.727  17.681  0.00  0.00    +0.000 C 
BRANCH   2   6
ATOM      3  C   UNL     1       0.870  11.093  19.996  0.00  0.00    +0.000 A 
ATOM      4  C   UNL     1       0.805   9.792  20.494  0.00  0.00    +0.000 A 
ATOM      5  C   UNL     1       1.319   8.722  19.766  0.00  0.00    +0.000 A 
ATOM      6  C   UNL     1       1.815   8.915  18.475  0.00  0.00    +0.000 A 
ATOM      7  C   UNL     1       1.825  10.211  17.940  0.00  0.00    +0.000 A 
ATOM      8  C   UNL     1       1.361  11.297  18.697  0.00  0.00    +0.000 A 
BRANCH   3  12
ATOM      9  C   UNL     1      -1.335  13.926  21.312  0.00  0.00    +0.000 C 
ATOM     10  N   UNL     1      -0.939  12.754  20.555  0.00  0.00    +0.000 N 
ATOM     11  C   UNL     1      -1.981  12.077  19.792  0.00  0.00    +0.000 C 
ATOM     12  C   UNL     1       0.356  12.268  20.769  0.00  0.00    +0.000 C 
ATOM     13  O   UNL     1       1.115  12.774  21.604  0.00  0.00    +0.000 OA
ENDBRANCH   3  12
ENDBRANCH   2   6
ENDBRANCH   1   2
BRANCH   1  14
ATOM     14  C   UNL     1       4.218   6.386  17.415  0.00  0.00    +0.000 C 
BRANCH  14  15
ATOM     15  C   UNL     1       4.608   5.488  18.597  0.00  0.00    +0.000 C 
ATOM     16  O   UNL     1       5.739   5.521  19.090  0.00  0.00    +0.000 OA
BRANCH  15  17
ATOM     17  C   UNL     1       3.537   4.524  19.147  0.00  0.00    +0.000 C 
ATOM     18  C   UNL     1       2.486   4.195  18.062  0.00  0.00    +0.000 C 
ATOM     19  C   UNL     1       1.434   3.214  18.606  0.00  0.00    +0.000 C 
ATOM     20  C   UNL     1       2.128   1.913  19.041  0.00  0.00    +0.000 C 
ATOM     21  C   UNL     1       3.161   2.210  20.137  0.00  0.00    +0.000 C 
ATOM     22  C   UNL     1       2.456   2.846  21.345  0.00  0.00    +0.000 C 
ATOM     23  C   UNL     1       1.766   4.152  20.923  0.00  0.00    +0.000 C 
ATOM     24  C   UNL     1       0.736   3.847  19.821  0.00  0.00    +0.000 C 
ATOM     25  C   UNL     1       2.820   5.131  20.374  0.00  0.00    +0.000 C 
ATOM     26  C   UNL     1       4.206   3.195  19.591  0.00  0.00    +0.000 C 
ENDBRANCH  15  17
ENDBRANCH  14  15
ENDBRANCH   1  14
TORSDOF 6
ENDMDL
MODEL 9
REMARK VINA RESULT:      -7.8      0.972      1.956
REMARK  Name = 
REMARK  8 active torsions:
REMARK  status: ('A' for Active; 'I' for Inactive)
REMARK    1  A    between atoms: C_1  and  N_2
REMARK    2  A    between atoms: N_2  and  C_3
REMARK    3  A    between atoms: C_4  and  C_6
REMARK    4  A    between atoms: C_9  and  C_10
REMARK    5  A    between atoms: C_10  and  O_11
REMARK    6  A    between atoms: O_11  and  C_12
REMARK    7  A    between atoms: C_12  and  C_13
REMARK    8  A    between atoms: C_13  and  C_15
REMARK                            x       y       z     vdW  Elec       q    Type
REMARK                         _______ _______ _______ _____ _____    ______ ____
ROOT
ATOM      1  O   UNL     1       7.404   8.122  17.668  0.00  0.00    +0.000 OA
ENDROOT
BRANCH   1   2
ATOM      2  C   UNL     1       8.517   8.315  18.539  0.00  0.00    +0.000 C 
BRANCH   2   6
ATOM      3  C   UNL     1       9.266  12.571  18.705  0.00  0.00    +0.000 A 
ATOM      4  C   UNL     1       8.544  12.003  17.655  0.00  0.00    +0.000 A 
ATOM      5  C   UNL     1       8.258  10.641  17.641  0.00  0.00    +0.000 A 
ATOM      6  C   UNL     1       8.777   9.796  18.625  0.00  0.00    +0.000 A 
ATOM      7  C   UNL     1       9.558  10.349  19.649  0.00  0.00    +0.000 A 
ATOM      8  C   UNL     1       9.797  11.730  19.695  0.00  0.00    +0.000 A 
BRANCH   3  12
ATOM      9  C   UNL     1       9.004  16.334  19.333  0.00  0.00    +0.000 C 
ATOM     10  N   UNL     1       8.660  14.926  19.363  0.00  0.00    +0.000 N 
ATOM     11  C   UNL     1       7.512  14.543  20.178  0.00  0.00    +0.000 C 
ATOM     12  C   UNL     1       9.562  14.038  18.765  0.00  0.00    +0.000 C 
ATOM     13  O   UNL     1      10.633  14.422  18.280  0.00  0.00    +0.000 OA
ENDBRANCH   3  12
ENDBRANCH   2   6
ENDBRANCH   1   2
BRANCH   1  14
ATOM     14  C   UNL     1       7.226   6.761  17.312  0.00  0.00    +0.000 C 
BRANCH  14  15
ATOM     15  C   UNL     1       5.854   6.514  16.667  0.00  0.00    +0.000 C 
ATOM     16  O   UNL     1       5.577   6.952  15.547  0.00  0.00    +0.000 OA
BRANCH  15  17
ATOM     17  C   UNL     1       4.819   5.704  17.474  0.00  0.00    +0.000 C 
ATOM     18  C   UNL     1       5.398   5.288  18.846  0.00  0.00    +0.000 C 
ATOM     19  C   UNL     1       4.354   4.504  19.659  0.00  0.00    +0.000 C 
ATOM     20  C   UNL     1       3.116   5.386  19.884  0.00  0.00    +0.000 C 
ATOM     21  C   UNL     1       2.508   5.793  18.534  0.00  0.00    +0.000 C 
ATOM     22  C   UNL     1       2.106   4.532  17.754  0.00  0.00    +0.000 C 
ATOM     23  C   UNL     1       3.338   3.647  17.516  0.00  0.00    +0.000 C 
ATOM     24  C   UNL     1       3.945   3.247  18.872  0.00  0.00    +0.000 C 
ATOM     25  C   UNL     1       4.384   4.435  16.706  0.00  0.00    +0.000 C 
ATOM     26  C   UNL     1       3.556   6.572  17.725  0.00  0.00    +0.000 C 
ENDBRANCH  15  17
ENDBRANCH  14  15
ENDBRANCH   1  14
TORSDOF 6
ENDMDL
