MODEL 1
REMARK VINA RESULT:      -7.6      0.000      0.000
REMARK  Name = 
REMARK  9 active torsions:
REMARK  status: ('A' for Active; 'I' for Inactive)
REMARK    1  A    between atoms: C_1  and  O_2
REMARK    2  A    between atoms: O_2  and  C_3
REMARK    3  A    between atoms: C_6  and  C_7
REMARK    4  A    between atoms: C_7  and  N_8
REMARK    5  A    between atoms: C_12  and  C_13
REMARK    6  A    between atoms: C_13  and  C_14
REMARK    7  A    between atoms: C_19  and  C_20
REMARK    8  A    between atoms: C_26  and  O_27
REMARK    9  A    between atoms: O_27  and  C_28
REMARK                            x       y       z     vdW  Elec       q    Type
REMARK                         _______ _______ _______ _____ _____    ______ ____
ROOT
ATOM      1  N   UNL     1       5.983   4.986  16.789  0.00  0.00    +0.000 N 
ATOM      2  C   UNL     1       5.913   6.094  16.001  0.00  0.00    +0.000 C 
ATOM      3  O   UNL     1       5.094   6.336  15.130  0.00  0.00    +0.000 OA
ATOM      4  N   UNL     1       6.925   6.943  16.361  0.00  0.00    +0.000 N 
ATOM      5  C   UNL     1       7.775   6.395  17.390  0.00  0.00    +0.000 C 
ATOM      6  C   UNL     1       7.026   5.091  17.669  0.00  0.00    +0.000 C 
ATOM      7  O   UNL     1       7.329   4.290  18.542  0.00  0.00    +0.000 OA
ATOM      8  H   UNL     1       7.137   7.787  15.839  0.00  0.00    +0.000 HD
ENDROOT
BRANCH   1   9
ATOM      9  C   UNL     1       5.069   3.872  16.694  0.00  0.00    +0.000 C 
BRANCH   9  13
ATOM     10  C   UNL     1       2.422   3.815  20.130  0.00  0.00    +0.000 A 
ATOM     11  C   UNL     1       3.116   2.658  19.736  0.00  0.00    +0.000 A 
ATOM     12  C   UNL     1       3.969   2.669  18.629  0.00  0.00    +0.000 A 
ATOM     13  C   UNL     1       4.111   3.825  17.860  0.00  0.00    +0.000 A 
ATOM     14  C   UNL     1       3.370   4.958  18.217  0.00  0.00    +0.000 A 
ATOM     15  C   UNL     1       2.521   4.969  19.338  0.00  0.00    +0.000 A 
BRANCH  10  17
ATOM     16  C   UNL     1       1.483   2.570  21.915  0.00  0.00    +0.000 C 
ATOM     17  O   UNL     1       1.641   3.828  21.257  0.00  0.00    +0.000 OA
ENDBRANCH  10  17
BRANCH  15  18
ATOM     18  O   UNL     1       1.911   6.184  19.494  0.00  0.00    +0.000 OA
ATOM     19  C   UNL     1       2.523   7.348  18.966  0.00  0.00    +0.000 C 
ENDBRANCH  15  18
ENDBRANCH   9  13
ENDBRANCH   1   9
BRANCH   5  20
ATOM     20  C   UNL     1       7.877   7.296  18.616  0.00  0.00    +0.000 C 
BRANCH  20  21
ATOM     21  C   UNL     1       8.284   8.698  18.192  0.00  0.00    +0.000 C 
ATOM     22  O   UNL     1       7.867   9.180  17.142  0.00  0.00    +0.000 OA
ATOM     23  N   UNL     1       9.141   9.313  19.079  0.00  0.00    +0.000 N 
ATOM     24  C   UNL     1       9.579  10.612  18.957  0.00  0.00    +0.000 A 
ATOM     25  N   UNL     1      10.667  11.044  19.554  0.00  0.00    +0.000 NA
ATOM     26  C   UNL     1      10.888  12.373  19.216  0.00  0.00    +0.000 A 
ATOM     27  C   UNL     1      12.124  13.051  19.684  0.00  0.00    +0.000 C 
ATOM     28  C   UNL     1       9.897  12.948  18.443  0.00  0.00    +0.000 A 
ATOM     29  S   UNL     1       8.688  11.792  18.101  0.00  0.00    +0.000 S 
ATOM     30  H   UNL     1       9.678   8.762  19.735  0.00  0.00    +0.000 HD
ENDBRANCH  20  21
ENDBRANCH   5  20
TORSDOF 6
ENDMDL
MODEL 2
REMARK VINA RESULT:      -7.5      1.412      2.029
REMARK  Name = 
REMARK  9 active torsions:
REMARK  status: ('A' for Active; 'I' for Inactive)
REMARK    1  A    between atoms: C_1  and  O_2
REMARK    2  A    between atoms: O_2  and  C_3
REMARK    3  A    between atoms: C_6  and  C_7
REMARK    4  A    between atoms: C_7  and  N_8
REMARK    5  A    between atoms: C_12  and  C_13
REMARK    6  A    between atoms: C_13  and  C_14
REMARK    7  A    between atoms: C_19  and  C_20
REMARK    8  A    between atoms: C_26  and  O_27
REMARK    9  A    between atoms: O_27  and  C_28
REMARK                            x       y       z     vdW  Elec       q    Type
REMARK                         _______ _______ _______ _____ _____    ______ ____
ROOT
ATOM      1  N   UNL     1       6.194   5.374  17.239  0.00  0.00    +0.000 N 
ATOM      2  C   UNL     1       7.322   5.140  17.964  0.00  0.00    +0.000 C 
ATOM      3  O   UNL     1       7.847   4.064  18.196  0.00  0.00    +0.000 OA
ATOM      4  N   UNL     1       7.816   6.343  18.393  0.00  0.00    +0.000 N 
ATOM      5  C   UNL     1       6.980   7.458  18.015  0.00  0.00    +0.000 C 
ATOM      6  C   UNL     1       5.935   6.717  17.179  0.00  0.00    +0.000 C 
ATOM      7  O   UNL     1       5.027   7.259  16.565  0.00  0.00    +0.000 OA
ATOM      8  H   UNL     1       8.594   6.411  19.041  0.00  0.00    +0.000 HD
ENDROOT
BRANCH   1   9
ATOM      9  C   UNL     1       5.403   4.334  16.625  0.00  0.00    +0.000 C 
BRANCH   9  13
ATOM     10  C   UNL     1       2.268   3.035  19.327  0.00  0.00    +0.000 A 
ATOM     11  C   UNL     1       3.000   2.103  18.571  0.00  0.00    +0.000 A 
ATOM     12  C   UNL     1       4.009   2.515  17.698  0.00  0.00    +0.000 A 
ATOM     13  C   UNL     1       4.280   3.873  17.523  0.00  0.00    +0.000 A 
ATOM     14  C   UNL     1       3.507   4.802  18.229  0.00  0.00    +0.000 A 
ATOM     15  C   UNL     1       2.499   4.404  19.124  0.00  0.00    +0.000 A 
BRANCH  10  17
ATOM     16  C   UNL     1       1.747   2.631  21.603  0.00  0.00    +0.000 C 
ATOM     17  O   UNL     1       1.326   2.631  20.239  0.00  0.00    +0.000 OA
ENDBRANCH  10  17
BRANCH  15  18
ATOM     18  O   UNL     1       1.887   5.483  19.703  0.00  0.00    +0.000 OA
ATOM     19  C   UNL     1       2.470   6.768  19.580  0.00  0.00    +0.000 C 
ENDBRANCH  15  18
ENDBRANCH   9  13
ENDBRANCH   1   9
BRANCH   5  20
ATOM     20  C   UNL     1       7.733   8.520  17.222  0.00  0.00    +0.000 C 
BRANCH  20  21
ATOM     21  C   UNL     1       8.481   9.440  18.173  0.00  0.00    +0.000 C 
ATOM     22  O   UNL     1       8.996   8.995  19.196  0.00  0.00    +0.000 OA
ATOM     23  N   UNL     1       8.491  10.757  17.770  0.00  0.00    +0.000 N 
ATOM     24  C   UNL     1       9.176  11.760  18.419  0.00  0.00    +0.000 A 
ATOM     25  N   UNL     1       8.866  13.028  18.272  0.00  0.00    +0.000 NA
ATOM     26  C   UNL     1       9.689  13.805  19.078  0.00  0.00    +0.000 A 
ATOM     27  C   UNL     1       9.456  15.269  19.166  0.00  0.00    +0.000 C 
ATOM     28  C   UNL     1      10.677  13.105  19.745  0.00  0.00    +0.000 A 
ATOM     29  S   UNL     1      10.547  11.441  19.387  0.00  0.00    +0.000 S 
ATOM     30  H   UNL     1       7.802  11.095  17.112  0.00  0.00    +0.000 HD
ENDBRANCH  20  21
ENDBRANCH   5  20
TORSDOF 6
ENDMDL
MODEL 3
REMARK VINA RESULT:      -7.4      1.768      2.601
REMARK  Name = 
REMARK  9 active torsions:
REMARK  status: ('A' for Active; 'I' for Inactive)
REMARK    1  A    between atoms: C_1  and  O_2
REMARK    2  A    between atoms: O_2  and  C_3
REMARK    3  A    between atoms: C_6  and  C_7
REMARK    4  A    between atoms: C_7  and  N_8
REMARK    5  A    between atoms: C_12  and  C_13
REMARK    6  A    between atoms: C_13  and  C_14
REMARK    7  A    between atoms: C_19  and  C_20
REMARK    8  A    between atoms: C_26  and  O_27
REMARK    9  A    between atoms: O_27  and  C_28
REMARK                            x       y       z     vdW  Elec       q    Type
REMARK                         _______ _______ _______ _____ _____    ______ ____
ROOT
ATOM      1  N   UNL     1       6.016   5.418  16.917  0.00  0.00    +0.000 N 
ATOM      2  C   UNL     1       7.337   5.121  17.063  0.00  0.00    +0.000 C 
ATOM      3  O   UNL     1       7.904   4.085  16.758  0.00  0.00    +0.000 OA
ATOM      4  N   UNL     1       7.965   6.211  17.603  0.00  0.00    +0.000 N 
ATOM      5  C   UNL     1       7.055   7.288  17.907  0.00  0.00    +0.000 C 
ATOM      6  C   UNL     1       5.762   6.691  17.350  0.00  0.00    +0.000 C 
ATOM      7  O   UNL     1       4.689   7.276  17.309  0.00  0.00    +0.000 OA
ATOM      8  H   UNL     1       8.936   6.186  17.901  0.00  0.00    +0.000 HD
ENDROOT
BRANCH   1   9
ATOM      9  C   UNL     1       5.041   4.502  16.373  0.00  0.00    +0.000 C 
BRANCH   9  13
ATOM     10  C   UNL     1       2.509   2.705  19.402  0.00  0.00    +0.000 A 
ATOM     11  C   UNL     1       1.952   3.293  18.254  0.00  0.00    +0.000 A 
ATOM     12  C   UNL     1       2.761   3.875  17.275  0.00  0.00    +0.000 A 
ATOM     13  C   UNL     1       4.146   3.926  17.444  0.00  0.00    +0.000 A 
ATOM     14  C   UNL     1       4.693   3.397  18.619  0.00  0.00    +0.000 A 
ATOM     15  C   UNL     1       3.895   2.792  19.605  0.00  0.00    +0.000 A 
BRANCH  10  17
ATOM     16  C   UNL     1       1.410   2.828  21.498  0.00  0.00    +0.000 C 
ATOM     17  O   UNL     1       1.723   2.070  20.330  0.00  0.00    +0.000 OA
ENDBRANCH  10  17
BRANCH  15  18
ATOM     18  O   UNL     1       4.648   2.341  20.655  0.00  0.00    +0.000 OA
ATOM     19  C   UNL     1       5.116   1.003  20.657  0.00  0.00    +0.000 C 
ENDBRANCH  15  18
ENDBRANCH   9  13
ENDBRANCH   1   9
BRANCH   5  20
ATOM     20  C   UNL     1       7.444   8.600  17.233  0.00  0.00    +0.000 C 
BRANCH  20  21
ATOM     21  C   UNL     1       8.341   9.408  18.158  0.00  0.00    +0.000 C 
ATOM     22  O   UNL     1       8.929   8.865  19.089  0.00  0.00    +0.000 OA
ATOM     23  N   UNL     1       8.390  10.748  17.841  0.00  0.00    +0.000 N 
ATOM     24  C   UNL     1       9.198  11.663  18.477  0.00  0.00    +0.000 A 
ATOM     25  N   UNL     1       8.954  12.954  18.446  0.00  0.00    +0.000 NA
ATOM     26  C   UNL     1       9.901  13.626  19.208  0.00  0.00    +0.000 A 
ATOM     27  C   UNL     1       9.769  15.091  19.415  0.00  0.00    +0.000 C 
ATOM     28  C   UNL     1      10.907  12.828  19.720  0.00  0.00    +0.000 A 
ATOM     29  S   UNL     1      10.638  11.202  19.272  0.00  0.00    +0.000 S 
ATOM     30  H   UNL     1       7.660  11.168  17.283  0.00  0.00    +0.000 HD
ENDBRANCH  20  21
ENDBRANCH   5  20
TORSDOF 6
ENDMDL
MODEL 4
REMARK VINA RESULT:      -7.3      4.230      7.646
REMARK  Name = 
REMARK  9 active torsions:
REMARK  status: ('A' for Active; 'I' for Inactive)
REMARK    1  A    between atoms: C_1  and  O_2
REMARK    2  A    between atoms: O_2  and  C_3
REMARK    3  A    between atoms: C_6  and  C_7
REMARK    4  A    between atoms: C_7  and  N_8
REMARK    5  A    between atoms: C_12  and  C_13
REMARK    6  A    between atoms: C_13  and  C_14
REMARK    7  A    between atoms: C_19  and  C_20
REMARK    8  A    between atoms: C_26  and  O_27
REMARK    9  A    between atoms: O_27  and  C_28
REMARK                            x       y       z     vdW  Elec       q    Type
REMARK                         _______ _______ _______ _____ _____    ______ ____
ROOT
ATOM      1  N   UNL     1       3.664   4.295  18.312  0.00  0.00    +0.000 N 
ATOM      2  C   UNL     1       4.371   4.580  19.440  0.00  0.00    +0.000 C 
ATOM      3  O   UNL     1       5.430   4.093  19.798  0.00  0.00    +0.000 OA
ATOM      4  N   UNL     1       3.700   5.553  20.133  0.00  0.00    +0.000 N 
ATOM      5  C   UNL     1       2.452   5.924  19.512  0.00  0.00    +0.000 C 
ATOM      6  C   UNL     1       2.536   5.068  18.246  0.00  0.00    +0.000 C 
ATOM      7  O   UNL     1       1.717   5.090  17.338  0.00  0.00    +0.000 OA
ATOM      8  H   UNL     1       3.983   5.851  21.062  0.00  0.00    +0.000 HD
ENDROOT
BRANCH   1   9
ATOM      9  C   UNL     1       4.072   3.314  17.335  0.00  0.00    +0.000 C 
BRANCH   9  13
ATOM     10  C   UNL     1       7.005   4.987  14.612  0.00  0.00    +0.000 A 
ATOM     11  C   UNL     1       6.212   3.892  14.232  0.00  0.00    +0.000 A 
ATOM     12  C   UNL     1       5.267   3.346  15.104  0.00  0.00    +0.000 A 
ATOM     13  C   UNL     1       5.125   3.854  16.397  0.00  0.00    +0.000 A 
ATOM     14  C   UNL     1       5.961   4.904  16.795  0.00  0.00    +0.000 A 
ATOM     15  C   UNL     1       6.905   5.475  15.924  0.00  0.00    +0.000 A 
BRANCH  10  17
ATOM     16  C   UNL     1       7.753   5.167  12.371  0.00  0.00    +0.000 C 
ATOM     17  O   UNL     1       7.883   5.571  13.735  0.00  0.00    +0.000 OA
ENDBRANCH  10  17
BRANCH  15  18
ATOM     18  O   UNL     1       7.597   6.489  16.529  0.00  0.00    +0.000 OA
ATOM     19  C   UNL     1       6.991   7.220  17.581  0.00  0.00    +0.000 C 
ENDBRANCH  15  18
ENDBRANCH   9  13
ENDBRANCH   1   9
BRANCH   5  20
ATOM     20  C   UNL     1       2.358   7.416  19.215  0.00  0.00    +0.000 C 
BRANCH  20  21
ATOM     21  C   UNL     1       1.436   8.084  20.222  0.00  0.00    +0.000 C 
ATOM     22  O   UNL     1       1.160   7.528  21.283  0.00  0.00    +0.000 OA
ATOM     23  N   UNL     1       0.967   9.312  19.808  0.00  0.00    +0.000 N 
ATOM     24  C   UNL     1       0.189  10.144  20.581  0.00  0.00    +0.000 A 
ATOM     25  N   UNL     1      -0.560  11.089  20.059  0.00  0.00    +0.000 NA
ATOM     26  C   UNL     1      -1.266  11.735  21.065  0.00  0.00    +0.000 A 
ATOM     27  C   UNL     1      -2.267  12.772  20.708  0.00  0.00    +0.000 C 
ATOM     28  C   UNL     1      -0.954  11.324  22.348  0.00  0.00    +0.000 A 
ATOM     29  S   UNL     1       0.214  10.080  22.288  0.00  0.00    +0.000 S 
ATOM     30  H   UNL     1       0.974   9.557  18.827  0.00  0.00    +0.000 HD
ENDBRANCH  20  21
ENDBRANCH   5  20
TORSDOF 6
ENDMDL
MODEL 5
REMARK VINA RESULT:      -7.3      7.375     10.684
REMARK  Name = 
REMARK  9 active torsions:
REMARK  status: ('A' for Active; 'I' for Inactive)
REMARK    1  A    between atoms: C_1  and  O_2
REMARK    2  A    between atoms: O_2  and  C_3
REMARK    3  A    between atoms: C_6  and  C_7
REMARK    4  A    between atoms: C_7  and  N_8
REMARK    5  A    between atoms: C_12  and  C_13
REMARK    6  A    between atoms: C_13  and  C_14
REMARK    7  A    between atoms: C_19  and  C_20
REMARK    8  A    between atoms: C_26  and  O_27
REMARK    9  A    between atoms: O_27  and  C_28
REMARK                            x       y       z     vdW  Elec       q    Type
REMARK                         _______ _______ _______ _____ _____    ______ ____
ROOT
ATOM      1  N   UNL     1      -0.794  11.322  21.349  0.00  0.00    +0.000 N 
ATOM      2  C   UNL     1      -0.701  10.912  20.055  0.00  0.00    +0.000 C 
ATOM      3  O   UNL     1      -0.967  11.552  19.051  0.00  0.00    +0.000 OA
ATOM      4  N   UNL     1      -0.224   9.628  20.043  0.00  0.00    +0.000 N 
ATOM      5  C   UNL     1      -0.032   9.090  21.368  0.00  0.00    +0.000 C 
ATOM      6  C   UNL     1      -0.381  10.329  22.196  0.00  0.00    +0.000 C 
ATOM      7  O   UNL     1      -0.295  10.396  23.414  0.00  0.00    +0.000 OA
ATOM      8  H   UNL     1      -0.174   9.075  19.193  0.00  0.00    +0.000 HD
ENDROOT
BRANCH   1   9
ATOM      9  C   UNL     1      -1.259  12.630  21.747  0.00  0.00    +0.000 C 
BRANCH   9  13
ATOM     10  C   UNL     1      -5.512  12.799  22.583  0.00  0.00    +0.000 A 
ATOM     11  C   UNL     1      -4.575  12.722  23.627  0.00  0.00    +0.000 A 
ATOM     12  C   UNL     1      -3.204  12.665  23.366  0.00  0.00    +0.000 A 
ATOM     13  C   UNL     1      -2.738  12.636  22.050  0.00  0.00    +0.000 A 
ATOM     14  C   UNL     1      -3.676  12.648  21.011  0.00  0.00    +0.000 A 
ATOM     15  C   UNL     1      -5.058  12.722  21.257  0.00  0.00    +0.000 A 
BRANCH  10  17
ATOM     16  C   UNL     1      -7.206  13.151  24.202  0.00  0.00    +0.000 C 
ATOM     17  O   UNL     1      -6.854  12.927  22.837  0.00  0.00    +0.000 OA
ENDBRANCH  10  17
BRANCH  15  18
ATOM     18  O   UNL     1      -5.776  12.730  20.092  0.00  0.00    +0.000 OA
ATOM     19  C   UNL     1      -6.405  11.540  19.649  0.00  0.00    +0.000 C 
ENDBRANCH  15  18
ENDBRANCH   9  13
ENDBRANCH   1   9
BRANCH   5  20
ATOM     20  C   UNL     1       1.391   8.597  21.606  0.00  0.00    +0.000 C 
BRANCH  20  21
ATOM     21  C   UNL     1       1.825   7.703  20.456  0.00  0.00    +0.000 C 
ATOM     22  O   UNL     1       2.116   8.186  19.364  0.00  0.00    +0.000 OA
ATOM     23  N   UNL     1       1.833   6.362  20.775  0.00  0.00    +0.000 N 
ATOM     24  C   UNL     1       2.270   5.369  19.928  0.00  0.00    +0.000 A 
ATOM     25  N   UNL     1       1.912   4.113  20.077  0.00  0.00    +0.000 NA
ATOM     26  C   UNL     1       2.464   3.347  19.058  0.00  0.00    +0.000 A 
ATOM     27  C   UNL     1       2.109   1.909  18.950  0.00  0.00    +0.000 C 
ATOM     28  C   UNL     1       3.315   4.033  18.212  0.00  0.00    +0.000 A 
ATOM     29  S   UNL     1       3.395   5.673  18.678  0.00  0.00    +0.000 S 
ATOM     30  H   UNL     1       1.295   6.021  21.559  0.00  0.00    +0.000 HD
ENDBRANCH  20  21
ENDBRANCH   5  20
TORSDOF 6
ENDMDL
MODEL 6
REMARK VINA RESULT:      -7.3      1.869      2.940
REMARK  Name = 
REMARK  9 active torsions:
REMARK  status: ('A' for Active; 'I' for Inactive)
REMARK    1  A    between atoms: C_1  and  O_2
REMARK    2  A    between atoms: O_2  and  C_3
REMARK    3  A    between atoms: C_6  and  C_7
REMARK    4  A    between atoms: C_7  and  N_8
REMARK    5  A    between atoms: C_12  and  C_13
REMARK    6  A    between atoms: C_13  and  C_14
REMARK    7  A    between atoms: C_19  and  C_20
REMARK    8  A    between atoms: C_26  and  O_27
REMARK    9  A    between atoms: O_27  and  C_28
REMARK                            x       y       z     vdW  Elec       q    Type
REMARK                         _______ _______ _______ _____ _____    ______ ____
ROOT
ATOM      1  N   UNL     1       6.884   5.812  17.635  0.00  0.00    +0.000 N 
ATOM      2  C   UNL     1       7.844   5.756  18.598  0.00  0.00    +0.000 C 
ATOM      3  O   UNL     1       8.337   4.759  19.099  0.00  0.00    +0.000 OA
ATOM      4  N   UNL     1       8.206   7.036  18.920  0.00  0.00    +0.000 N 
ATOM      5  C   UNL     1       7.438   8.031  18.211  0.00  0.00    +0.000 C 
ATOM      6  C   UNL     1       6.608   7.113  17.311  0.00  0.00    +0.000 C 
ATOM      7  O   UNL     1       5.832   7.503  16.450  0.00  0.00    +0.000 OA
ATOM      8  H   UNL     1       8.831   7.246  19.692  0.00  0.00    +0.000 HD
ENDROOT
BRANCH   1   9
ATOM      9  C   UNL     1       6.264   4.648  17.048  0.00  0.00    +0.000 C 
BRANCH   9  13
ATOM     10  C   UNL     1       2.593   3.434  19.015  0.00  0.00    +0.000 A 
ATOM     11  C   UNL     1       2.560   4.189  17.831  0.00  0.00    +0.000 A 
ATOM     12  C   UNL     1       3.738   4.585  17.193  0.00  0.00    +0.000 A 
ATOM     13  C   UNL     1       4.980   4.276  17.751  0.00  0.00    +0.000 A 
ATOM     14  C   UNL     1       5.010   3.578  18.964  0.00  0.00    +0.000 A 
ATOM     15  C   UNL     1       3.834   3.158  19.610  0.00  0.00    +0.000 A 
BRANCH  10  17
ATOM     16  C   UNL     1       0.460   2.447  18.716  0.00  0.00    +0.000 C 
ATOM     17  O   UNL     1       1.440   2.982  19.605  0.00  0.00    +0.000 OA
ENDBRANCH  10  17
BRANCH  15  18
ATOM     18  O   UNL     1       4.111   2.488  20.771  0.00  0.00    +0.000 OA
ATOM     19  C   UNL     1       5.044   1.422  20.759  0.00  0.00    +0.000 C 
ENDBRANCH  15  18
ENDBRANCH   9  13
ENDBRANCH   1   9
BRANCH   5  20
ATOM     20  C   UNL     1       8.311   9.004  17.425  0.00  0.00    +0.000 C 
BRANCH  20  21
ATOM     21  C   UNL     1       8.928  10.021  18.371  0.00  0.00    +0.000 C 
ATOM     22  O   UNL     1       9.165   9.724  19.540  0.00  0.00    +0.000 OA
ATOM     23  N   UNL     1       9.159  11.246  17.785  0.00  0.00    +0.000 N 
ATOM     24  C   UNL     1       9.788  12.297  18.413  0.00  0.00    +0.000 A 
ATOM     25  N   UNL     1       9.648  13.540  18.010  0.00  0.00    +0.000 NA
ATOM     26  C   UNL     1      10.356  14.387  18.853  0.00  0.00    +0.000 A 
ATOM     27  C   UNL     1      10.260  15.857  18.664  0.00  0.00    +0.000 C 
ATOM     28  C   UNL     1      11.101  13.747  19.826  0.00  0.00    +0.000 A 
ATOM     29  S   UNL     1      10.880  12.059  19.705  0.00  0.00    +0.000 S 
ATOM     30  H   UNL     1       8.664  11.511  16.945  0.00  0.00    +0.000 HD
ENDBRANCH  20  21
ENDBRANCH   5  20
TORSDOF 6
ENDMDL
MODEL 7
REMARK VINA RESULT:      -7.2      1.933      2.740
REMARK  Name = 
REMARK  9 active torsions:
REMARK  status: ('A' for Active; 'I' for Inactive)
REMARK    1  A    between atoms: C_1  and  O_2
REMARK    2  A    between atoms: O_2  and  C_3
REMARK    3  A    between atoms: C_6  and  C_7
REMARK    4  A    between atoms: C_7  and  N_8
REMARK    5  A    between atoms: C_12  and  C_13
REMARK    6  A    between atoms: C_13  and  C_14
REMARK    7  A    between atoms: C_19  and  C_20
REMARK    8  A    between atoms: C_26  and  O_27
REMARK    9  A    between atoms: O_27  and  C_28
REMARK                            x       y       z     vdW  Elec       q    Type
REMARK                         _______ _______ _______ _____ _____    ______ ____
ROOT
ATOM      1  N   UNL     1       4.959   5.701  17.432  0.00  0.00    +0.000 N 
ATOM      2  C   UNL     1       5.510   6.462  16.447  0.00  0.00    +0.000 C 
ATOM      3  O   UNL     1       4.936   7.008  15.520  0.00  0.00    +0.000 OA
ATOM      4  N   UNL     1       6.858   6.549  16.674  0.00  0.00    +0.000 N 
ATOM      5  C   UNL     1       7.284   5.776  17.815  0.00  0.00    +0.000 C 
ATOM      6  C   UNL     1       5.923   5.285  18.311  0.00  0.00    +0.000 C 
ATOM      7  O   UNL     1       5.750   4.630  19.329  0.00  0.00    +0.000 OA
ATOM      8  H   UNL     1       7.494   6.977  16.009  0.00  0.00    +0.000 HD
ENDROOT
BRANCH   1   9
ATOM      9  C   UNL     1       3.550   5.396  17.520  0.00  0.00    +0.000 C 
BRANCH   9  13
ATOM     10  C   UNL     1       1.547   8.345  19.991  0.00  0.00    +0.000 A 
ATOM     11  C   UNL     1       1.900   7.089  20.512  0.00  0.00    +0.000 A 
ATOM     12  C   UNL     1       2.544   6.133  19.722  0.00  0.00    +0.000 A 
ATOM     13  C   UNL     1       2.807   6.394  18.375  0.00  0.00    +0.000 A 
ATOM     14  C   UNL     1       2.397   7.621  17.843  0.00  0.00    +0.000 A 
ATOM     15  C   UNL     1       1.764   8.600  18.628  0.00  0.00    +0.000 A 
BRANCH  10  17
ATOM     16  C   UNL     1       0.101   8.838  21.803  0.00  0.00    +0.000 C 
ATOM     17  O   UNL     1       0.981   9.311  20.783  0.00  0.00    +0.000 OA
ENDBRANCH  10  17
BRANCH  15  18
ATOM     18  O   UNL     1       1.466   9.717  17.896  0.00  0.00    +0.000 OA
ATOM     19  C   UNL     1       2.239  10.892  18.064  0.00  0.00    +0.000 C 
ENDBRANCH  15  18
ENDBRANCH   9  13
ENDBRANCH   1   9
BRANCH   5  20
ATOM     20  C   UNL     1       8.029   6.611  18.851  0.00  0.00    +0.000 C 
BRANCH  20  21
ATOM     21  C   UNL     1       8.308   7.997  18.291  0.00  0.00    +0.000 C 
ATOM     22  O   UNL     1       8.022   8.270  17.128  0.00  0.00    +0.000 OA
ATOM     23  N   UNL     1       8.902   8.847  19.199  0.00  0.00    +0.000 N 
ATOM     24  C   UNL     1       9.172  10.174  18.954  0.00  0.00    +0.000 A 
ATOM     25  N   UNL     1      10.067  10.846  19.642  0.00  0.00    +0.000 NA
ATOM     26  C   UNL     1      10.160  12.141  19.148  0.00  0.00    +0.000 A 
ATOM     27  C   UNL     1      11.188  13.061  19.696  0.00  0.00    +0.000 C 
ATOM     28  C   UNL     1       9.253  12.448  18.152  0.00  0.00    +0.000 A 
ATOM     29  S   UNL     1       8.294  11.080  17.802  0.00  0.00    +0.000 S 
ATOM     30  H   UNL     1       9.385   8.475  20.006  0.00  0.00    +0.000 HD
ENDBRANCH  20  21
ENDBRANCH   5  20
TORSDOF 6
ENDMDL
MODEL 8
REMARK VINA RESULT:      -7.2      6.858      9.933
REMARK  Name = 
REMARK  9 active torsions:
REMARK  status: ('A' for Active; 'I' for Inactive)
REMARK    1  A    between atoms: C_1  and  O_2
REMARK    2  A    between atoms: O_2  and  C_3
REMARK    3  A    between atoms: C_6  and  C_7
REMARK    4  A    between atoms: C_7  and  N_8
REMARK    5  A    between atoms: C_12  and  C_13
REMARK    6  A    between atoms: C_13  and  C_14
REMARK    7  A    between atoms: C_19  and  C_20
REMARK    8  A    between atoms: C_26  and  O_27
REMARK    9  A    between atoms: O_27  and  C_28
REMARK                            x       y       z     vdW  Elec       q    Type
REMARK                         _______ _______ _______ _____ _____    ______ ____
ROOT
ATOM      1  N   UNL     1      -0.559  11.819  19.108  0.00  0.00    +0.000 N 
ATOM      2  C   UNL     1      -1.141  11.273  18.005  0.00  0.00    +0.000 C 
ATOM      3  O   UNL     1      -2.098  11.700  17.381  0.00  0.00    +0.000 OA
ATOM      4  N   UNL     1      -0.451  10.139  17.671  0.00  0.00    +0.000 N 
ATOM      5  C   UNL     1       0.612   9.836  18.599  0.00  0.00    +0.000 C 
ATOM      6  C   UNL     1       0.510  11.063  19.507  0.00  0.00    +0.000 C 
ATOM      7  O   UNL     1       1.273  11.307  20.432  0.00  0.00    +0.000 OA
ATOM      8  H   UNL     1      -0.768   9.505  16.944  0.00  0.00    +0.000 HD
ENDROOT
BRANCH   1   9
ATOM      9  C   UNL     1      -1.020  13.030  19.745  0.00  0.00    +0.000 C 
BRANCH   9  13
ATOM     10  C   UNL     1      -4.072  12.390  22.760  0.00  0.00    +0.000 A 
ATOM     11  C   UNL     1      -2.720  12.125  23.036  0.00  0.00    +0.000 A 
ATOM     12  C   UNL     1      -1.732  12.327  22.069  0.00  0.00    +0.000 A 
ATOM     13  C   UNL     1      -2.078  12.754  20.786  0.00  0.00    +0.000 A 
ATOM     14  C   UNL     1      -3.432  12.956  20.494  0.00  0.00    +0.000 A 
ATOM     15  C   UNL     1      -4.437  12.774  21.460  0.00  0.00    +0.000 A 
BRANCH  10  17
ATOM     16  C   UNL     1      -4.618  12.564  25.059  0.00  0.00    +0.000 C 
ATOM     17  O   UNL     1      -5.036  12.262  23.728  0.00  0.00    +0.000 OA
ENDBRANCH  10  17
BRANCH  15  18
ATOM     18  O   UNL     1      -5.679  13.039  20.949  0.00  0.00    +0.000 OA
ATOM     19  C   UNL     1      -6.453  11.982  20.409  0.00  0.00    +0.000 C 
ENDBRANCH  15  18
ENDBRANCH   9  13
ENDBRANCH   1   9
BRANCH   5  20
ATOM     20  C   UNL     1       1.972   9.709  17.921  0.00  0.00    +0.000 C 
BRANCH  20  21
ATOM     21  C   UNL     1       2.473   8.279  18.039  0.00  0.00    +0.000 C 
ATOM     22  O   UNL     1       3.120   7.766  17.129  0.00  0.00    +0.000 OA
ATOM     23  N   UNL     1       2.116   7.667  19.221  0.00  0.00    +0.000 N 
ATOM     24  C   UNL     1       2.524   6.406  19.594  0.00  0.00    +0.000 A 
ATOM     25  N   UNL     1       1.880   5.698  20.494  0.00  0.00    +0.000 NA
ATOM     26  C   UNL     1       2.488   4.457  20.633  0.00  0.00    +0.000 A 
ATOM     27  C   UNL     1       1.872   3.435  21.517  0.00  0.00    +0.000 C 
ATOM     28  C   UNL     1       3.647   4.293  19.899  0.00  0.00    +0.000 A 
ATOM     29  S   UNL     1       3.959   5.703  18.989  0.00  0.00    +0.000 S 
ATOM     30  H   UNL     1       1.341   8.021  19.765  0.00  0.00    +0.000 HD
ENDBRANCH  20  21
ENDBRANCH   5  20
TORSDOF 6
ENDMDL
MODEL 9
REMARK VINA RESULT:      -7.2      4.523      7.677
REMARK  Name = 
REMARK  9 active torsions:
REMARK  status: ('A' for Active; 'I' for Inactive)
REMARK    1  A    between atoms: C_1  and  O_2
REMARK    2  A    between atoms: O_2  and  C_3
REMARK    3  A    between atoms: C_6  and  C_7
REMARK    4  A    between atoms: C_7  and  N_8
REMARK    5  A    between atoms: C_12  and  C_13
REMARK    6  A    between atoms: C_13  and  C_14
REMARK    7  A    between atoms: C_19  and  C_20
REMARK    8  A    between atoms: C_26  and  O_27
REMARK    9  A    between atoms: O_27  and  C_28
REMARK                            x       y       z     vdW  Elec       q    Type
REMARK                         _______ _______ _______ _____ _____    ______ ____
ROOT
ATOM      1  N   UNL     1       2.557   4.346  19.520  0.00  0.00    +0.000 N 
ATOM      2  C   UNL     1       2.347   4.398  20.864  0.00  0.00    +0.000 C 
ATOM      3  O   UNL     1       2.607   3.540  21.691  0.00  0.00    +0.000 OA
ATOM      4  N   UNL     1       1.799   5.616  21.168  0.00  0.00    +0.000 N 
ATOM      5  C   UNL     1       1.555   6.426  19.999  0.00  0.00    +0.000 C 
ATOM      6  C   UNL     1       2.159   5.515  18.929  0.00  0.00    +0.000 C 
ATOM      7  O   UNL     1       2.259   5.806  17.746  0.00  0.00    +0.000 OA
ATOM      8  H   UNL     1       1.458   5.841  22.097  0.00  0.00    +0.000 HD
ENDROOT
BRANCH   1   9
ATOM      9  C   UNL     1       3.127   3.208  18.838  0.00  0.00    +0.000 C 
BRANCH   9  13
ATOM     10  C   UNL     1       6.483   4.473  16.398  0.00  0.00    +0.000 A 
ATOM     11  C   UNL     1       5.312   3.969  15.807  0.00  0.00    +0.000 A 
ATOM     12  C   UNL     1       4.228   3.558  16.587  0.00  0.00    +0.000 A 
ATOM     13  C   UNL     1       4.308   3.596  17.980  0.00  0.00    +0.000 A 
ATOM     14  C   UNL     1       5.499   4.038  18.567  0.00  0.00    +0.000 A 
ATOM     15  C   UNL     1       6.592   4.471  17.797  0.00  0.00    +0.000 A 
BRANCH  10  17
ATOM     16  C   UNL     1       7.304   4.936  14.224  0.00  0.00    +0.000 C 
ATOM     17  O   UNL     1       7.521   4.944  15.635  0.00  0.00    +0.000 OA
ENDBRANCH  10  17
BRANCH  15  18
ATOM     18  O   UNL     1       7.638   4.865  18.587  0.00  0.00    +0.000 OA
ATOM     19  C   UNL     1       7.819   6.241  18.876  0.00  0.00    +0.000 C 
ENDBRANCH  15  18
ENDBRANCH   9  13
ENDBRANCH   1   9
BRANCH   5  20
ATOM     20  C   UNL     1       2.235   7.790  20.072  0.00  0.00    +0.000 C 
BRANCH  20  21
ATOM     21  C   UNL     1       1.366   8.835  19.391  0.00  0.00    +0.000 C 
ATOM     22  O   UNL     1       1.488   9.064  18.190  0.00  0.00    +0.000 OA
ATOM     23  N   UNL     1       0.489   9.463  20.249  0.00  0.00    +0.000 N 
ATOM     24  C   UNL     1      -0.456  10.381  19.852  0.00  0.00    +0.000 A 
ATOM     25  N   UNL     1      -0.992  11.241  20.688  0.00  0.00    +0.000 NA
ATOM     26  C   UNL     1      -1.874  12.070  20.005  0.00  0.00    +0.000 A 
ATOM     27  C   UNL     1      -2.522  13.198  20.721  0.00  0.00    +0.000 C 
ATOM     28  C   UNL     1      -2.059  11.747  18.674  0.00  0.00    +0.000 A 
ATOM     29  S   UNL     1      -1.082  10.409  18.262  0.00  0.00    +0.000 S 
ATOM     30  H   UNL     1       0.657   9.456  21.245  0.00  0.00    +0.000 HD
ENDBRANCH  20  21
ENDBRANCH   5  20
TORSDOF 6
ENDMDL
