MODEL 1
REMARK VINA RESULT:      -7.5      0.000      0.000
REMARK  Name = 
REMARK  8 active torsions:
REMARK  status: ('A' for Active; 'I' for Inactive)
REMARK    1  A    between atoms: C_1  and  C_2
REMARK    2  A    between atoms: C_5  and  C_6
REMARK    3  A    between atoms: C_6  and  N_7
REMARK    4  A    between atoms: N_7  and  C_8
REMARK    5  A    between atoms: C_13  and  C_14
REMARK    6  A    between atoms: C_14  and  N_15
REMARK    7  A    between atoms: N_15  and  C_16
REMARK    8  A    between atoms: C_17  and  C_19
REMARK                            x       y       z     vdW  Elec       q    Type
REMARK                         _______ _______ _______ _____ _____    ______ ____
ROOT
ATOM      1  C   UNL     1       2.582   4.897  18.400  0.00  0.00    +0.000 A 
ATOM      2  C   UNL     1       1.939   3.669  18.160  0.00  0.00    +0.000 A 
ATOM      3  C   UNL     1       1.090   3.083  19.104  0.00  0.00    +0.000 A 
ATOM      4  C   UNL     1       0.858   3.714  20.318  0.00  0.00    +0.000 A 
ATOM      5  C   UNL     1       1.437   4.955  20.562  0.00  0.00    +0.000 A 
ATOM      6  C   UNL     1       2.261   5.579  19.599  0.00  0.00    +0.000 A 
ENDROOT
BRANCH   1   7
ATOM      7  N   UNL     1       3.398   5.482  17.424  0.00  0.00    +0.000 N 
ATOM      8  H   UNL     1       3.601   6.468  17.594  0.00  0.00    +0.000 HD
BRANCH   7   9
ATOM      9  C   UNL     1       4.640   4.811  16.990  0.00  0.00    +0.000 C 
BRANCH   9  14
ATOM     10  C   UNL     1       8.012   8.264  17.770  0.00  0.00    +0.000 C 
ATOM     11  C   UNL     1       7.372   6.946  17.921  0.00  0.00    +0.000 A 
ATOM     12  C   UNL     1       7.702   5.800  18.609  0.00  0.00    +0.000 A 
ATOM     13  N   UNL     1       6.764   4.827  18.384  0.00  0.00    +0.000 NA
ATOM     14  C   UNL     1       5.881   5.413  17.594  0.00  0.00    +0.000 A 
ATOM     15  O   UNL     1       6.196   6.708  17.258  0.00  0.00    +0.000 OA
ENDBRANCH   9  14
ENDBRANCH   7   9
ENDBRANCH   1   7
BRANCH   6  16
ATOM     16  C   UNL     1       2.705   6.998  19.902  0.00  0.00    +0.000 C 
BRANCH  16  17
ATOM     17  N   UNL     1       1.651   8.024  19.902  0.00  0.00    +0.000 N 
ATOM     18  C   UNL     1       1.205   8.530  21.193  0.00  0.00    +0.000 C 
ATOM     19  C   UNL     1       1.622   8.835  18.740  0.00  0.00    +0.000 C 
ATOM     20  O   UNL     1       2.369   8.563  17.796  0.00  0.00    +0.000 OA
BRANCH  19  21
ATOM     21  C   UNL     1       0.719   9.991  18.661  0.00  0.00    +0.000 A 
ATOM     22  C   UNL     1      -0.611  10.109  18.298  0.00  0.00    +0.000 A 
ATOM     23  C   UNL     1      -1.077  11.460  18.304  0.00  0.00    +0.000 A 
ATOM     24  C   UNL     1      -0.080  12.347  18.638  0.00  0.00    +0.000 A 
ATOM     25  S   UNL     1       1.391  11.553  18.974  0.00  0.00    +0.000 S 
ENDBRANCH  19  21
ENDBRANCH  16  17
ENDBRANCH   6  16
TORSDOF 6
ENDMDL
MODEL 2
REMARK VINA RESULT:      -7.3      2.120      2.658
REMARK  Name = 
REMARK  8 active torsions:
REMARK  status: ('A' for Active; 'I' for Inactive)
REMARK    1  A    between atoms: C_1  and  C_2
REMARK    2  A    between atoms: C_5  and  C_6
REMARK    3  A    between atoms: C_6  and  N_7
REMARK    4  A    between atoms: N_7  and  C_8
REMARK    5  A    between atoms: C_13  and  C_14
REMARK    6  A    between atoms: C_14  and  N_15
REMARK    7  A    between atoms: N_15  and  C_16
REMARK    8  A    between atoms: C_17  and  C_19
REMARK                            x       y       z     vdW  Elec       q    Type
REMARK                         _______ _______ _______ _____ _____    ______ ____
ROOT
ATOM      1  C   UNL     1       3.564   4.892  17.628  0.00  0.00    +0.000 A 
ATOM      2  C   UNL     1       3.073   3.653  17.178  0.00  0.00    +0.000 A 
ATOM      3  C   UNL     1       2.010   3.003  17.814  0.00  0.00    +0.000 A 
ATOM      4  C   UNL     1       1.405   3.581  18.921  0.00  0.00    +0.000 A 
ATOM      5  C   UNL     1       1.833   4.831  19.357  0.00  0.00    +0.000 A 
ATOM      6  C   UNL     1       2.876   5.518  18.697  0.00  0.00    +0.000 A 
ENDROOT
BRANCH   1   7
ATOM      7  N   UNL     1       4.605   5.539  16.952  0.00  0.00    +0.000 N 
ATOM      8  H   UNL     1       4.739   6.511  17.236  0.00  0.00    +0.000 HD
BRANCH   7   9
ATOM      9  C   UNL     1       5.928   4.895  16.828  0.00  0.00    +0.000 C 
BRANCH   9  14
ATOM     10  C   UNL     1       5.814   3.240  12.229  0.00  0.00    +0.000 C 
ATOM     11  C   UNL     1       6.334   4.009  13.373  0.00  0.00    +0.000 A 
ATOM     12  C   UNL     1       7.433   4.818  13.556  0.00  0.00    +0.000 A 
ATOM     13  N   UNL     1       7.472   5.276  14.847  0.00  0.00    +0.000 NA
ATOM     14  C   UNL     1       6.390   4.759  15.401  0.00  0.00    +0.000 A 
ATOM     15  O   UNL     1       5.651   3.961  14.560  0.00  0.00    +0.000 OA
ENDBRANCH   9  14
ENDBRANCH   7   9
ENDBRANCH   1   7
BRANCH   6  16
ATOM     16  C   UNL     1       3.150   6.939  19.153  0.00  0.00    +0.000 C 
BRANCH  16  17
ATOM     17  N   UNL     1       1.976   7.809  19.312  0.00  0.00    +0.000 N 
ATOM     18  C   UNL     1       1.510   8.070  20.667  0.00  0.00    +0.000 C 
ATOM     19  C   UNL     1       1.807   8.762  18.276  0.00  0.00    +0.000 C 
ATOM     20  O   UNL     1       2.552   8.723  17.293  0.00  0.00    +0.000 OA
BRANCH  19  21
ATOM     21  C   UNL     1       0.763   9.791  18.374  0.00  0.00    +0.000 A 
ATOM     22  C   UNL     1      -0.574   9.797  18.016  0.00  0.00    +0.000 A 
ATOM     23  C   UNL     1      -1.209  11.058  18.236  0.00  0.00    +0.000 A 
ATOM     24  C   UNL     1      -0.331  11.999  18.723  0.00  0.00    +0.000 A 
ATOM     25  S   UNL     1       1.232  11.353  18.947  0.00  0.00    +0.000 S 
ENDBRANCH  19  21
ENDBRANCH  16  17
ENDBRANCH   6  16
TORSDOF 6
ENDMDL
MODEL 3
REMARK VINA RESULT:      -7.0      1.201      1.373
REMARK  Name = 
REMARK  8 active torsions:
REMARK  status: ('A' for Active; 'I' for Inactive)
REMARK    1  A    between atoms: C_1  and  C_2
REMARK    2  A    between atoms: C_5  and  C_6
REMARK    3  A    between atoms: C_6  and  N_7
REMARK    4  A    between atoms: N_7  and  C_8
REMARK    5  A    between atoms: C_13  and  C_14
REMARK    6  A    between atoms: C_14  and  N_15
REMARK    7  A    between atoms: N_15  and  C_16
REMARK    8  A    between atoms: C_17  and  C_19
REMARK                            x       y       z     vdW  Elec       q    Type
REMARK                         _______ _______ _______ _____ _____    ______ ____
ROOT
ATOM      1  C   UNL     1       2.400   4.606  18.384  0.00  0.00    +0.000 A 
ATOM      2  C   UNL     1       1.663   3.423  18.195  0.00  0.00    +0.000 A 
ATOM      3  C   UNL     1       0.836   2.899  19.193  0.00  0.00    +0.000 A 
ATOM      4  C   UNL     1       0.720   3.550  20.413  0.00  0.00    +0.000 A 
ATOM      5  C   UNL     1       1.395   4.751  20.611  0.00  0.00    +0.000 A 
ATOM      6  C   UNL     1       2.198   5.314  19.594  0.00  0.00    +0.000 A 
ENDROOT
BRANCH   1   7
ATOM      7  N   UNL     1       3.191   5.130  17.355  0.00  0.00    +0.000 N 
ATOM      8  H   UNL     1       3.684   5.987  17.611  0.00  0.00    +0.000 HD
BRANCH   7   9
ATOM      9  C   UNL     1       4.118   4.256  16.609  0.00  0.00    +0.000 C 
BRANCH   9  14
ATOM     10  C   UNL     1       7.839   5.785  19.388  0.00  0.00    +0.000 C 
ATOM     11  C   UNL     1       7.198   5.152  18.223  0.00  0.00    +0.000 A 
ATOM     12  C   UNL     1       7.677   4.581  17.065  0.00  0.00    +0.000 A 
ATOM     13  N   UNL     1       6.636   4.161  16.280  0.00  0.00    +0.000 NA
ATOM     14  C   UNL     1       5.561   4.460  16.989  0.00  0.00    +0.000 A 
ATOM     15  O   UNL     1       5.829   5.081  18.185  0.00  0.00    +0.000 OA
ENDBRANCH   9  14
ENDBRANCH   7   9
ENDBRANCH   1   7
BRANCH   6  16
ATOM     16  C   UNL     1       2.752   6.702  19.857  0.00  0.00    +0.000 C 
BRANCH  16  17
ATOM     17  N   UNL     1       1.780   7.805  19.842  0.00  0.00    +0.000 N 
ATOM     18  C   UNL     1       1.318   8.311  21.127  0.00  0.00    +0.000 C 
ATOM     19  C   UNL     1       1.862   8.645  18.703  0.00  0.00    +0.000 C 
ATOM     20  O   UNL     1       2.627   8.340  17.784  0.00  0.00    +0.000 OA
BRANCH  19  21
ATOM     21  C   UNL     1       1.054   9.868  18.621  0.00  0.00    +0.000 A 
ATOM     22  C   UNL     1       1.313  11.181  18.976  0.00  0.00    +0.000 A 
ATOM     23  C   UNL     1       0.196  12.048  18.777  0.00  0.00    +0.000 A 
ATOM     24  C   UNL     1      -0.905  11.370  18.308  0.00  0.00    +0.000 A 
ATOM     25  S   UNL     1      -0.580   9.712  18.076  0.00  0.00    +0.000 S 
ENDBRANCH  19  21
ENDBRANCH  16  17
ENDBRANCH   6  16
TORSDOF 6
ENDMDL
MODEL 4
REMARK VINA RESULT:      -6.8      0.948      1.093
REMARK  Name = 
REMARK  8 active torsions:
REMARK  status: ('A' for Active; 'I' for Inactive)
REMARK    1  A    between atoms: C_1  and  C_2
REMARK    2  A    between atoms: C_5  and  C_6
REMARK    3  A    between atoms: C_6  and  N_7
REMARK    4  A    between atoms: N_7  and  C_8
REMARK    5  A    between atoms: C_13  and  C_14
REMARK    6  A    between atoms: C_14  and  N_15
REMARK    7  A    between atoms: N_15  and  C_16
REMARK    8  A    between atoms: C_17  and  C_19
REMARK                            x       y       z     vdW  Elec       q    Type
REMARK                         _______ _______ _______ _____ _____    ______ ____
ROOT
ATOM      1  C   UNL     1       2.810   4.155  17.887  0.00  0.00    +0.000 A 
ATOM      2  C   UNL     1       2.097   2.955  17.709  0.00  0.00    +0.000 A 
ATOM      3  C   UNL     1       1.124   2.531  18.619  0.00  0.00    +0.000 A 
ATOM      4  C   UNL     1       0.833   3.303  19.736  0.00  0.00    +0.000 A 
ATOM      5  C   UNL     1       1.483   4.520  19.911  0.00  0.00    +0.000 A 
ATOM      6  C   UNL     1       2.436   4.981  18.976  0.00  0.00    +0.000 A 
ENDROOT
BRANCH   1   7
ATOM      7  N   UNL     1       3.753   4.576  16.942  0.00  0.00    +0.000 N 
ATOM      8  H   UNL     1       3.808   5.590  16.838  0.00  0.00    +0.000 HD
BRANCH   7   9
ATOM      9  C   UNL     1       5.124   4.027  16.961  0.00  0.00    +0.000 C 
BRANCH   9  14
ATOM     10  C   UNL     1       7.811   8.073  17.519  0.00  0.00    +0.000 C 
ATOM     11  C   UNL     1       7.310   6.730  17.858  0.00  0.00    +0.000 A 
ATOM     12  C   UNL     1       7.604   5.827  18.855  0.00  0.00    +0.000 A 
ATOM     13  N   UNL     1       6.860   4.687  18.694  0.00  0.00    +0.000 NA
ATOM     14  C   UNL     1       6.119   4.939  17.630  0.00  0.00    +0.000 A 
ATOM     15  O   UNL     1       6.351   6.166  17.057  0.00  0.00    +0.000 OA
ENDBRANCH   9  14
ENDBRANCH   7   9
ENDBRANCH   1   7
BRANCH   6  16
ATOM     16  C   UNL     1       2.960   6.391  19.177  0.00  0.00    +0.000 C 
BRANCH  16  17
ATOM     17  N   UNL     1       1.962   7.412  19.526  0.00  0.00    +0.000 N 
ATOM     18  C   UNL     1       1.650   7.593  20.937  0.00  0.00    +0.000 C 
ATOM     19  C   UNL     1       1.876   8.487  18.607  0.00  0.00    +0.000 C 
ATOM     20  O   UNL     1       2.528   8.439  17.560  0.00  0.00    +0.000 OA
BRANCH  19  21
ATOM     21  C   UNL     1       1.028   9.651  18.898  0.00  0.00    +0.000 A 
ATOM     22  C   UNL     1       1.099  10.633  19.871  0.00  0.00    +0.000 A 
ATOM     23  C   UNL     1       0.006  11.552  19.822  0.00  0.00    +0.000 A 
ATOM     24  C   UNL     1      -0.895  11.228  18.835  0.00  0.00    +0.000 A 
ATOM     25  S   UNL     1      -0.406   9.852  17.955  0.00  0.00    +0.000 S 
ENDBRANCH  19  21
ENDBRANCH  16  17
ENDBRANCH   6  16
TORSDOF 6
ENDMDL
MODEL 5
REMARK VINA RESULT:      -6.8      1.537      2.130
REMARK  Name = 
REMARK  8 active torsions:
REMARK  status: ('A' for Active; 'I' for Inactive)
REMARK    1  A    between atoms: C_1  and  C_2
REMARK    2  A    between atoms: C_5  and  C_6
REMARK    3  A    between atoms: C_6  and  N_7
REMARK    4  A    between atoms: N_7  and  C_8
REMARK    5  A    between atoms: C_13  and  C_14
REMARK    6  A    between atoms: C_14  and  N_15
REMARK    7  A    between atoms: N_15  and  C_16
REMARK    8  A    between atoms: C_17  and  C_19
REMARK                            x       y       z     vdW  Elec       q    Type
REMARK                         _______ _______ _______ _____ _____    ______ ____
ROOT
ATOM      1  C   UNL     1       2.681   5.460  18.277  0.00  0.00    +0.000 A 
ATOM      2  C   UNL     1       2.181   4.211  17.864  0.00  0.00    +0.000 A 
ATOM      3  C   UNL     1       1.362   3.433  18.689  0.00  0.00    +0.000 A 
ATOM      4  C   UNL     1       1.017   3.887  19.954  0.00  0.00    +0.000 A 
ATOM      5  C   UNL     1       1.452   5.142  20.370  0.00  0.00    +0.000 A 
ATOM      6  C   UNL     1       2.243   5.956  19.529  0.00  0.00    +0.000 A 
ENDROOT
BRANCH   1   7
ATOM      7  N   UNL     1       3.468   6.236  17.419  0.00  0.00    +0.000 N 
ATOM      8  H   UNL     1       3.094   7.171  17.251  0.00  0.00    +0.000 HD
BRANCH   7   9
ATOM      9  C   UNL     1       4.925   6.340  17.633  0.00  0.00    +0.000 C 
BRANCH   9  14
ATOM     10  C   UNL     1       5.658   3.862  13.482  0.00  0.00    +0.000 C 
ATOM     11  C   UNL     1       6.042   4.563  14.720  0.00  0.00    +0.000 A 
ATOM     12  C   UNL     1       7.245   4.804  15.344  0.00  0.00    +0.000 A 
ATOM     13  N   UNL     1       7.041   5.490  16.513  0.00  0.00    +0.000 NA
ATOM     14  C   UNL     1       5.733   5.670  16.552  0.00  0.00    +0.000 A 
ATOM     15  O   UNL     1       5.054   5.117  15.493  0.00  0.00    +0.000 OA
ENDBRANCH   9  14
ENDBRANCH   7   9
ENDBRANCH   1   7
BRANCH   6  16
ATOM     16  C   UNL     1       2.522   7.366  20.017  0.00  0.00    +0.000 C 
BRANCH  16  17
ATOM     17  N   UNL     1       1.420   8.331  19.886  0.00  0.00    +0.000 N 
ATOM     18  C   UNL     1       0.731   8.734  21.105  0.00  0.00    +0.000 C 
ATOM     19  C   UNL     1       1.534   9.206  18.778  0.00  0.00    +0.000 C 
ATOM     20  O   UNL     1       2.446   9.032  17.964  0.00  0.00    +0.000 OA
BRANCH  19  21
ATOM     21  C   UNL     1       0.585  10.314  18.603  0.00  0.00    +0.000 A 
ATOM     22  C   UNL     1       0.641  11.651  18.955  0.00  0.00    +0.000 A 
ATOM     23  C   UNL     1      -0.557  12.365  18.644  0.00  0.00    +0.000 A 
ATOM     24  C   UNL     1      -1.516  11.546  18.094  0.00  0.00    +0.000 A 
ATOM     25  S   UNL     1      -0.960   9.942  17.922  0.00  0.00    +0.000 S 
ENDBRANCH  19  21
ENDBRANCH  16  17
ENDBRANCH   6  16
TORSDOF 6
ENDMDL
MODEL 6
REMARK VINA RESULT:      -6.7      1.282      1.515
REMARK  Name = 
REMARK  8 active torsions:
REMARK  status: ('A' for Active; 'I' for Inactive)
REMARK    1  A    between atoms: C_1  and  C_2
REMARK    2  A    between atoms: C_5  and  C_6
REMARK    3  A    between atoms: C_6  and  N_7
REMARK    4  A    between atoms: N_7  and  C_8
REMARK    5  A    between atoms: C_13  and  C_14
REMARK    6  A    between atoms: C_14  and  N_15
REMARK    7  A    between atoms: N_15  and  C_16
REMARK    8  A    between atoms: C_17  and  C_19
REMARK                            x       y       z     vdW  Elec       q    Type
REMARK                         _______ _______ _______ _____ _____    ______ ____
ROOT
ATOM      1  C   UNL     1       2.735   4.237  18.163  0.00  0.00    +0.000 A 
ATOM      2  C   UNL     1       1.891   3.138  17.921  0.00  0.00    +0.000 A 
ATOM      3  C   UNL     1       0.897   2.754  18.827  0.00  0.00    +0.000 A 
ATOM      4  C   UNL     1       0.718   3.467  20.005  0.00  0.00    +0.000 A 
ATOM      5  C   UNL     1       1.501   4.591  20.247  0.00  0.00    +0.000 A 
ATOM      6  C   UNL     1       2.478   5.015  19.319  0.00  0.00    +0.000 A 
ENDROOT
BRANCH   1   7
ATOM      7  N   UNL     1       3.697   4.623  17.223  0.00  0.00    +0.000 N 
ATOM      8  H   UNL     1       3.811   5.634  17.142  0.00  0.00    +0.000 HD
BRANCH   7   9
ATOM      9  C   UNL     1       5.033   3.994  17.222  0.00  0.00    +0.000 C 
BRANCH   9  14
ATOM     10  C   UNL     1       7.789   8.015  17.603  0.00  0.00    +0.000 C 
ATOM     11  C   UNL     1       7.326   6.660  17.949  0.00  0.00    +0.000 A 
ATOM     12  C   UNL     1       7.734   5.720  18.868  0.00  0.00    +0.000 A 
ATOM     13  N   UNL     1       6.969   4.588  18.756  0.00  0.00    +0.000 NA
ATOM     14  C   UNL     1       6.106   4.880  17.799  0.00  0.00    +0.000 A 
ATOM     15  O   UNL     1       6.273   6.128  17.249  0.00  0.00    +0.000 OA
ENDBRANCH   9  14
ENDBRANCH   7   9
ENDBRANCH   1   7
BRANCH   6  16
ATOM     16  C   UNL     1       3.157   6.341  19.606  0.00  0.00    +0.000 C 
BRANCH  16  17
ATOM     17  N   UNL     1       2.474   7.544  19.109  0.00  0.00    +0.000 N 
ATOM     18  C   UNL     1       2.062   7.555  17.712  0.00  0.00    +0.000 C 
ATOM     19  C   UNL     1       1.753   8.260  20.097  0.00  0.00    +0.000 C 
ATOM     20  O   UNL     1       1.841   7.911  21.278  0.00  0.00    +0.000 OA
BRANCH  19  21
ATOM     21  C   UNL     1       0.905   9.399  19.721  0.00  0.00    +0.000 A 
ATOM     22  C   UNL     1       1.017  10.352  18.724  0.00  0.00    +0.000 A 
ATOM     23  C   UNL     1      -0.023  11.332  18.765  0.00  0.00    +0.000 A 
ATOM     24  C   UNL     1      -0.884  11.126  19.817  0.00  0.00    +0.000 A 
ATOM     25  S   UNL     1      -0.463   9.742  20.721  0.00  0.00    +0.000 S 
ENDBRANCH  19  21
ENDBRANCH  16  17
ENDBRANCH   6  16
TORSDOF 6
ENDMDL
MODEL 7
REMARK VINA RESULT:      -6.7      1.716      2.213
REMARK  Name = 
REMARK  8 active torsions:
REMARK  status: ('A' for Active; 'I' for Inactive)
REMARK    1  A    between atoms: C_1  and  C_2
REMARK    2  A    between atoms: C_5  and  C_6
REMARK    3  A    between atoms: C_6  and  N_7
REMARK    4  A    between atoms: N_7  and  C_8
REMARK    5  A    between atoms: C_13  and  C_14
REMARK    6  A    between atoms: C_14  and  N_15
REMARK    7  A    between atoms: N_15  and  C_16
REMARK    8  A    between atoms: C_17  and  C_19
REMARK                            x       y       z     vdW  Elec       q    Type
REMARK                         _______ _______ _______ _____ _____    ______ ____
ROOT
ATOM      1  C   UNL     1       3.645   4.658  19.710  0.00  0.00    +0.000 A 
ATOM      2  C   UNL     1       3.232   3.333  19.942  0.00  0.00    +0.000 A 
ATOM      3  C   UNL     1       1.919   3.021  20.306  0.00  0.00    +0.000 A 
ATOM      4  C   UNL     1       0.977   4.031  20.445  0.00  0.00    +0.000 A 
ATOM      5  C   UNL     1       1.342   5.345  20.170  0.00  0.00    +0.000 A 
ATOM      6  C   UNL     1       2.654   5.668  19.759  0.00  0.00    +0.000 A 
ENDROOT
BRANCH   1   7
ATOM      7  N   UNL     1       4.957   4.941  19.311  0.00  0.00    +0.000 N 
ATOM      8  H   UNL     1       5.588   5.146  20.086  0.00  0.00    +0.000 HD
BRANCH   7   9
ATOM      9  C   UNL     1       5.652   4.055  18.355  0.00  0.00    +0.000 C 
BRANCH   9  14
ATOM     10  C   UNL     1       6.191   3.805  13.502  0.00  0.00    +0.000 C 
ATOM     11  C   UNL     1       5.849   4.432  14.790  0.00  0.00    +0.000 A 
ATOM     12  C   UNL     1       5.415   5.688  15.153  0.00  0.00    +0.000 A 
ATOM     13  N   UNL     1       5.273   5.763  16.514  0.00  0.00    +0.000 NA
ATOM     14  C   UNL     1       5.595   4.553  16.935  0.00  0.00    +0.000 A 
ATOM     15  O   UNL     1       5.971   3.688  15.935  0.00  0.00    +0.000 OA
ENDBRANCH   9  14
ENDBRANCH   7   9
ENDBRANCH   1   7
BRANCH   6  16
ATOM     16  C   UNL     1       2.897   7.103  19.329  0.00  0.00    +0.000 C 
BRANCH  16  17
ATOM     17  N   UNL     1       1.771   8.033  19.496  0.00  0.00    +0.000 N 
ATOM     18  C   UNL     1       1.380   8.379  20.856  0.00  0.00    +0.000 C 
ATOM     19  C   UNL     1       1.596   8.943  18.424  0.00  0.00    +0.000 C 
ATOM     20  O   UNL     1       2.292   8.823  17.412  0.00  0.00    +0.000 OA
BRANCH  19  21
ATOM     21  C   UNL     1       0.604  10.022  18.517  0.00  0.00    +0.000 A 
ATOM     22  C   UNL     1      -0.749  10.069  18.228  0.00  0.00    +0.000 A 
ATOM     23  C   UNL     1      -1.317  11.368  18.409  0.00  0.00    +0.000 A 
ATOM     24  C   UNL     1      -0.375  12.293  18.797  0.00  0.00    +0.000 A 
ATOM     25  S   UNL     1       1.169  11.590  18.976  0.00  0.00    +0.000 S 
ENDBRANCH  19  21
ENDBRANCH  16  17
ENDBRANCH   6  16
TORSDOF 6
ENDMDL
MODEL 8
REMARK VINA RESULT:      -6.6      1.238      1.552
REMARK  Name = 
REMARK  8 active torsions:
REMARK  status: ('A' for Active; 'I' for Inactive)
REMARK    1  A    between atoms: C_1  and  C_2
REMARK    2  A    between atoms: C_5  and  C_6
REMARK    3  A    between atoms: C_6  and  N_7
REMARK    4  A    between atoms: N_7  and  C_8
REMARK    5  A    between atoms: C_13  and  C_14
REMARK    6  A    between atoms: C_14  and  N_15
REMARK    7  A    between atoms: N_15  and  C_16
REMARK    8  A    between atoms: C_17  and  C_19
REMARK                            x       y       z     vdW  Elec       q    Type
REMARK                         _______ _______ _______ _____ _____    ______ ____
ROOT
ATOM      1  C   UNL     1       2.591   5.823  18.455  0.00  0.00    +0.000 A 
ATOM      2  C   UNL     1       2.193   4.538  18.041  0.00  0.00    +0.000 A 
ATOM      3  C   UNL     1       1.423   3.704  18.858  0.00  0.00    +0.000 A 
ATOM      4  C   UNL     1       1.025   4.136  20.116  0.00  0.00    +0.000 A 
ATOM      5  C   UNL     1       1.359   5.422  20.531  0.00  0.00    +0.000 A 
ATOM      6  C   UNL     1       2.098   6.290  19.698  0.00  0.00    +0.000 A 
ENDROOT
BRANCH   1   7
ATOM      7  N   UNL     1       3.330   6.653  17.604  0.00  0.00    +0.000 N 
ATOM      8  H   UNL     1       3.666   7.507  18.052  0.00  0.00    +0.000 HD
BRANCH   7   9
ATOM      9  C   UNL     1       4.417   6.093  16.776  0.00  0.00    +0.000 C 
BRANCH   9  14
ATOM     10  C   UNL     1       8.186   5.555  19.845  0.00  0.00    +0.000 C 
ATOM     11  C   UNL     1       7.444   6.126  18.707  0.00  0.00    +0.000 A 
ATOM     12  C   UNL     1       7.712   7.128  17.801  0.00  0.00    +0.000 A 
ATOM     13  N   UNL     1       6.653   7.287  16.946  0.00  0.00    +0.000 NA
ATOM     14  C   UNL     1       5.789   6.366  17.335  0.00  0.00    +0.000 A 
ATOM     15  O   UNL     1       6.201   5.626  18.417  0.00  0.00    +0.000 OA
ENDBRANCH   9  14
ENDBRANCH   7   9
ENDBRANCH   1   7
BRANCH   6  16
ATOM     16  C   UNL     1       2.263   7.719  20.182  0.00  0.00    +0.000 C 
BRANCH  16  17
ATOM     17  N   UNL     1       1.111   8.611  19.983  0.00  0.00    +0.000 N 
ATOM     18  C   UNL     1       0.342   8.990  21.161  0.00  0.00    +0.000 C 
ATOM     19  C   UNL     1       1.223   9.474  18.865  0.00  0.00    +0.000 C 
ATOM     20  O   UNL     1       2.181   9.345  18.097  0.00  0.00    +0.000 OA
BRANCH  19  21
ATOM     21  C   UNL     1       0.217  10.518  18.626  0.00  0.00    +0.000 A 
ATOM     22  C   UNL     1       0.165  11.857  18.973  0.00  0.00    +0.000 A 
ATOM     23  C   UNL     1      -1.055  12.491  18.585  0.00  0.00    +0.000 A 
ATOM     24  C   UNL     1      -1.924  11.611  17.983  0.00  0.00    +0.000 A 
ATOM     25  S   UNL     1      -1.256  10.046  17.854  0.00  0.00    +0.000 S 
ENDBRANCH  19  21
ENDBRANCH  16  17
ENDBRANCH   6  16
TORSDOF 6
ENDMDL
MODEL 9
REMARK VINA RESULT:      -6.6      2.045      4.861
REMARK  Name = 
REMARK  8 active torsions:
REMARK  status: ('A' for Active; 'I' for Inactive)
REMARK    1  A    between atoms: C_1  and  C_2
REMARK    2  A    between atoms: C_5  and  C_6
REMARK    3  A    between atoms: C_6  and  N_7
REMARK    4  A    between atoms: N_7  and  C_8
REMARK    5  A    between atoms: C_13  and  C_14
REMARK    6  A    between atoms: C_14  and  N_15
REMARK    7  A    between atoms: N_15  and  C_16
REMARK    8  A    between atoms: C_17  and  C_19
REMARK                            x       y       z     vdW  Elec       q    Type
REMARK                         _______ _______ _______ _____ _____    ______ ____
ROOT
ATOM      1  C   UNL     1       5.384   4.839  17.075  0.00  0.00    +0.000 A 
ATOM      2  C   UNL     1       6.677   4.421  17.440  0.00  0.00    +0.000 A 
ATOM      3  C   UNL     1       7.675   5.332  17.798  0.00  0.00    +0.000 A 
ATOM      4  C   UNL     1       7.405   6.694  17.803  0.00  0.00    +0.000 A 
ATOM      5  C   UNL     1       6.120   7.134  17.498  0.00  0.00    +0.000 A 
ATOM      6  C   UNL     1       5.091   6.221  17.178  0.00  0.00    +0.000 A 
ENDROOT
BRANCH   1   7
ATOM      7  N   UNL     1       4.392   3.905  16.757  0.00  0.00    +0.000 N 
ATOM      8  H   UNL     1       4.417   3.591  15.786  0.00  0.00    +0.000 HD
BRANCH   7   9
ATOM      9  C   UNL     1       4.164   2.733  17.628  0.00  0.00    +0.000 C 
BRANCH   9  14
ATOM     10  C   UNL     1       1.322   2.677  21.605  0.00  0.00    +0.000 C 
ATOM     11  C   UNL     1       1.627   2.771  20.167  0.00  0.00    +0.000 A 
ATOM     12  C   UNL     1       0.853   2.907  19.036  0.00  0.00    +0.000 A 
ATOM     13  N   UNL     1       1.647   2.913  17.919  0.00  0.00    +0.000 NA
ATOM     14  C   UNL     1       2.873   2.810  18.400  0.00  0.00    +0.000 A 
ATOM     15  O   UNL     1       2.937   2.705  19.769  0.00  0.00    +0.000 OA
ENDBRANCH   9  14
ENDBRANCH   7   9
ENDBRANCH   1   7
BRANCH   6  16
ATOM     16  C   UNL     1       3.696   6.797  17.025  0.00  0.00    +0.000 C 
BRANCH  16  17
ATOM     17  N   UNL     1       2.927   6.981  18.265  0.00  0.00    +0.000 N 
ATOM     18  C   UNL     1       3.379   6.264  19.449  0.00  0.00    +0.000 C 
ATOM     19  C   UNL     1       2.266   8.231  18.365  0.00  0.00    +0.000 C 
ATOM     20  O   UNL     1       2.279   8.999  17.399  0.00  0.00    +0.000 OA
BRANCH  19  21
ATOM     21  C   UNL     1       1.580   8.613  19.607  0.00  0.00    +0.000 A 
ATOM     22  C   UNL     1       1.410   7.959  20.814  0.00  0.00    +0.000 A 
ATOM     23  C   UNL     1       0.604   8.689  21.740  0.00  0.00    +0.000 A 
ATOM     24  C   UNL     1       0.145   9.870  21.204  0.00  0.00    +0.000 A 
ATOM     25  S   UNL     1       0.714  10.109  19.614  0.00  0.00    +0.000 S 
ENDBRANCH  19  21
ENDBRANCH  16  17
ENDBRANCH   6  16
TORSDOF 6
ENDMDL
