MODEL 1
REMARK VINA RESULT:      -7.4      0.000      0.000
REMARK  Name = 
REMARK  4 active torsions:
REMARK  status: ('A' for Active; 'I' for Inactive)
REMARK    1  A    between atoms: C_1  and  S_2
REMARK    2  A    between atoms: S_2  and  C_5
REMARK    3  A    between atoms: C_12  and  C_14
REMARK    4  A    between atoms: C_14  and  N_15
REMARK                            x       y       z     vdW  Elec       q    Type
REMARK                         _______ _______ _______ _____ _____    ______ ____
ROOT
ATOM      1  C   UNL     1      10.318  14.467  18.347  0.00  0.00    +0.000 A 
ATOM      2  C   UNL     1      11.163  14.118  19.401  0.00  0.00    +0.000 A 
ATOM      3  C   UNL     1      11.113  12.821  19.940  0.00  0.00    +0.000 A 
ATOM      4  C   UNL     1      10.210  11.871  19.415  0.00  0.00    +0.000 A 
ATOM      5  N   UNL     1      10.056  10.550  19.829  0.00  0.00    +0.000 NA
ATOM      6  C   UNL     1       9.181   9.943  19.057  0.00  0.00    +0.000 A 
ATOM      7  N   UNL     1       8.853   8.615  19.190  0.00  0.00    +0.000 N 
ATOM      8  C   UNL     1       8.177   7.861  18.254  0.00  0.00    +0.000 C 
ATOM      9  O   UNL     1       7.883   8.213  17.113  0.00  0.00    +0.000 OA
ATOM     10  S   UNL     1       8.390  10.936  17.917  0.00  0.00    +0.000 S 
ATOM     11  C   UNL     1       9.374  12.264  18.368  0.00  0.00    +0.000 A 
ATOM     12  C   UNL     1       9.395  13.557  17.823  0.00  0.00    +0.000 A 
ATOM     13  H   UNL     1       9.213   8.141  20.010  0.00  0.00    +0.000 HD
ENDROOT
BRANCH   1  15
ATOM     14  C   UNL     1      11.412  16.999  18.804  0.00  0.00    +0.000 C 
ATOM     15  S   UNL     1      10.352  16.121  17.688  0.00  0.00    +0.000 S 
ATOM     16  O   UNL     1       9.010  16.665  17.815  0.00  0.00    +0.000 OA
ATOM     17  O   UNL     1      11.008  16.061  16.396  0.00  0.00    +0.000 OA
ENDBRANCH   1  15
BRANCH   8  18
ATOM     18  C   UNL     1       7.873   6.423  18.687  0.00  0.00    +0.000 C 
BRANCH  18  19
ATOM     19  N   UNL     1       6.667   5.835  18.044  0.00  0.00    +0.000 NA
ATOM     20  C   UNL     1       7.038   4.866  16.999  0.00  0.00    +0.000 C 
ATOM     21  C   UNL     1       5.965   4.809  15.905  0.00  0.00    +0.000 C 
ATOM     22  C   UNL     1       4.710   4.012  16.245  0.00  0.00    +0.000 C 
ATOM     23  C   UNL     1       3.999   4.447  17.521  0.00  0.00    +0.000 C 
ATOM     24  C   UNL     1       4.830   4.149  18.761  0.00  0.00    +0.000 C 
ATOM     25  C   UNL     1       5.841   5.242  19.118  0.00  0.00    +0.000 C 
ENDBRANCH  18  19
ENDBRANCH   8  18
TORSDOF 3
ENDMDL
MODEL 2
REMARK VINA RESULT:      -7.4      7.653      9.266
REMARK  Name = 
REMARK  4 active torsions:
REMARK  status: ('A' for Active; 'I' for Inactive)
REMARK    1  A    between atoms: C_1  and  S_2
REMARK    2  A    between atoms: S_2  and  C_5
REMARK    3  A    between atoms: C_12  and  C_14
REMARK    4  A    between atoms: C_14  and  N_15
REMARK                            x       y       z     vdW  Elec       q    Type
REMARK                         _______ _______ _______ _____ _____    ______ ____
ROOT
ATOM      1  C   UNL     1      -1.425  11.835  22.097  0.00  0.00    +0.000 A 
ATOM      2  C   UNL     1      -1.187  11.006  23.193  0.00  0.00    +0.000 A 
ATOM      3  C   UNL     1      -0.424   9.837  23.036  0.00  0.00    +0.000 A 
ATOM      4  C   UNL     1       0.105   9.502  21.770  0.00  0.00    +0.000 A 
ATOM      5  N   UNL     1       0.889   8.394  21.459  0.00  0.00    +0.000 NA
ATOM      6  C   UNL     1       1.264   8.454  20.201  0.00  0.00    +0.000 A 
ATOM      7  N   UNL     1       2.088   7.523  19.615  0.00  0.00    +0.000 N 
ATOM      8  C   UNL     1       2.740   7.678  18.410  0.00  0.00    +0.000 C 
ATOM      9  O   UNL     1       2.796   8.709  17.742  0.00  0.00    +0.000 OA
ATOM     10  S   UNL     1       0.586   9.728  19.291  0.00  0.00    +0.000 S 
ATOM     11  C   UNL     1      -0.166  10.353  20.696  0.00  0.00    +0.000 A 
ATOM     12  C   UNL     1      -0.939  11.518  20.826  0.00  0.00    +0.000 A 
ATOM     13  H   UNL     1       2.289   6.692  20.160  0.00  0.00    +0.000 HD
ENDROOT
BRANCH   1  15
ATOM     14  C   UNL     1      -1.607  14.206  23.570  0.00  0.00    +0.000 C 
ATOM     15  S   UNL     1      -2.424  13.297  22.287  0.00  0.00    +0.000 S 
ATOM     16  O   UNL     1      -3.721  12.872  22.787  0.00  0.00    +0.000 OA
ATOM     17  O   UNL     1      -2.319  14.059  21.057  0.00  0.00    +0.000 OA
ENDBRANCH   1  15
BRANCH   8  18
ATOM     18  C   UNL     1       3.537   6.453  17.950  0.00  0.00    +0.000 C 
BRANCH  18  19
ATOM     19  N   UNL     1       3.124   5.178  18.597  0.00  0.00    +0.000 NA
ATOM     20  C   UNL     1       2.415   4.303  17.649  0.00  0.00    +0.000 C 
ATOM     21  C   UNL     1       1.409   3.408  18.383  0.00  0.00    +0.000 C 
ATOM     22  C   UNL     1       1.996   2.202  19.107  0.00  0.00    +0.000 C 
ATOM     23  C   UNL     1       3.094   2.529  20.113  0.00  0.00    +0.000 C 
ATOM     24  C   UNL     1       4.350   3.049  19.430  0.00  0.00    +0.000 C 
ATOM     25  C   UNL     1       4.342   4.556  19.161  0.00  0.00    +0.000 C 
ENDBRANCH  18  19
ENDBRANCH   8  18
TORSDOF 3
ENDMDL
MODEL 3
REMARK VINA RESULT:      -7.3      0.856      1.013
REMARK  Name = 
REMARK  4 active torsions:
REMARK  status: ('A' for Active; 'I' for Inactive)
REMARK    1  A    between atoms: C_1  and  S_2
REMARK    2  A    between atoms: S_2  and  C_5
REMARK    3  A    between atoms: C_12  and  C_14
REMARK    4  A    between atoms: C_14  and  N_15
REMARK                            x       y       z     vdW  Elec       q    Type
REMARK                         _______ _______ _______ _____ _____    ______ ____
ROOT
ATOM      1  C   UNL     1      10.524  14.472  18.538  0.00  0.00    +0.000 A 
ATOM      2  C   UNL     1      11.398  14.058  19.544  0.00  0.00    +0.000 A 
ATOM      3  C   UNL     1      11.325  12.746  20.041  0.00  0.00    +0.000 A 
ATOM      4  C   UNL     1      10.368  11.846  19.523  0.00  0.00    +0.000 A 
ATOM      5  N   UNL     1      10.184  10.517  19.898  0.00  0.00    +0.000 NA
ATOM      6  C   UNL     1       9.257   9.968  19.144  0.00  0.00    +0.000 A 
ATOM      7  N   UNL     1       8.888   8.648  19.246  0.00  0.00    +0.000 N 
ATOM      8  C   UNL     1       8.149   7.951  18.315  0.00  0.00    +0.000 C 
ATOM      9  O   UNL     1       7.821   8.352  17.199  0.00  0.00    +0.000 OA
ATOM     10  S   UNL     1       8.457  11.026  18.072  0.00  0.00    +0.000 S 
ATOM     11  C   UNL     1       9.505  12.303  18.525  0.00  0.00    +0.000 A 
ATOM     12  C   UNL     1       9.549  13.613  18.023  0.00  0.00    +0.000 A 
ATOM     13  H   UNL     1       9.264   8.134  20.035  0.00  0.00    +0.000 HD
ENDROOT
BRANCH   1  15
ATOM     14  C   UNL     1       8.900  16.676  17.966  0.00  0.00    +0.000 C 
ATOM     15  S   UNL     1      10.591  16.146  17.934  0.00  0.00    +0.000 S 
ATOM     16  O   UNL     1      11.021  16.088  16.546  0.00  0.00    +0.000 OA
ATOM     17  O   UNL     1      11.329  16.930  18.905  0.00  0.00    +0.000 OA
ENDBRANCH   1  15
BRANCH   8  18
ATOM     18  C   UNL     1       7.812   6.509  18.712  0.00  0.00    +0.000 C 
BRANCH  18  19
ATOM     19  N   UNL     1       6.843   5.837  17.804  0.00  0.00    +0.000 NA
ATOM     20  C   UNL     1       7.456   4.677  17.135  0.00  0.00    +0.000 C 
ATOM     21  C   UNL     1       6.810   4.437  15.765  0.00  0.00    +0.000 C 
ATOM     22  C   UNL     1       5.450   3.749  15.783  0.00  0.00    +0.000 C 
ATOM     23  C   UNL     1       4.394   4.438  16.640  0.00  0.00    +0.000 C 
ATOM     24  C   UNL     1       4.733   4.363  18.122  0.00  0.00    +0.000 C 
ATOM     25  C   UNL     1       5.657   5.480  18.612  0.00  0.00    +0.000 C 
ENDBRANCH  18  19
ENDBRANCH   8  18
TORSDOF 3
ENDMDL
MODEL 4
REMARK VINA RESULT:      -7.1      8.404     11.818
REMARK  Name = 
REMARK  4 active torsions:
REMARK  status: ('A' for Active; 'I' for Inactive)
REMARK    1  A    between atoms: C_1  and  S_2
REMARK    2  A    between atoms: S_2  and  C_5
REMARK    3  A    between atoms: C_12  and  C_14
REMARK    4  A    between atoms: C_14  and  N_15
REMARK                            x       y       z     vdW  Elec       q    Type
REMARK                         _______ _______ _______ _____ _____    ______ ____
ROOT
ATOM      1  C   UNL     1       3.206   4.701  19.469  0.00  0.00    +0.000 A 
ATOM      2  C   UNL     1       3.528   5.265  18.234  0.00  0.00    +0.000 A 
ATOM      3  C   UNL     1       3.116   6.574  17.932  0.00  0.00    +0.000 A 
ATOM      4  C   UNL     1       2.378   7.320  18.877  0.00  0.00    +0.000 A 
ATOM      5  N   UNL     1       1.916   8.625  18.733  0.00  0.00    +0.000 NA
ATOM      6  C   UNL     1       1.341   9.018  19.848  0.00  0.00    +0.000 A 
ATOM      7  N   UNL     1       0.828  10.280  20.027  0.00  0.00    +0.000 N 
ATOM      8  C   UNL     1       0.481  10.838  21.239  0.00  0.00    +0.000 C 
ATOM      9  O   UNL     1       0.696  10.354  22.349  0.00  0.00    +0.000 OA
ATOM     10  S   UNL     1       1.181   7.823  21.055  0.00  0.00    +0.000 S 
ATOM     11  C   UNL     1       2.067   6.714  20.097  0.00  0.00    +0.000 A 
ATOM     12  C   UNL     1       2.455   5.403  20.415  0.00  0.00    +0.000 A 
ATOM     13  H   UNL     1       0.782  10.870  19.203  0.00  0.00    +0.000 HD
ENDROOT
BRANCH   1  15
ATOM     14  C   UNL     1       2.995   2.081  18.515  0.00  0.00    +0.000 C 
ATOM     15  S   UNL     1       3.694   3.029  19.838  0.00  0.00    +0.000 S 
ATOM     16  O   UNL     1       3.027   2.646  21.072  0.00  0.00    +0.000 OA
ATOM     17  O   UNL     1       5.139   2.963  19.727  0.00  0.00    +0.000 OA
ENDBRANCH   1  15
BRANCH   8  18
ATOM     18  C   UNL     1      -0.140  12.236  21.148  0.00  0.00    +0.000 C 
BRANCH  18  19
ATOM     19  N   UNL     1      -1.577  12.292  21.532  0.00  0.00    +0.000 NA
ATOM     20  C   UNL     1      -1.746  12.848  22.885  0.00  0.00    +0.000 C 
ATOM     21  C   UNL     1      -3.003  12.278  23.552  0.00  0.00    +0.000 C 
ATOM     22  C   UNL     1      -4.328  12.883  23.102  0.00  0.00    +0.000 C 
ATOM     23  C   UNL     1      -4.580  12.832  21.599  0.00  0.00    +0.000 C 
ATOM     24  C   UNL     1      -3.619  13.731  20.834  0.00  0.00    +0.000 C 
ATOM     25  C   UNL     1      -2.280  13.073  20.491  0.00  0.00    +0.000 C 
ENDBRANCH  18  19
ENDBRANCH   8  18
TORSDOF 3
ENDMDL
MODEL 5
REMARK VINA RESULT:      -7.1      7.313      8.696
REMARK  Name = 
REMARK  4 active torsions:
REMARK  status: ('A' for Active; 'I' for Inactive)
REMARK    1  A    between atoms: C_1  and  S_2
REMARK    2  A    between atoms: S_2  and  C_5
REMARK    3  A    between atoms: C_12  and  C_14
REMARK    4  A    between atoms: C_14  and  N_15
REMARK                            x       y       z     vdW  Elec       q    Type
REMARK                         _______ _______ _______ _____ _____    ______ ____
ROOT
ATOM      1  C   UNL     1      -0.483  11.650  21.148  0.00  0.00    +0.000 A 
ATOM      2  C   UNL     1      -0.274  11.972  19.806  0.00  0.00    +0.000 A 
ATOM      3  C   UNL     1       0.444  11.093  18.978  0.00  0.00    +0.000 A 
ATOM      4  C   UNL     1       0.952   9.884  19.501  0.00  0.00    +0.000 A 
ATOM      5  N   UNL     1       1.665   8.909  18.807  0.00  0.00    +0.000 NA
ATOM      6  C   UNL     1       1.903   7.886  19.598  0.00  0.00    +0.000 A 
ATOM      7  N   UNL     1       2.548   6.746  19.182  0.00  0.00    +0.000 N 
ATOM      8  C   UNL     1       2.573   5.548  19.864  0.00  0.00    +0.000 C 
ATOM      9  O   UNL     1       1.922   5.270  20.869  0.00  0.00    +0.000 OA
ATOM     10  S   UNL     1       1.439   8.091  21.227  0.00  0.00    +0.000 S 
ATOM     11  C   UNL     1       0.731   9.605  20.852  0.00  0.00    +0.000 A 
ATOM     12  C   UNL     1       0.030  10.474  21.703  0.00  0.00    +0.000 A 
ATOM     13  H   UNL     1       2.968   6.776  18.260  0.00  0.00    +0.000 HD
ENDROOT
BRANCH   1  15
ATOM     14  C   UNL     1      -1.782  14.126  21.137  0.00  0.00    +0.000 C 
ATOM     15  S   UNL     1      -1.360  12.780  22.209  0.00  0.00    +0.000 S 
ATOM     16  O   UNL     1      -0.412  13.268  23.197  0.00  0.00    +0.000 OA
ATOM     17  O   UNL     1      -2.588  12.128  22.620  0.00  0.00    +0.000 OA
ENDBRANCH   1  15
BRANCH   8  18
ATOM     18  C   UNL     1       3.431   4.458  19.213  0.00  0.00    +0.000 C 
BRANCH  18  19
ATOM     19  N   UNL     1       4.370   4.960  18.173  0.00  0.00    +0.000 NA
ATOM     20  C   UNL     1       5.758   4.965  18.665  0.00  0.00    +0.000 C 
ATOM     21  C   UNL     1       6.572   6.070  17.980  0.00  0.00    +0.000 C 
ATOM     22  C   UNL     1       7.042   5.767  16.562  0.00  0.00    +0.000 C 
ATOM     23  C   UNL     1       5.934   5.383  15.587  0.00  0.00    +0.000 C 
ATOM     24  C   UNL     1       5.312   4.040  15.939  0.00  0.00    +0.000 C 
ATOM     25  C   UNL     1       4.184   4.119  16.971  0.00  0.00    +0.000 C 
ENDBRANCH  18  19
ENDBRANCH   8  18
TORSDOF 3
ENDMDL
MODEL 6
REMARK VINA RESULT:      -7.1      7.270      8.867
REMARK  Name = 
REMARK  4 active torsions:
REMARK  status: ('A' for Active; 'I' for Inactive)
REMARK    1  A    between atoms: C_1  and  S_2
REMARK    2  A    between atoms: S_2  and  C_5
REMARK    3  A    between atoms: C_12  and  C_14
REMARK    4  A    between atoms: C_14  and  N_15
REMARK                            x       y       z     vdW  Elec       q    Type
REMARK                         _______ _______ _______ _____ _____    ______ ____
ROOT
ATOM      1  C   UNL     1      -0.951  11.600  20.628  0.00  0.00    +0.000 A 
ATOM      2  C   UNL     1      -0.583  11.901  19.316  0.00  0.00    +0.000 A 
ATOM      3  C   UNL     1       0.299  11.054  18.623  0.00  0.00    +0.000 A 
ATOM      4  C   UNL     1       0.810   9.898  19.252  0.00  0.00    +0.000 A 
ATOM      5  N   UNL     1       1.674   8.958  18.695  0.00  0.00    +0.000 NA
ATOM      6  C   UNL     1       1.869   7.976  19.546  0.00  0.00    +0.000 A 
ATOM      7  N   UNL     1       2.640   6.874  19.261  0.00  0.00    +0.000 N 
ATOM      8  C   UNL     1       2.651   5.698  19.981  0.00  0.00    +0.000 C 
ATOM      9  O   UNL     1       1.888   5.401  20.899  0.00  0.00    +0.000 OA
ATOM     10  S   UNL     1       1.174   8.189  21.089  0.00  0.00    +0.000 S 
ATOM     11  C   UNL     1       0.425   9.639  20.569  0.00  0.00    +0.000 A 
ATOM     12  C   UNL     1      -0.442  10.477  21.287  0.00  0.00    +0.000 A 
ATOM     13  H   UNL     1       3.179   6.910  18.403  0.00  0.00    +0.000 HD
ENDROOT
BRANCH   1  15
ATOM     14  C   UNL     1      -2.155  11.953  23.127  0.00  0.00    +0.000 C 
ATOM     15  S   UNL     1      -2.038  12.692  21.521  0.00  0.00    +0.000 S 
ATOM     16  O   UNL     1      -3.345  12.613  20.889  0.00  0.00    +0.000 OA
ATOM     17  O   UNL     1      -1.358  13.966  21.658  0.00  0.00    +0.000 OA
ENDBRANCH   1  15
BRANCH   8  18
ATOM     18  C   UNL     1       3.660   4.655  19.490  0.00  0.00    +0.000 C 
BRANCH  18  19
ATOM     19  N   UNL     1       4.492   5.104  18.340  0.00  0.00    +0.000 NA
ATOM     20  C   UNL     1       5.925   5.076  18.675  0.00  0.00    +0.000 C 
ATOM     21  C   UNL     1       6.690   6.138  17.877  0.00  0.00    +0.000 C 
ATOM     22  C   UNL     1       6.990   5.790  16.423  0.00  0.00    +0.000 C 
ATOM     23  C   UNL     1       5.769   5.421  15.587  0.00  0.00    +0.000 C 
ATOM     24  C   UNL     1       5.152   4.106  16.039  0.00  0.00    +0.000 C 
ATOM     25  C   UNL     1       4.149   4.244  17.187  0.00  0.00    +0.000 C 
ENDBRANCH  18  19
ENDBRANCH   8  18
TORSDOF 3
ENDMDL
MODEL 7
REMARK VINA RESULT:      -7.1      7.355      8.339
REMARK  Name = 
REMARK  4 active torsions:
REMARK  status: ('A' for Active; 'I' for Inactive)
REMARK    1  A    between atoms: C_1  and  S_2
REMARK    2  A    between atoms: S_2  and  C_5
REMARK    3  A    between atoms: C_12  and  C_14
REMARK    4  A    between atoms: C_14  and  N_15
REMARK                            x       y       z     vdW  Elec       q    Type
REMARK                         _______ _______ _______ _____ _____    ______ ____
ROOT
ATOM      1  C   UNL     1       0.376  10.949  20.680  0.00  0.00    +0.000 A 
ATOM      2  C   UNL     1       0.533  11.362  19.357  0.00  0.00    +0.000 A 
ATOM      3  C   UNL     1       1.081  10.482  18.408  0.00  0.00    +0.000 A 
ATOM      4  C   UNL     1       1.472   9.180  18.792  0.00  0.00    +0.000 A 
ATOM      5  N   UNL     1       2.011   8.195  17.970  0.00  0.00    +0.000 NA
ATOM      6  C   UNL     1       2.175   7.085  18.656  0.00  0.00    +0.000 A 
ATOM      7  N   UNL     1       2.646   5.919  18.102  0.00  0.00    +0.000 N 
ATOM      8  C   UNL     1       2.569   4.671  18.681  0.00  0.00    +0.000 C 
ATOM      9  O   UNL     1       1.958   4.383  19.709  0.00  0.00    +0.000 OA
ATOM     10  S   UNL     1       1.849   7.198  20.327  0.00  0.00    +0.000 S 
ATOM     11  C   UNL     1       1.308   8.811  20.129  0.00  0.00    +0.000 A 
ATOM     12  C   UNL     1       0.777   9.677  21.098  0.00  0.00    +0.000 A 
ATOM     13  H   UNL     1       3.004   5.982  17.155  0.00  0.00    +0.000 HD
ENDROOT
BRANCH   1  15
ATOM     14  C   UNL     1      -1.862  12.533  21.231  0.00  0.00    +0.000 C 
ATOM     15  S   UNL     1      -0.283  12.075  21.892  0.00  0.00    +0.000 S 
ATOM     16  O   UNL     1       0.567  13.255  21.893  0.00  0.00    +0.000 OA
ATOM     17  O   UNL     1      -0.505  11.322  23.111  0.00  0.00    +0.000 OA
ENDBRANCH   1  15
BRANCH   8  18
ATOM     18  C   UNL     1       3.243   3.550  17.882  0.00  0.00    +0.000 C 
BRANCH  18  19
ATOM     19  N   UNL     1       4.683   3.787  17.593  0.00  0.00    +0.000 NA
ATOM     20  C   UNL     1       4.862   4.500  16.318  0.00  0.00    +0.000 C 
ATOM     21  C   UNL     1       6.203   4.130  15.672  0.00  0.00    +0.000 C 
ATOM     22  C   UNL     1       7.434   4.810  16.261  0.00  0.00    +0.000 C 
ATOM     23  C   UNL     1       7.614   4.620  17.764  0.00  0.00    +0.000 C 
ATOM     24  C   UNL     1       6.529   5.333  18.557  0.00  0.00    +0.000 C 
ATOM     25  C   UNL     1       5.250   4.515  18.749  0.00  0.00    +0.000 C 
ENDBRANCH  18  19
ENDBRANCH   8  18
TORSDOF 3
ENDMDL
MODEL 8
REMARK VINA RESULT:      -7.1      7.426      9.275
REMARK  Name = 
REMARK  4 active torsions:
REMARK  status: ('A' for Active; 'I' for Inactive)
REMARK    1  A    between atoms: C_1  and  S_2
REMARK    2  A    between atoms: S_2  and  C_5
REMARK    3  A    between atoms: C_12  and  C_14
REMARK    4  A    between atoms: C_14  and  N_15
REMARK                            x       y       z     vdW  Elec       q    Type
REMARK                         _______ _______ _______ _____ _____    ______ ____
ROOT
ATOM      1  C   UNL     1      -1.386  11.681  22.099  0.00  0.00    +0.000 A 
ATOM      2  C   UNL     1      -0.993  10.878  23.170  0.00  0.00    +0.000 A 
ATOM      3  C   UNL     1      -0.168   9.763  22.944  0.00  0.00    +0.000 A 
ATOM      4  C   UNL     1       0.265   9.456  21.636  0.00  0.00    +0.000 A 
ATOM      5  N   UNL     1       1.093   8.402  21.256  0.00  0.00    +0.000 NA
ATOM      6  C   UNL     1       1.347   8.479  19.969  0.00  0.00    +0.000 A 
ATOM      7  N   UNL     1       2.177   7.602  19.311  0.00  0.00    +0.000 N 
ATOM      8  C   UNL     1       2.705   7.793  18.052  0.00  0.00    +0.000 C 
ATOM      9  O   UNL     1       2.629   8.821  17.381  0.00  0.00    +0.000 OA
ATOM     10  S   UNL     1       0.503   9.696  19.123  0.00  0.00    +0.000 S 
ATOM     11  C   UNL     1      -0.160  10.279  20.590  0.00  0.00    +0.000 A 
ATOM     12  C   UNL     1      -0.996  11.389  20.788  0.00  0.00    +0.000 A 
ATOM     13  H   UNL     1       2.484   6.791  19.836  0.00  0.00    +0.000 HD
ENDROOT
BRANCH   1  15
ATOM     14  C   UNL     1      -2.463  13.925  20.824  0.00  0.00    +0.000 C 
ATOM     15  S   UNL     1      -2.463  13.071  22.377  0.00  0.00    +0.000 S 
ATOM     16  O   UNL     1      -1.820  13.925  23.363  0.00  0.00    +0.000 OA
ATOM     17  O   UNL     1      -3.797  12.550  22.606  0.00  0.00    +0.000 OA
ENDBRANCH   1  15
BRANCH   8  18
ATOM     18  C   UNL     1       3.539   6.623  17.522  0.00  0.00    +0.000 C 
BRANCH  18  19
ATOM     19  N   UNL     1       4.937   6.589  18.032  0.00  0.00    +0.000 NA
ATOM     20  C   UNL     1       5.341   5.220  18.393  0.00  0.00    +0.000 C 
ATOM     21  C   UNL     1       6.384   5.239  19.517  0.00  0.00    +0.000 C 
ATOM     22  C   UNL     1       7.808   5.583  19.095  0.00  0.00    +0.000 C 
ATOM     23  C   UNL     1       7.956   6.905  18.349  0.00  0.00    +0.000 C 
ATOM     24  C   UNL     1       7.293   6.858  16.981  0.00  0.00    +0.000 C 
ATOM     25  C   UNL     1       5.799   7.193  16.994  0.00  0.00    +0.000 C 
ENDBRANCH  18  19
ENDBRANCH   8  18
TORSDOF 3
ENDMDL
MODEL 9
REMARK VINA RESULT:      -7.0      9.484     12.189
REMARK  Name = 
REMARK  4 active torsions:
REMARK  status: ('A' for Active; 'I' for Inactive)
REMARK    1  A    between atoms: C_1  and  S_2
REMARK    2  A    between atoms: S_2  and  C_5
REMARK    3  A    between atoms: C_12  and  C_14
REMARK    4  A    between atoms: C_14  and  N_15
REMARK                            x       y       z     vdW  Elec       q    Type
REMARK                         _______ _______ _______ _____ _____    ______ ____
ROOT
ATOM      1  C   UNL     1       2.619   6.367  19.263  0.00  0.00    +0.000 A 
ATOM      2  C   UNL     1       2.814   7.227  18.181  0.00  0.00    +0.000 A 
ATOM      3  C   UNL     1       2.244   8.511  18.194  0.00  0.00    +0.000 A 
ATOM      4  C   UNL     1       1.475   8.933  19.301  0.00  0.00    +0.000 A 
ATOM      5  N   UNL     1       0.864  10.173  19.468  0.00  0.00    +0.000 NA
ATOM      6  C   UNL     1       0.304  10.235  20.656  0.00  0.00    +0.000 A 
ATOM      7  N   UNL     1      -0.337  11.355  21.128  0.00  0.00    +0.000 N 
ATOM      8  C   UNL     1      -0.684  11.582  22.443  0.00  0.00    +0.000 C 
ATOM      9  O   UNL     1      -0.362  10.893  23.409  0.00  0.00    +0.000 OA
ATOM     10  S   UNL     1       0.338   8.791  21.563  0.00  0.00    +0.000 S 
ATOM     11  C   UNL     1       1.294   8.038  20.358  0.00  0.00    +0.000 A 
ATOM     12  C   UNL     1       1.841   6.745  20.361  0.00  0.00    +0.000 A 
ATOM     13  H   UNL     1      -0.489  12.104  20.462  0.00  0.00    +0.000 HD
ENDROOT
BRANCH   1  15
ATOM     14  C   UNL     1       5.058   5.000  19.280  0.00  0.00    +0.000 C 
ATOM     15  S   UNL     1       3.308   4.726  19.231  0.00  0.00    +0.000 S 
ATOM     16  O   UNL     1       2.976   4.142  17.942  0.00  0.00    +0.000 OA
ATOM     17  O   UNL     1       2.921   4.067  20.464  0.00  0.00    +0.000 OA
ENDBRANCH   1  15
BRANCH   8  18
ATOM     18  C   UNL     1      -1.460  12.881  22.687  0.00  0.00    +0.000 C 
BRANCH  18  19
ATOM     19  N   UNL     1      -2.930  12.695  22.833  0.00  0.00    +0.000 NA
ATOM     20  C   UNL     1      -3.407  13.214  24.126  0.00  0.00    +0.000 C 
ATOM     21  C   UNL     1      -4.644  12.442  24.599  0.00  0.00    +0.000 C 
ATOM     22  C   UNL     1      -5.960  12.816  23.925  0.00  0.00    +0.000 C 
ATOM     23  C   UNL     1      -5.951  12.723  22.403  0.00  0.00    +0.000 C 
ATOM     24  C   UNL     1      -5.041  13.770  21.778  0.00  0.00    +0.000 C 
ATOM     25  C   UNL     1      -3.574  13.346  21.673  0.00  0.00    +0.000 C 
ENDBRANCH  18  19
ENDBRANCH   8  18
TORSDOF 3
ENDMDL
