MODEL 1
REMARK VINA RESULT:      -6.7      0.000      0.000
REMARK  Name = 
REMARK  6 active torsions:
REMARK  status: ('A' for Active; 'I' for Inactive)
REMARK    1  A    between atoms: C_1  and  O_2
REMARK    2  A    between atoms: O_2  and  C_3
REMARK    3  A    between atoms: C_6  and  S_7
REMARK    4  A    between atoms: S_7  and  N_10
REMARK    5  A    between atoms: C_14  and  C_15
REMARK    6  A    between atoms: C_17  and  C_18
REMARK                            x       y       z     vdW  Elec       q    Type
REMARK                         _______ _______ _______ _____ _____    ______ ____
ROOT
ATOM      1  C   UNL     1       6.718   5.829  17.197  0.00  0.00    +0.000 A 
ATOM      2  C   UNL     1       6.544   5.682  18.579  0.00  0.00    +0.000 A 
ATOM      3  C   UNL     1       5.771   4.641  19.088  0.00  0.00    +0.000 A 
ATOM      4  C   UNL     1       5.128   3.767  18.214  0.00  0.00    +0.000 A 
ATOM      5  C   UNL     1       5.282   3.907  16.830  0.00  0.00    +0.000 A 
ATOM      6  C   UNL     1       6.072   4.947  16.311  0.00  0.00    +0.000 A 
ATOM      7  C   UNL     1       6.202   5.103  14.820  0.00  0.00    +0.000 C 
ENDROOT
BRANCH   4   8
ATOM      8  S   UNL     1       4.196   2.397  18.875  0.00  0.00    +0.000 S 
ATOM      9  O   UNL     1       3.784   1.576  17.757  0.00  0.00    +0.000 OA
ATOM     10  O   UNL     1       4.968   1.846  19.970  0.00  0.00    +0.000 OA
BRANCH   8  11
ATOM     11  N   UNL     1       2.816   3.126  19.537  0.00  0.00    +0.000 NA
ATOM     12  C   UNL     1       2.568   2.931  20.979  0.00  0.00    +0.000 C 
ATOM     13  C   UNL     1       1.465   3.875  21.421  0.00  0.00    +0.000 C 
ATOM     14  S   UNL     1       1.756   5.373  20.469  0.00  0.00    +0.000 S 
ATOM     15  C   UNL     1       2.489   4.482  19.066  0.00  0.00    +0.000 C 
ATOM     16  C   UNL     1       1.485   4.396  17.922  0.00  0.00    +0.000 C 
ENDBRANCH   8  11
ENDBRANCH   4   8
BRANCH   1  18
ATOM     17  C   UNL     1       7.742   7.937  17.478  0.00  0.00    +0.000 C 
ATOM     18  O   UNL     1       7.494   6.811  16.638  0.00  0.00    +0.000 OA
ENDBRANCH   1  18
TORSDOF 3
ENDMDL
MODEL 2
REMARK VINA RESULT:      -6.6      1.302      1.893
REMARK  Name = 
REMARK  6 active torsions:
REMARK  status: ('A' for Active; 'I' for Inactive)
REMARK    1  A    between atoms: C_1  and  O_2
REMARK    2  A    between atoms: O_2  and  C_3
REMARK    3  A    between atoms: C_6  and  S_7
REMARK    4  A    between atoms: S_7  and  N_10
REMARK    5  A    between atoms: C_14  and  C_15
REMARK    6  A    between atoms: C_17  and  C_18
REMARK                            x       y       z     vdW  Elec       q    Type
REMARK                         _______ _______ _______ _____ _____    ______ ____
ROOT
ATOM      1  C   UNL     1       6.643   5.974  16.779  0.00  0.00    +0.000 A 
ATOM      2  C   UNL     1       5.922   6.035  17.978  0.00  0.00    +0.000 A 
ATOM      3  C   UNL     1       4.864   5.159  18.213  0.00  0.00    +0.000 A 
ATOM      4  C   UNL     1       4.491   4.246  17.228  0.00  0.00    +0.000 A 
ATOM      5  C   UNL     1       5.194   4.181  16.020  0.00  0.00    +0.000 A 
ATOM      6  C   UNL     1       6.270   5.053  15.783  0.00  0.00    +0.000 A 
ATOM      7  C   UNL     1       6.995   4.991  14.465  0.00  0.00    +0.000 C 
ENDROOT
BRANCH   4   8
ATOM      8  S   UNL     1       3.181   3.083  17.564  0.00  0.00    +0.000 S 
ATOM      9  O   UNL     1       2.086   3.397  16.672  0.00  0.00    +0.000 OA
ATOM     10  O   UNL     1       3.779   1.764  17.588  0.00  0.00    +0.000 OA
BRANCH   8  11
ATOM     11  N   UNL     1       2.703   3.457  19.147  0.00  0.00    +0.000 NA
ATOM     12  C   UNL     1       1.527   4.333  19.314  0.00  0.00    +0.000 C 
ATOM     13  C   UNL     1       1.105   4.316  20.772  0.00  0.00    +0.000 C 
ATOM     14  S   UNL     1       1.394   2.621  21.298  0.00  0.00    +0.000 S 
ATOM     15  C   UNL     1       2.768   2.368  20.136  0.00  0.00    +0.000 C 
ATOM     16  C   UNL     1       4.096   2.431  20.879  0.00  0.00    +0.000 C 
ENDBRANCH   8  11
ENDBRANCH   4   8
BRANCH   1  18
ATOM     17  C   UNL     1       7.825   7.940  17.335  0.00  0.00    +0.000 C 
ATOM     18  O   UNL     1       7.713   6.786  16.505  0.00  0.00    +0.000 OA
ENDBRANCH   1  18
TORSDOF 3
ENDMDL
MODEL 3
REMARK VINA RESULT:      -6.5      2.269      3.090
REMARK  Name = 
REMARK  6 active torsions:
REMARK  status: ('A' for Active; 'I' for Inactive)
REMARK    1  A    between atoms: C_1  and  O_2
REMARK    2  A    between atoms: O_2  and  C_3
REMARK    3  A    between atoms: C_6  and  S_7
REMARK    4  A    between atoms: S_7  and  N_10
REMARK    5  A    between atoms: C_14  and  C_15
REMARK    6  A    between atoms: C_17  and  C_18
REMARK                            x       y       z     vdW  Elec       q    Type
REMARK                         _______ _______ _______ _____ _____    ______ ____
ROOT
ATOM      1  C   UNL     1       6.397   5.286  15.922  0.00  0.00    +0.000 A 
ATOM      2  C   UNL     1       5.390   4.359  15.626  0.00  0.00    +0.000 A 
ATOM      3  C   UNL     1       4.186   4.375  16.327  0.00  0.00    +0.000 A 
ATOM      4  C   UNL     1       4.002   5.291  17.362  0.00  0.00    +0.000 A 
ATOM      5  C   UNL     1       5.003   6.216  17.676  0.00  0.00    +0.000 A 
ATOM      6  C   UNL     1       6.214   6.213  16.964  0.00  0.00    +0.000 A 
ATOM      7  C   UNL     1       7.293   7.193  17.337  0.00  0.00    +0.000 C 
ENDROOT
BRANCH   4   8
ATOM      8  S   UNL     1       2.432   5.350  18.208  0.00  0.00    +0.000 S 
ATOM      9  O   UNL     1       2.269   6.694  18.721  0.00  0.00    +0.000 OA
ATOM     10  O   UNL     1       1.450   4.756  17.324  0.00  0.00    +0.000 OA
BRANCH   8  11
ATOM     11  N   UNL     1       2.640   4.300  19.522  0.00  0.00    +0.000 NA
ATOM     12  C   UNL     1       2.390   4.841  20.873  0.00  0.00    +0.000 C 
ATOM     13  C   UNL     1       2.357   3.692  21.865  0.00  0.00    +0.000 C 
ATOM     14  S   UNL     1       1.561   2.353  20.966  0.00  0.00    +0.000 S 
ATOM     15  C   UNL     1       2.168   2.916  19.349  0.00  0.00    +0.000 C 
ATOM     16  C   UNL     1       3.324   2.035  18.892  0.00  0.00    +0.000 C 
ENDBRANCH   8  11
ENDBRANCH   4   8
BRANCH   1  18
ATOM     17  C   UNL     1       7.512   5.010  13.859  0.00  0.00    +0.000 C 
ATOM     18  O   UNL     1       7.588   5.341  15.244  0.00  0.00    +0.000 OA
ENDBRANCH   1  18
TORSDOF 3
ENDMDL
MODEL 4
REMARK VINA RESULT:      -6.5      3.693      5.519
REMARK  Name = 
REMARK  6 active torsions:
REMARK  status: ('A' for Active; 'I' for Inactive)
REMARK    1  A    between atoms: C_1  and  O_2
REMARK    2  A    between atoms: O_2  and  C_3
REMARK    3  A    between atoms: C_6  and  S_7
REMARK    4  A    between atoms: S_7  and  N_10
REMARK    5  A    between atoms: C_14  and  C_15
REMARK    6  A    between atoms: C_17  and  C_18
REMARK                            x       y       z     vdW  Elec       q    Type
REMARK                         _______ _______ _______ _____ _____    ______ ____
ROOT
ATOM      1  C   UNL     1       1.357   8.478  20.048  0.00  0.00    +0.000 A 
ATOM      2  C   UNL     1       1.385   7.337  20.858  0.00  0.00    +0.000 A 
ATOM      3  C   UNL     1       2.027   6.177  20.427  0.00  0.00    +0.000 A 
ATOM      4  C   UNL     1       2.604   6.139  19.159  0.00  0.00    +0.000 A 
ATOM      5  C   UNL     1       2.574   7.268  18.332  0.00  0.00    +0.000 A 
ATOM      6  C   UNL     1       1.941   8.444  18.768  0.00  0.00    +0.000 A 
ATOM      7  C   UNL     1       1.890   9.638  17.854  0.00  0.00    +0.000 C 
ENDROOT
BRANCH   4   8
ATOM      8  S   UNL     1       3.482   4.675  18.641  0.00  0.00    +0.000 S 
ATOM      9  O   UNL     1       3.616   3.820  19.801  0.00  0.00    +0.000 OA
ATOM     10  O   UNL     1       2.846   4.204  17.427  0.00  0.00    +0.000 OA
BRANCH   8  11
ATOM     11  N   UNL     1       5.020   5.251  18.223  0.00  0.00    +0.000 NA
ATOM     12  C   UNL     1       6.057   5.249  19.274  0.00  0.00    +0.000 C 
ATOM     13  C   UNL     1       7.405   5.531  18.635  0.00  0.00    +0.000 C 
ATOM     14  S   UNL     1       7.332   4.682  17.052  0.00  0.00    +0.000 S 
ATOM     15  C   UNL     1       5.533   4.877  16.895  0.00  0.00    +0.000 C 
ATOM     16  C   UNL     1       5.214   5.982  15.894  0.00  0.00    +0.000 C 
ENDBRANCH   8  11
ENDBRANCH   4   8
BRANCH   1  18
ATOM     17  C   UNL     1       0.018   9.592  21.641  0.00  0.00    +0.000 C 
ATOM     18  O   UNL     1       0.772   9.657  20.432  0.00  0.00    +0.000 OA
ENDBRANCH   1  18
TORSDOF 3
ENDMDL
MODEL 5
REMARK VINA RESULT:      -6.3      4.132      5.619
REMARK  Name = 
REMARK  6 active torsions:
REMARK  status: ('A' for Active; 'I' for Inactive)
REMARK    1  A    between atoms: C_1  and  O_2
REMARK    2  A    between atoms: O_2  and  C_3
REMARK    3  A    between atoms: C_6  and  S_7
REMARK    4  A    between atoms: S_7  and  N_10
REMARK    5  A    between atoms: C_14  and  C_15
REMARK    6  A    between atoms: C_17  and  C_18
REMARK                            x       y       z     vdW  Elec       q    Type
REMARK                         _______ _______ _______ _____ _____    ______ ____
ROOT
ATOM      1  C   UNL     1       1.016   9.528  19.395  0.00  0.00    +0.000 A 
ATOM      2  C   UNL     1       1.572   9.268  18.136  0.00  0.00    +0.000 A 
ATOM      3  C   UNL     1       2.316   8.111  17.917  0.00  0.00    +0.000 A 
ATOM      4  C   UNL     1       2.549   7.229  18.971  0.00  0.00    +0.000 A 
ATOM      5  C   UNL     1       2.010   7.481  20.237  0.00  0.00    +0.000 A 
ATOM      6  C   UNL     1       1.246   8.639  20.461  0.00  0.00    +0.000 A 
ATOM      7  C   UNL     1       0.701   8.911  21.837  0.00  0.00    +0.000 C 
ENDROOT
BRANCH   4   8
ATOM      8  S   UNL     1       3.445   5.717  18.665  0.00  0.00    +0.000 S 
ATOM      9  O   UNL     1       3.701   5.648  17.243  0.00  0.00    +0.000 OA
ATOM     10  O   UNL     1       4.525   5.660  19.630  0.00  0.00    +0.000 OA
BRANCH   8  11
ATOM     11  N   UNL     1       2.335   4.500  19.067  0.00  0.00    +0.000 NA
ATOM     12  C   UNL     1       1.580   3.876  17.963  0.00  0.00    +0.000 C 
ATOM     13  C   UNL     1       0.864   2.646  18.490  0.00  0.00    +0.000 C 
ATOM     14  S   UNL     1       2.016   1.938  19.677  0.00  0.00    +0.000 S 
ATOM     15  C   UNL     1       2.744   3.545  20.110  0.00  0.00    +0.000 C 
ATOM     16  C   UNL     1       2.216   4.008  21.462  0.00  0.00    +0.000 C 
ENDBRANCH   8  11
ENDBRANCH   4   8
BRANCH   1  18
ATOM     17  C   UNL     1      -0.604  11.048  18.595  0.00  0.00    +0.000 C 
ATOM     18  O   UNL     1       0.246  10.631  19.661  0.00  0.00    +0.000 OA
ENDBRANCH   1  18
TORSDOF 3
ENDMDL
MODEL 6
REMARK VINA RESULT:      -6.2      1.929      2.868
REMARK  Name = 
REMARK  6 active torsions:
REMARK  status: ('A' for Active; 'I' for Inactive)
REMARK    1  A    between atoms: C_1  and  O_2
REMARK    2  A    between atoms: O_2  and  C_3
REMARK    3  A    between atoms: C_6  and  S_7
REMARK    4  A    between atoms: S_7  and  N_10
REMARK    5  A    between atoms: C_14  and  C_15
REMARK    6  A    between atoms: C_17  and  C_18
REMARK                            x       y       z     vdW  Elec       q    Type
REMARK                         _______ _______ _______ _____ _____    ______ ____
ROOT
ATOM      1  C   UNL     1       6.413   5.050  15.724  0.00  0.00    +0.000 A 
ATOM      2  C   UNL     1       5.790   3.842  15.390  0.00  0.00    +0.000 A 
ATOM      3  C   UNL     1       4.588   3.475  15.991  0.00  0.00    +0.000 A 
ATOM      4  C   UNL     1       4.027   4.296  16.968  0.00  0.00    +0.000 A 
ATOM      5  C   UNL     1       4.644   5.501  17.321  0.00  0.00    +0.000 A 
ATOM      6  C   UNL     1       5.848   5.882  16.708  0.00  0.00    +0.000 A 
ATOM      7  C   UNL     1       6.516   7.166  17.122  0.00  0.00    +0.000 C 
ENDROOT
BRANCH   4   8
ATOM      8  S   UNL     1       2.454   3.853  17.684  0.00  0.00    +0.000 S 
ATOM      9  O   UNL     1       1.531   4.931  17.399  0.00  0.00    +0.000 OA
ATOM     10  O   UNL     1       2.170   2.491  17.280  0.00  0.00    +0.000 OA
BRANCH   8  11
ATOM     11  N   UNL     1       2.757   3.839  19.353  0.00  0.00    +0.000 NA
ATOM     12  C   UNL     1       2.001   4.792  20.190  0.00  0.00    +0.000 C 
ATOM     13  C   UNL     1       2.207   4.433  21.651  0.00  0.00    +0.000 C 
ATOM     14  S   UNL     1       2.256   2.635  21.663  0.00  0.00    +0.000 S 
ATOM     15  C   UNL     1       2.941   2.523  19.984  0.00  0.00    +0.000 C 
ATOM     16  C   UNL     1       4.427   2.191  20.050  0.00  0.00    +0.000 C 
ENDBRANCH   8  11
ENDBRANCH   4   8
BRANCH   1  18
ATOM     17  C   UNL     1       7.677   5.240  13.738  0.00  0.00    +0.000 C 
ATOM     18  O   UNL     1       7.577   5.480  15.141  0.00  0.00    +0.000 OA
ENDBRANCH   1  18
TORSDOF 3
ENDMDL
MODEL 7
REMARK VINA RESULT:      -6.1      1.065      2.037
REMARK  Name = 
REMARK  6 active torsions:
REMARK  status: ('A' for Active; 'I' for Inactive)
REMARK    1  A    between atoms: C_1  and  O_2
REMARK    2  A    between atoms: O_2  and  C_3
REMARK    3  A    between atoms: C_6  and  S_7
REMARK    4  A    between atoms: S_7  and  N_10
REMARK    5  A    between atoms: C_14  and  C_15
REMARK    6  A    between atoms: C_17  and  C_18
REMARK                            x       y       z     vdW  Elec       q    Type
REMARK                         _______ _______ _______ _____ _____    ______ ____
ROOT
ATOM      1  C   UNL     1       6.602   4.943  16.154  0.00  0.00    +0.000 A 
ATOM      2  C   UNL     1       5.737   3.936  15.710  0.00  0.00    +0.000 A 
ATOM      3  C   UNL     1       4.930   3.248  16.614  0.00  0.00    +0.000 A 
ATOM      4  C   UNL     1       5.020   3.532  17.975  0.00  0.00    +0.000 A 
ATOM      5  C   UNL     1       5.888   4.528  18.435  0.00  0.00    +0.000 A 
ATOM      6  C   UNL     1       6.694   5.235  17.527  0.00  0.00    +0.000 A 
ATOM      7  C   UNL     1       7.646   6.281  18.042  0.00  0.00    +0.000 C 
ENDROOT
BRANCH   4   8
ATOM      8  S   UNL     1       3.934   2.695  19.117  0.00  0.00    +0.000 S 
ATOM      9  O   UNL     1       3.293   1.619  18.393  0.00  0.00    +0.000 OA
ATOM     10  O   UNL     1       4.697   2.443  20.323  0.00  0.00    +0.000 OA
BRANCH   8  11
ATOM     11  N   UNL     1       2.760   3.861  19.489  0.00  0.00    +0.000 NA
ATOM     12  C   UNL     1       2.663   4.306  20.894  0.00  0.00    +0.000 C 
ATOM     13  C   UNL     1       1.764   5.527  20.962  0.00  0.00    +0.000 C 
ATOM     14  S   UNL     1       2.145   6.441  19.460  0.00  0.00    +0.000 S 
ATOM     15  C   UNL     1       2.571   4.949  18.516  0.00  0.00    +0.000 C 
ATOM     16  C   UNL     1       1.434   4.592  17.565  0.00  0.00    +0.000 C 
ENDBRANCH   8  11
ENDBRANCH   4   8
BRANCH   1  18
ATOM     17  C   UNL     1       7.435   5.213  13.961  0.00  0.00    +0.000 C 
ATOM     18  O   UNL     1       7.395   5.677  15.309  0.00  0.00    +0.000 OA
ENDBRANCH   1  18
TORSDOF 3
ENDMDL
MODEL 8
REMARK VINA RESULT:      -6.1      3.234      5.250
REMARK  Name = 
REMARK  6 active torsions:
REMARK  status: ('A' for Active; 'I' for Inactive)
REMARK    1  A    between atoms: C_1  and  O_2
REMARK    2  A    between atoms: O_2  and  C_3
REMARK    3  A    between atoms: C_6  and  S_7
REMARK    4  A    between atoms: S_7  and  N_10
REMARK    5  A    between atoms: C_14  and  C_15
REMARK    6  A    between atoms: C_17  and  C_18
REMARK                            x       y       z     vdW  Elec       q    Type
REMARK                         _______ _______ _______ _____ _____    ______ ____
ROOT
ATOM      1  C   UNL     1       1.857   7.617  19.919  0.00  0.00    +0.000 A 
ATOM      2  C   UNL     1       1.952   6.443  20.676  0.00  0.00    +0.000 A 
ATOM      3  C   UNL     1       2.537   5.299  20.138  0.00  0.00    +0.000 A 
ATOM      4  C   UNL     1       2.987   5.309  18.819  0.00  0.00    +0.000 A 
ATOM      5  C   UNL     1       2.888   6.470  18.045  0.00  0.00    +0.000 A 
ATOM      6  C   UNL     1       2.312   7.631  18.587  0.00  0.00    +0.000 A 
ATOM      7  C   UNL     1       2.184   8.862  17.731  0.00  0.00    +0.000 C 
ENDROOT
BRANCH   4   8
ATOM      8  S   UNL     1       3.796   3.862  18.160  0.00  0.00    +0.000 S 
ATOM      9  O   UNL     1       4.018   2.951  19.263  0.00  0.00    +0.000 OA
ATOM     10  O   UNL     1       3.051   3.455  16.985  0.00  0.00    +0.000 OA
BRANCH   8  11
ATOM     11  N   UNL     1       5.301   4.441  17.636  0.00  0.00    +0.000 NA
ATOM     12  C   UNL     1       5.591   4.373  16.190  0.00  0.00    +0.000 C 
ATOM     13  C   UNL     1       6.844   5.181  15.902  0.00  0.00    +0.000 C 
ATOM     14  S   UNL     1       6.729   6.589  17.015  0.00  0.00    +0.000 S 
ATOM     15  C   UNL     1       5.801   5.668  18.276  0.00  0.00    +0.000 C 
ATOM     16  C   UNL     1       6.721   5.302  19.435  0.00  0.00    +0.000 C 
ENDBRANCH   8  11
ENDBRANCH   4   8
BRANCH   1  18
ATOM     17  C   UNL     1       0.351   8.619  21.435  0.00  0.00    +0.000 C 
ATOM     18  O   UNL     1       1.324   8.782  20.405  0.00  0.00    +0.000 OA
ENDBRANCH   1  18
TORSDOF 3
ENDMDL
MODEL 9
REMARK VINA RESULT:      -6.0      2.418      3.783
REMARK  Name = 
REMARK  6 active torsions:
REMARK  status: ('A' for Active; 'I' for Inactive)
REMARK    1  A    between atoms: C_1  and  O_2
REMARK    2  A    between atoms: O_2  and  C_3
REMARK    3  A    between atoms: C_6  and  S_7
REMARK    4  A    between atoms: S_7  and  N_10
REMARK    5  A    between atoms: C_14  and  C_15
REMARK    6  A    between atoms: C_17  and  C_18
REMARK                            x       y       z     vdW  Elec       q    Type
REMARK                         _______ _______ _______ _____ _____    ______ ____
ROOT
ATOM      1  C   UNL     1       6.148   3.921  13.629  0.00  0.00    +0.000 A 
ATOM      2  C   UNL     1       5.234   3.352  14.523  0.00  0.00    +0.000 A 
ATOM      3  C   UNL     1       5.225   3.731  15.864  0.00  0.00    +0.000 A 
ATOM      4  C   UNL     1       6.165   4.649  16.328  0.00  0.00    +0.000 A 
ATOM      5  C   UNL     1       7.093   5.218  15.449  0.00  0.00    +0.000 A 
ATOM      6  C   UNL     1       7.098   4.850  14.093  0.00  0.00    +0.000 A 
ATOM      7  C   UNL     1       8.123   5.448  13.168  0.00  0.00    +0.000 C 
ENDROOT
BRANCH   4   8
ATOM      8  S   UNL     1       6.103   5.180  18.030  0.00  0.00    +0.000 S 
ATOM      9  O   UNL     1       7.172   4.502  18.732  0.00  0.00    +0.000 OA
ATOM     10  O   UNL     1       6.004   6.625  18.022  0.00  0.00    +0.000 OA
BRANCH   8  11
ATOM     11  N   UNL     1       4.625   4.569  18.591  0.00  0.00    +0.000 NA
ATOM     12  C   UNL     1       4.665   3.362  19.441  0.00  0.00    +0.000 C 
ATOM     13  C   UNL     1       3.294   3.148  20.056  0.00  0.00    +0.000 C 
ATOM     14  S   UNL     1       2.696   4.810  20.397  0.00  0.00    +0.000 S 
ATOM     15  C   UNL     1       3.618   5.553  19.020  0.00  0.00    +0.000 C 
ATOM     16  C   UNL     1       2.672   5.853  17.863  0.00  0.00    +0.000 C 
ENDBRANCH   8  11
ENDBRANCH   4   8
BRANCH   1  18
ATOM     17  C   UNL     1       4.933   3.216  11.732  0.00  0.00    +0.000 C 
ATOM     18  O   UNL     1       6.183   3.614  12.293  0.00  0.00    +0.000 OA
ENDBRANCH   1  18
TORSDOF 3
ENDMDL
