MODEL 1
REMARK VINA RESULT:      -7.6      0.000      0.000
REMARK  Name = 
REMARK  10 active torsions:
REMARK  status: ('A' for Active; 'I' for Inactive)
REMARK    1  A    between atoms: C_2  and  C_3
REMARK    2  A    between atoms: C_3  and  O_4
REMARK    3  A    between atoms: O_4  and  C_5
REMARK    4  A    between atoms: C_5  and  C_6
REMARK    5  A    between atoms: C_6  and  O_7
REMARK    6  A    between atoms: O_7  and  C_8
REMARK    7  A    between atoms: C_11  and  C_12
REMARK    8  A    between atoms: C_12  and  N_13
REMARK    9  A    between atoms: N_16  and  C_17
REMARK   10  A    between atoms: C_17  and  C_18
REMARK                            x       y       z     vdW  Elec       q    Type
REMARK                         _______ _______ _______ _____ _____    ______ ____
ROOT
ATOM      1  N   UNL     1       3.368   3.753  18.081  0.00  0.00    +0.000 NA
ATOM      2  C   UNL     1       3.937   4.209  19.360  0.00  0.00    +0.000 C 
ATOM      3  C   UNL     1       3.883   5.715  19.764  0.00  0.00    +0.000 C 
ATOM      4  N   UNL     1       2.776   6.553  19.239  0.00  0.00    +0.000 NA
ATOM      5  C   UNL     1       2.243   6.026  17.963  0.00  0.00    +0.000 C 
ATOM      6  C   UNL     1       2.102   4.488  17.886  0.00  0.00    +0.000 C 
ENDROOT
BRANCH   1   7
ATOM      7  C   UNL     1       4.240   3.796  16.898  0.00  0.00    +0.000 C 
BRANCH   7  11
ATOM      8  C   UNL     1       7.376   6.644  17.841  0.00  0.00    +0.000 A 
ATOM      9  C   UNL     1       6.348   7.038  16.957  0.00  0.00    +0.000 A 
ATOM     10  C   UNL     1       5.371   6.118  16.574  0.00  0.00    +0.000 A 
ATOM     11  C   UNL     1       5.420   4.773  16.917  0.00  0.00    +0.000 A 
ATOM     12  C   UNL     1       6.618   4.347  17.562  0.00  0.00    +0.000 A 
ATOM     13  C   UNL     1       7.514   5.282  18.097  0.00  0.00    +0.000 A 
BRANCH   8  14
ATOM     14  O   UNL     1       8.186   7.568  18.446  0.00  0.00    +0.000 OA
BRANCH  14  15
ATOM     15  C   UNL     1       8.143   8.880  17.827  0.00  0.00    +0.000 C 
BRANCH  15  16
ATOM     16  C   UNL     1       8.922   9.900  18.659  0.00  0.00    +0.000 C 
BRANCH  16  17
ATOM     17  O   UNL     1       8.784  11.200  18.071  0.00  0.00    +0.000 OA
BRANCH  17  18
ATOM     18  C   UNL     1       9.709  12.133  18.638  0.00  0.00    +0.000 C 
BRANCH  18  20
ATOM     19  F   UNL     1      11.903  11.430  18.173  0.00  0.00    +0.000 F 
ATOM     20  C   UNL     1      10.948  11.409  19.141  0.00  0.00    +0.000 C 
ENDBRANCH  18  20
ENDBRANCH  17  18
ENDBRANCH  16  17
ENDBRANCH  15  16
ENDBRANCH  14  15
ENDBRANCH   8  14
ENDBRANCH   7  11
ENDBRANCH   1   7
BRANCH   4  21
ATOM     21  C   UNL     1       1.764   6.788  20.272  0.00  0.00    +0.000 C 
BRANCH  21  22
ATOM     22  C   UNL     1       1.536   8.270  20.597  0.00  0.00    +0.000 A 
ATOM     23  C   UNL     1       1.029   9.161  19.616  0.00  0.00    +0.000 A 
ATOM     24  C   UNL     1       0.330  10.310  20.001  0.00  0.00    +0.000 A 
ATOM     25  C   UNL     1       0.109  10.465  21.350  0.00  0.00    +0.000 A 
ATOM     26  C   UNL     1       0.751   9.694  22.296  0.00  0.00    +0.000 A 
ATOM     27  C   UNL     1       1.546   8.634  21.949  0.00  0.00    +0.000 A 
ATOM     28  O   UNL     1       0.228   9.868  23.548  0.00  0.00    +0.000 OA
ATOM     29  C   UNL     1      -1.038  10.424  23.148  0.00  0.00    +0.000 C 
ATOM     30  O   UNL     1      -0.924  11.166  21.912  0.00  0.00    +0.000 OA
ENDBRANCH  21  22
ENDBRANCH   4  21
TORSDOF 10
ENDMDL
MODEL 2
REMARK VINA RESULT:      -7.0      4.242      9.825
REMARK  Name = 
REMARK  10 active torsions:
REMARK  status: ('A' for Active; 'I' for Inactive)
REMARK    1  A    between atoms: C_2  and  C_3
REMARK    2  A    between atoms: C_3  and  O_4
REMARK    3  A    between atoms: O_4  and  C_5
REMARK    4  A    between atoms: C_5  and  C_6
REMARK    5  A    between atoms: C_6  and  O_7
REMARK    6  A    between atoms: O_7  and  C_8
REMARK    7  A    between atoms: C_11  and  C_12
REMARK    8  A    between atoms: C_12  and  N_13
REMARK    9  A    between atoms: N_16  and  C_17
REMARK   10  A    between atoms: C_17  and  C_18
REMARK                            x       y       z     vdW  Elec       q    Type
REMARK                         _______ _______ _______ _____ _____    ______ ____
ROOT
ATOM      1  N   UNL     1       2.287   6.888  20.143  0.00  0.00    +0.000 NA
ATOM      2  C   UNL     1       1.705   5.544  20.298  0.00  0.00    +0.000 C 
ATOM      3  C   UNL     1       1.617   4.569  19.084  0.00  0.00    +0.000 C 
ATOM      4  N   UNL     1       2.621   4.692  17.998  0.00  0.00    +0.000 NA
ATOM      5  C   UNL     1       3.174   6.063  17.911  0.00  0.00    +0.000 C 
ATOM      6  C   UNL     1       3.467   6.749  19.266  0.00  0.00    +0.000 C 
ENDROOT
BRANCH   1   7
ATOM      7  C   UNL     1       1.386   7.971  19.718  0.00  0.00    +0.000 C 
BRANCH   7  11
ATOM      8  C   UNL     1      -0.594  10.684  22.466  0.00  0.00    +0.000 A 
ATOM      9  C   UNL     1       0.143  11.228  21.391  0.00  0.00    +0.000 A 
ATOM     10  C   UNL     1       0.855  10.383  20.539  0.00  0.00    +0.000 A 
ATOM     11  C   UNL     1       0.988   9.018  20.762  0.00  0.00    +0.000 A 
ATOM     12  C   UNL     1       0.480   8.548  22.008  0.00  0.00    +0.000 A 
ATOM     13  C   UNL     1      -0.376   9.344  22.779  0.00  0.00    +0.000 A 
BRANCH   8  14
ATOM     14  O   UNL     1      -1.510  11.437  23.153  0.00  0.00    +0.000 OA
BRANCH  14  15
ATOM     15  C   UNL     1      -1.997  12.585  22.413  0.00  0.00    +0.000 C 
BRANCH  15  16
ATOM     16  C   UNL     1      -3.513  12.727  22.565  0.00  0.00    +0.000 C 
BRANCH  16  17
ATOM     17  O   UNL     1      -3.952  11.965  23.698  0.00  0.00    +0.000 OA
BRANCH  17  18
ATOM     18  C   UNL     1      -4.870  12.707  24.505  0.00  0.00    +0.000 C 
BRANCH  18  20
ATOM     19  F   UNL     1      -7.183  13.073  24.699  0.00  0.00    +0.000 F 
ATOM     20  C   UNL     1      -6.199  12.867  23.783  0.00  0.00    +0.000 C 
ENDBRANCH  18  20
ENDBRANCH  17  18
ENDBRANCH  16  17
ENDBRANCH  15  16
ENDBRANCH  14  15
ENDBRANCH   8  14
ENDBRANCH   7  11
ENDBRANCH   1   7
BRANCH   4  21
ATOM     21  C   UNL     1       3.629   3.634  18.095  0.00  0.00    +0.000 C 
BRANCH  21  22
ATOM     22  C   UNL     1       4.980   4.000  17.465  0.00  0.00    +0.000 A 
ATOM     23  C   UNL     1       5.084   4.282  16.079  0.00  0.00    +0.000 A 
ATOM     24  C   UNL     1       6.111   5.104  15.601  0.00  0.00    +0.000 A 
ATOM     25  C   UNL     1       6.934   5.663  16.551  0.00  0.00    +0.000 A 
ATOM     26  C   UNL     1       6.933   5.246  17.866  0.00  0.00    +0.000 A 
ATOM     27  C   UNL     1       6.017   4.345  18.340  0.00  0.00    +0.000 A 
ATOM     28  O   UNL     1       7.666   6.074  18.672  0.00  0.00    +0.000 OA
ATOM     29  C   UNL     1       7.678   7.222  17.804  0.00  0.00    +0.000 C 
ATOM     30  O   UNL     1       7.631   6.833  16.411  0.00  0.00    +0.000 OA
ENDBRANCH  21  22
ENDBRANCH   4  21
TORSDOF 10
ENDMDL
MODEL 3
REMARK VINA RESULT:      -6.9      4.110      7.231
REMARK  Name = 
REMARK  10 active torsions:
REMARK  status: ('A' for Active; 'I' for Inactive)
REMARK    1  A    between atoms: C_2  and  C_3
REMARK    2  A    between atoms: C_3  and  O_4
REMARK    3  A    between atoms: O_4  and  C_5
REMARK    4  A    between atoms: C_5  and  C_6
REMARK    5  A    between atoms: C_6  and  O_7
REMARK    6  A    between atoms: O_7  and  C_8
REMARK    7  A    between atoms: C_11  and  C_12
REMARK    8  A    between atoms: C_12  and  N_13
REMARK    9  A    between atoms: N_16  and  C_17
REMARK   10  A    between atoms: C_17  and  C_18
REMARK                            x       y       z     vdW  Elec       q    Type
REMARK                         _______ _______ _______ _____ _____    ______ ____
ROOT
ATOM      1  N   UNL     1      -0.014  11.357  20.285  0.00  0.00    +0.000 NA
ATOM      2  C   UNL     1      -1.074  12.353  20.057  0.00  0.00    +0.000 C 
ATOM      3  C   UNL     1      -2.313  12.427  21.002  0.00  0.00    +0.000 C 
ATOM      4  N   UNL     1      -2.161  11.990  22.412  0.00  0.00    +0.000 NA
ATOM      5  C   UNL     1      -1.067  11.003  22.568  0.00  0.00    +0.000 C 
ATOM      6  C   UNL     1       0.209  11.289  21.743  0.00  0.00    +0.000 C 
ENDROOT
BRANCH   1   7
ATOM      7  C   UNL     1      -0.188  10.030  19.674  0.00  0.00    +0.000 C 
BRANCH   7  11
ATOM      8  C   UNL     1       2.821   7.144  18.468  0.00  0.00    +0.000 A 
ATOM      9  C   UNL     1       2.406   7.165  19.818  0.00  0.00    +0.000 A 
ATOM     10  C   UNL     1       1.499   8.134  20.250  0.00  0.00    +0.000 A 
ATOM     11  C   UNL     1       1.066   9.180  19.446  0.00  0.00    +0.000 A 
ATOM     12  C   UNL     1       1.724   9.300  18.188  0.00  0.00    +0.000 A 
ATOM     13  C   UNL     1       2.499   8.248  17.681  0.00  0.00    +0.000 A 
BRANCH   8  14
ATOM     14  O   UNL     1       3.488   6.068  17.946  0.00  0.00    +0.000 OA
BRANCH  14  15
ATOM     15  C   UNL     1       3.505   4.909  18.819  0.00  0.00    +0.000 C 
BRANCH  15  16
ATOM     16  C   UNL     1       4.928   4.372  18.983  0.00  0.00    +0.000 C 
BRANCH  16  17
ATOM     17  O   UNL     1       5.806   5.449  19.337  0.00  0.00    +0.000 OA
BRANCH  17  18
ATOM     18  C   UNL     1       7.066   5.339  18.668  0.00  0.00    +0.000 C 
BRANCH  18  20
ATOM     19  F   UNL     1       8.484   7.211  18.745  0.00  0.00    +0.000 F 
ATOM     20  C   UNL     1       7.452   6.671  18.044  0.00  0.00    +0.000 C 
ENDBRANCH  18  20
ENDBRANCH  17  18
ENDBRANCH  16  17
ENDBRANCH  15  16
ENDBRANCH  14  15
ENDBRANCH   8  14
ENDBRANCH   7  11
ENDBRANCH   1   7
BRANCH   4  21
ATOM     21  C   UNL     1      -2.072  13.144  23.310  0.00  0.00    +0.000 C 
BRANCH  21  22
ATOM     22  C   UNL     1      -3.422  13.587  23.891  0.00  0.00    +0.000 A 
ATOM     23  C   UNL     1      -3.887  14.916  23.719  0.00  0.00    +0.000 A 
ATOM     24  C   UNL     1      -5.258  15.193  23.745  0.00  0.00    +0.000 A 
ATOM     25  C   UNL     1      -6.096  14.108  23.864  0.00  0.00    +0.000 A 
ATOM     26  C   UNL     1      -5.634  12.853  24.203  0.00  0.00    +0.000 A 
ATOM     27  C   UNL     1      -4.297  12.577  24.309  0.00  0.00    +0.000 A 
ATOM     28  O   UNL     1      -6.595  11.890  24.055  0.00  0.00    +0.000 OA
ATOM     29  C   UNL     1      -7.463  12.623  23.171  0.00  0.00    +0.000 C 
ATOM     30  O   UNL     1      -7.388  14.047  23.416  0.00  0.00    +0.000 OA
ENDBRANCH  21  22
ENDBRANCH   4  21
TORSDOF 10
ENDMDL
MODEL 4
REMARK VINA RESULT:      -6.9      2.772      4.861
REMARK  Name = 
REMARK  10 active torsions:
REMARK  status: ('A' for Active; 'I' for Inactive)
REMARK    1  A    between atoms: C_2  and  C_3
REMARK    2  A    between atoms: C_3  and  O_4
REMARK    3  A    between atoms: O_4  and  C_5
REMARK    4  A    between atoms: C_5  and  C_6
REMARK    5  A    between atoms: C_6  and  O_7
REMARK    6  A    between atoms: O_7  and  C_8
REMARK    7  A    between atoms: C_11  and  C_12
REMARK    8  A    between atoms: C_12  and  N_13
REMARK    9  A    between atoms: N_16  and  C_17
REMARK   10  A    between atoms: C_17  and  C_18
REMARK                            x       y       z     vdW  Elec       q    Type
REMARK                         _______ _______ _______ _____ _____    ______ ____
ROOT
ATOM      1  N   UNL     1       1.996   7.780  20.311  0.00  0.00    +0.000 NA
ATOM      2  C   UNL     1       2.010   8.499  19.026  0.00  0.00    +0.000 C 
ATOM      3  C   UNL     1       0.787   9.360  18.581  0.00  0.00    +0.000 C 
ATOM      4  N   UNL     1      -0.074   9.967  19.627  0.00  0.00    +0.000 NA
ATOM      5  C   UNL     1      -0.025   9.202  20.894  0.00  0.00    +0.000 C 
ATOM      6  C   UNL     1       1.372   8.679  21.302  0.00  0.00    +0.000 C 
ENDROOT
BRANCH   1   7
ATOM      7  C   UNL     1       1.417   6.428  20.324  0.00  0.00    +0.000 C 
BRANCH   7  11
ATOM      8  C   UNL     1       3.919   4.025  17.715  0.00  0.00    +0.000 A 
ATOM      9  C   UNL     1       2.519   3.993  17.529  0.00  0.00    +0.000 A 
ATOM     10  C   UNL     1       1.686   4.693  18.402  0.00  0.00    +0.000 A 
ATOM     11  C   UNL     1       2.151   5.331  19.545  0.00  0.00    +0.000 A 
ATOM     12  C   UNL     1       3.521   5.101  19.863  0.00  0.00    +0.000 A 
ATOM     13  C   UNL     1       4.394   4.551  18.914  0.00  0.00    +0.000 A 
BRANCH   8  14
ATOM     14  O   UNL     1       4.776   3.584  16.742  0.00  0.00    +0.000 OA
BRANCH  14  15
ATOM     15  C   UNL     1       5.239   4.631  15.851  0.00  0.00    +0.000 C 
BRANCH  15  16
ATOM     16  C   UNL     1       6.748   4.522  15.622  0.00  0.00    +0.000 C 
BRANCH  16  17
ATOM     17  O   UNL     1       7.375   5.763  15.971  0.00  0.00    +0.000 OA
BRANCH  17  18
ATOM     18  C   UNL     1       7.399   5.958  17.387  0.00  0.00    +0.000 C 
BRANCH  18  20
ATOM     19  F   UNL     1       6.748   8.217  17.392  0.00  0.00    +0.000 F 
ATOM     20  C   UNL     1       7.781   7.393  17.717  0.00  0.00    +0.000 C 
ENDBRANCH  18  20
ENDBRANCH  17  18
ENDBRANCH  16  17
ENDBRANCH  15  16
ENDBRANCH  14  15
ENDBRANCH   8  14
ENDBRANCH   7  11
ENDBRANCH   1   7
BRANCH   4  21
ATOM     21  C   UNL     1       0.207  11.398  19.769  0.00  0.00    +0.000 C 
BRANCH  21  22
ATOM     22  C   UNL     1      -0.997  12.226  20.236  0.00  0.00    +0.000 A 
ATOM     23  C   UNL     1      -2.236  12.163  19.546  0.00  0.00    +0.000 A 
ATOM     24  C   UNL     1      -3.431  12.448  20.216  0.00  0.00    +0.000 A 
ATOM     25  C   UNL     1      -3.328  12.705  21.563  0.00  0.00    +0.000 A 
ATOM     26  C   UNL     1      -2.116  12.934  22.180  0.00  0.00    +0.000 A 
ATOM     27  C   UNL     1      -0.926  12.785  21.518  0.00  0.00    +0.000 A 
ATOM     28  O   UNL     1      -2.224  12.954  23.544  0.00  0.00    +0.000 OA
ATOM     29  C   UNL     1      -3.480  12.258  23.644  0.00  0.00    +0.000 C 
ATOM     30  O   UNL     1      -4.316  12.505  22.490  0.00  0.00    +0.000 OA
ENDBRANCH  21  22
ENDBRANCH   4  21
TORSDOF 10
ENDMDL
MODEL 5
REMARK VINA RESULT:      -6.8      4.565     10.714
REMARK  Name = 
REMARK  10 active torsions:
REMARK  status: ('A' for Active; 'I' for Inactive)
REMARK    1  A    between atoms: C_2  and  C_3
REMARK    2  A    between atoms: C_3  and  O_4
REMARK    3  A    between atoms: O_4  and  C_5
REMARK    4  A    between atoms: C_5  and  C_6
REMARK    5  A    between atoms: C_6  and  O_7
REMARK    6  A    between atoms: O_7  and  C_8
REMARK    7  A    between atoms: C_11  and  C_12
REMARK    8  A    between atoms: C_12  and  N_13
REMARK    9  A    between atoms: N_16  and  C_17
REMARK   10  A    between atoms: C_17  and  C_18
REMARK                            x       y       z     vdW  Elec       q    Type
REMARK                         _______ _______ _______ _____ _____    ______ ____
ROOT
ATOM      1  N   UNL     1       0.492   9.700  19.305  0.00  0.00    +0.000 NA
ATOM      2  C   UNL     1       1.146   9.341  18.036  0.00  0.00    +0.000 C 
ATOM      3  C   UNL     1       2.416   8.435  18.023  0.00  0.00    +0.000 C 
ATOM      4  N   UNL     1       2.602   7.453  19.121  0.00  0.00    +0.000 NA
ATOM      5  C   UNL     1       1.904   7.871  20.358  0.00  0.00    +0.000 C 
ATOM      6  C   UNL     1       0.502   8.492  20.154  0.00  0.00    +0.000 C 
ENDROOT
BRANCH   1   7
ATOM      7  C   UNL     1       0.987  10.893  20.008  0.00  0.00    +0.000 C 
BRANCH   7  11
ATOM      8  C   UNL     1      -2.059  11.890  22.935  0.00  0.00    +0.000 A 
ATOM      9  C   UNL     1      -1.668  12.877  22.003  0.00  0.00    +0.000 A 
ATOM     10  C   UNL     1      -0.635  12.610  21.102  0.00  0.00    +0.000 A 
ATOM     11  C   UNL     1       0.133  11.454  21.150  0.00  0.00    +0.000 A 
ATOM     12  C   UNL     1      -0.092  10.613  22.278  0.00  0.00    +0.000 A 
ATOM     13  C   UNL     1      -1.228  10.781  23.082  0.00  0.00    +0.000 A 
BRANCH   8  14
ATOM     14  O   UNL     1      -3.225  12.005  23.644  0.00  0.00    +0.000 OA
BRANCH  14  15
ATOM     15  C   UNL     1      -4.325  12.561  22.877  0.00  0.00    +0.000 C 
BRANCH  15  16
ATOM     16  C   UNL     1      -5.487  12.946  23.794  0.00  0.00    +0.000 C 
BRANCH  16  17
ATOM     17  O   UNL     1      -6.458  11.892  23.803  0.00  0.00    +0.000 OA
BRANCH  17  18
ATOM     18  C   UNL     1      -7.685  12.304  23.194  0.00  0.00    +0.000 C 
BRANCH  18  20
ATOM     19  F   UNL     1      -7.164  12.091  20.912  0.00  0.00    +0.000 F 
ATOM     20  C   UNL     1      -7.917  11.538  21.900  0.00  0.00    +0.000 C 
ENDBRANCH  18  20
ENDBRANCH  17  18
ENDBRANCH  16  17
ENDBRANCH  15  16
ENDBRANCH  14  15
ENDBRANCH   8  14
ENDBRANCH   7  11
ENDBRANCH   1   7
BRANCH   4  21
ATOM     21  C   UNL     1       2.280   6.097  18.669  0.00  0.00    +0.000 C 
BRANCH  21  22
ATOM     22  C   UNL     1       3.510   5.210  18.436  0.00  0.00    +0.000 A 
ATOM     23  C   UNL     1       3.831   4.736  17.137  0.00  0.00    +0.000 A 
ATOM     24  C   UNL     1       5.153   4.413  16.811  0.00  0.00    +0.000 A 
ATOM     25  C   UNL     1       6.096   4.656  17.782  0.00  0.00    +0.000 A 
ATOM     26  C   UNL     1       5.755   4.947  19.086  0.00  0.00    +0.000 A 
ATOM     27  C   UNL     1       4.454   5.147  19.467  0.00  0.00    +0.000 A 
ATOM     28  O   UNL     1       6.831   5.361  19.824  0.00  0.00    +0.000 OA
ATOM     29  C   UNL     1       7.684   5.725  18.724  0.00  0.00    +0.000 C 
ATOM     30  O   UNL     1       7.422   4.911  17.557  0.00  0.00    +0.000 OA
ENDBRANCH  21  22
ENDBRANCH   4  21
TORSDOF 10
ENDMDL
MODEL 6
REMARK VINA RESULT:      -6.8      3.410      6.121
REMARK  Name = 
REMARK  10 active torsions:
REMARK  status: ('A' for Active; 'I' for Inactive)
REMARK    1  A    between atoms: C_2  and  C_3
REMARK    2  A    between atoms: C_3  and  O_4
REMARK    3  A    between atoms: O_4  and  C_5
REMARK    4  A    between atoms: C_5  and  C_6
REMARK    5  A    between atoms: C_6  and  O_7
REMARK    6  A    between atoms: O_7  and  C_8
REMARK    7  A    between atoms: C_11  and  C_12
REMARK    8  A    between atoms: C_12  and  N_13
REMARK    9  A    between atoms: N_16  and  C_17
REMARK   10  A    between atoms: C_17  and  C_18
REMARK                            x       y       z     vdW  Elec       q    Type
REMARK                         _______ _______ _______ _____ _____    ______ ____
ROOT
ATOM      1  N   UNL     1       1.500   8.769  21.005  0.00  0.00    +0.000 NA
ATOM      2  C   UNL     1       0.848   9.685  20.055  0.00  0.00    +0.000 C 
ATOM      3  C   UNL     1      -0.491  10.394  20.424  0.00  0.00    +0.000 C 
ATOM      4  N   UNL     1      -0.782  10.667  21.853  0.00  0.00    +0.000 NA
ATOM      5  C   UNL     1      -0.080   9.720  22.750  0.00  0.00    +0.000 C 
ATOM      6  C   UNL     1       1.372   9.374  22.346  0.00  0.00    +0.000 C 
ENDROOT
BRANCH   1   7
ATOM      7  C   UNL     1       1.089   7.357  20.976  0.00  0.00    +0.000 C 
BRANCH   7  11
ATOM      8  C   UNL     1       3.161   4.491  18.460  0.00  0.00    +0.000 A 
ATOM      9  C   UNL     1       2.690   4.067  19.722  0.00  0.00    +0.000 A 
ATOM     10  C   UNL     1       2.091   4.987  20.584  0.00  0.00    +0.000 A 
ATOM     11  C   UNL     1       2.042   6.350  20.323  0.00  0.00    +0.000 A 
ATOM     12  C   UNL     1       2.781   6.784  19.185  0.00  0.00    +0.000 A 
ATOM     13  C   UNL     1       3.234   5.864  18.230  0.00  0.00    +0.000 A 
BRANCH   8  14
ATOM     14  O   UNL     1       3.505   3.588  17.489  0.00  0.00    +0.000 OA
BRANCH  14  15
ATOM     15  C   UNL     1       4.275   4.162  16.401  0.00  0.00    +0.000 C 
BRANCH  15  16
ATOM     16  C   UNL     1       5.735   3.709  16.471  0.00  0.00    +0.000 C 
BRANCH  16  17
ATOM     17  O   UNL     1       6.591   4.799  16.103  0.00  0.00    +0.000 OA
BRANCH  17  18
ATOM     18  C   UNL     1       7.244   5.361  17.244  0.00  0.00    +0.000 C 
BRANCH  18  20
ATOM     19  F   UNL     1       5.857   7.122  16.537  0.00  0.00    +0.000 F 
ATOM     20  C   UNL     1       6.857   6.823  17.409  0.00  0.00    +0.000 C 
ENDBRANCH  18  20
ENDBRANCH  17  18
ENDBRANCH  16  17
ENDBRANCH  15  16
ENDBRANCH  14  15
ENDBRANCH   8  14
ENDBRANCH   7  11
ENDBRANCH   1   7
BRANCH   4  21
ATOM     21  C   UNL     1      -0.562  12.081  22.170  0.00  0.00    +0.000 C 
BRANCH  21  22
ATOM     22  C   UNL     1      -1.555  12.653  23.190  0.00  0.00    +0.000 A 
ATOM     23  C   UNL     1      -1.389  13.961  23.715  0.00  0.00    +0.000 A 
ATOM     24  C   UNL     1      -2.494  14.678  24.185  0.00  0.00    +0.000 A 
ATOM     25  C   UNL     1      -3.721  14.075  24.033  0.00  0.00    +0.000 A 
ATOM     26  C   UNL     1      -3.852  12.746  23.688  0.00  0.00    +0.000 A 
ATOM     27  C   UNL     1      -2.772  11.978  23.341  0.00  0.00    +0.000 A 
ATOM     28  O   UNL     1      -5.144  12.414  23.385  0.00  0.00    +0.000 OA
ATOM     29  C   UNL     1      -5.626  13.747  23.132  0.00  0.00    +0.000 C 
ATOM     30  O   UNL     1      -4.921  14.726  23.929  0.00  0.00    +0.000 OA
ENDBRANCH  21  22
ENDBRANCH   4  21
TORSDOF 10
ENDMDL
MODEL 7
REMARK VINA RESULT:      -6.8      4.622      6.933
REMARK  Name = 
REMARK  10 active torsions:
REMARK  status: ('A' for Active; 'I' for Inactive)
REMARK    1  A    between atoms: C_2  and  C_3
REMARK    2  A    between atoms: C_3  and  O_4
REMARK    3  A    between atoms: O_4  and  C_5
REMARK    4  A    between atoms: C_5  and  C_6
REMARK    5  A    between atoms: C_6  and  O_7
REMARK    6  A    between atoms: O_7  and  C_8
REMARK    7  A    between atoms: C_11  and  C_12
REMARK    8  A    between atoms: C_12  and  N_13
REMARK    9  A    between atoms: N_16  and  C_17
REMARK   10  A    between atoms: C_17  and  C_18
REMARK                            x       y       z     vdW  Elec       q    Type
REMARK                         _______ _______ _______ _____ _____    ______ ____
ROOT
ATOM      1  N   UNL     1       0.921   9.224  18.985  0.00  0.00    +0.000 NA
ATOM      2  C   UNL     1       0.617   9.438  20.409  0.00  0.00    +0.000 C 
ATOM      3  C   UNL     1       0.767  10.851  21.053  0.00  0.00    +0.000 C 
ATOM      4  N   UNL     1       0.594  12.047  20.192  0.00  0.00    +0.000 NA
ATOM      5  C   UNL     1       0.901  11.754  18.773  0.00  0.00    +0.000 C 
ATOM      6  C   UNL     1       0.392  10.391  18.250  0.00  0.00    +0.000 C 
ENDROOT
BRANCH   1   7
ATOM      7  C   UNL     1       2.314   8.912  18.629  0.00  0.00    +0.000 C 
BRANCH   7  11
ATOM      8  C   UNL     1       4.088   4.953  18.762  0.00  0.00    +0.000 A 
ATOM      9  C   UNL     1       4.079   5.650  17.533  0.00  0.00    +0.000 A 
ATOM     10  C   UNL     1       3.446   6.890  17.443  0.00  0.00    +0.000 A 
ATOM     11  C   UNL     1       2.697   7.436  18.478  0.00  0.00    +0.000 A 
ATOM     12  C   UNL     1       2.481   6.581  19.597  0.00  0.00    +0.000 A 
ATOM     13  C   UNL     1       3.246   5.419  19.769  0.00  0.00    +0.000 A 
BRANCH   8  14
ATOM     14  O   UNL     1       4.914   3.879  18.964  0.00  0.00    +0.000 OA
BRANCH  14  15
ATOM     15  C   UNL     1       4.282   2.779  19.669  0.00  0.00    +0.000 C 
BRANCH  15  16
ATOM     16  C   UNL     1       3.882   1.669  18.696  0.00  0.00    +0.000 C 
BRANCH  16  17
ATOM     17  O   UNL     1       2.640   2.010  18.067  0.00  0.00    +0.000 OA
BRANCH  17  18
ATOM     18  C   UNL     1       1.551   1.957  18.992  0.00  0.00    +0.000 C 
BRANCH  18  20
ATOM     19  F   UNL     1       1.089   3.914  17.776  0.00  0.00    +0.000 F 
ATOM     20  C   UNL     1       0.677   3.194  18.854  0.00  0.00    +0.000 C 
ENDBRANCH  18  20
ENDBRANCH  17  18
ENDBRANCH  16  17
ENDBRANCH  15  16
ENDBRANCH  14  15
ENDBRANCH   8  14
ENDBRANCH   7  11
ENDBRANCH   1   7
BRANCH   4  21
ATOM     21  C   UNL     1      -0.714  12.668  20.416  0.00  0.00    +0.000 C 
BRANCH  21  22
ATOM     22  C   UNL     1      -1.093  12.806  21.897  0.00  0.00    +0.000 A 
ATOM     23  C   UNL     1      -0.623  13.899  22.670  0.00  0.00    +0.000 A 
ATOM     24  C   UNL     1      -1.344  14.333  23.788  0.00  0.00    +0.000 A 
ATOM     25  C   UNL     1      -2.540  13.696  24.026  0.00  0.00    +0.000 A 
ATOM     26  C   UNL     1      -2.897  12.532  23.380  0.00  0.00    +0.000 A 
ATOM     27  C   UNL     1      -2.146  12.009  22.361  0.00  0.00    +0.000 A 
ATOM     28  O   UNL     1      -4.204  12.193  23.607  0.00  0.00    +0.000 OA
ATOM     29  C   UNL     1      -4.663  13.489  24.032  0.00  0.00    +0.000 C 
ATOM     30  O   UNL     1      -3.611  14.236  24.686  0.00  0.00    +0.000 OA
ENDBRANCH  21  22
ENDBRANCH   4  21
TORSDOF 10
ENDMDL
MODEL 8
REMARK VINA RESULT:      -6.7      3.819      6.200
REMARK  Name = 
REMARK  10 active torsions:
REMARK  status: ('A' for Active; 'I' for Inactive)
REMARK    1  A    between atoms: C_2  and  C_3
REMARK    2  A    between atoms: C_3  and  O_4
REMARK    3  A    between atoms: O_4  and  C_5
REMARK    4  A    between atoms: C_5  and  C_6
REMARK    5  A    between atoms: C_6  and  O_7
REMARK    6  A    between atoms: O_7  and  C_8
REMARK    7  A    between atoms: C_11  and  C_12
REMARK    8  A    between atoms: C_12  and  N_13
REMARK    9  A    between atoms: N_16  and  C_17
REMARK   10  A    between atoms: C_17  and  C_18
REMARK                            x       y       z     vdW  Elec       q    Type
REMARK                         _______ _______ _______ _____ _____    ______ ____
ROOT
ATOM      1  N   UNL     1       0.159   9.134  20.182  0.00  0.00    +0.000 NA
ATOM      2  C   UNL     1       0.035   8.705  21.585  0.00  0.00    +0.000 C 
ATOM      3  C   UNL     1       0.089   9.747  22.745  0.00  0.00    +0.000 C 
ATOM      4  N   UNL     1      -0.358  11.136  22.475  0.00  0.00    +0.000 NA
ATOM      5  C   UNL     1      -0.220  11.492  21.044  0.00  0.00    +0.000 C 
ATOM      6  C   UNL     1      -0.616  10.383  20.042  0.00  0.00    +0.000 C 
ENDROOT
BRANCH   1   7
ATOM      7  C   UNL     1       1.516   9.241  19.625  0.00  0.00    +0.000 C 
BRANCH   7  11
ATOM      8  C   UNL     1       3.969   5.826  18.547  0.00  0.00    +0.000 A 
ATOM      9  C   UNL     1       3.762   6.841  17.586  0.00  0.00    +0.000 A 
ATOM     10  C   UNL     1       2.914   7.910  17.878  0.00  0.00    +0.000 A 
ATOM     11  C   UNL     1       2.145   7.975  19.033  0.00  0.00    +0.000 A 
ATOM     12  C   UNL     1       2.153   6.803  19.843  0.00  0.00    +0.000 A 
ATOM     13  C   UNL     1       3.121   5.807  19.652  0.00  0.00    +0.000 A 
BRANCH   8  14
ATOM     14  O   UNL     1       4.983   4.916  18.412  0.00  0.00    +0.000 OA
BRANCH  14  15
ATOM     15  C   UNL     1       6.258   5.378  18.927  0.00  0.00    +0.000 C 
BRANCH  15  16
ATOM     16  C   UNL     1       7.180   5.814  17.787  0.00  0.00    +0.000 C 
BRANCH  16  17
ATOM     17  O   UNL     1       7.769   4.656  17.180  0.00  0.00    +0.000 OA
BRANCH  17  18
ATOM     18  C   UNL     1       7.035   4.238  16.026  0.00  0.00    +0.000 C 
BRANCH  18  20
ATOM     19  F   UNL     1       5.190   5.263  14.992  0.00  0.00    +0.000 F 
ATOM     20  C   UNL     1       6.509   5.447  15.267  0.00  0.00    +0.000 C 
ENDBRANCH  18  20
ENDBRANCH  17  18
ENDBRANCH  16  17
ENDBRANCH  15  16
ENDBRANCH  14  15
ENDBRANCH   8  14
ENDBRANCH   7  11
ENDBRANCH   1   7
BRANCH   4  21
ATOM     21  C   UNL     1      -1.690  11.374  23.036  0.00  0.00    +0.000 C 
BRANCH  21  22
ATOM     22  C   UNL     1      -2.065  12.858  23.145  0.00  0.00    +0.000 A 
ATOM     23  C   UNL     1      -3.422  13.261  23.244  0.00  0.00    +0.000 A 
ATOM     24  C   UNL     1      -3.755  14.472  23.862  0.00  0.00    +0.000 A 
ATOM     25  C   UNL     1      -2.714  15.177  24.419  0.00  0.00    +0.000 A 
ATOM     26  C   UNL     1      -1.394  14.868  24.166  0.00  0.00    +0.000 A 
ATOM     27  C   UNL     1      -1.034  13.754  23.455  0.00  0.00    +0.000 A 
ATOM     28  O   UNL     1      -0.535  15.553  24.982  0.00  0.00    +0.000 OA
ATOM     29  C   UNL     1      -1.485  15.900  26.006  0.00  0.00    +0.000 C 
ATOM     30  O   UNL     1      -2.817  16.056  25.463  0.00  0.00    +0.000 OA
ENDBRANCH  21  22
ENDBRANCH   4  21
TORSDOF 10
ENDMDL
MODEL 9
REMARK VINA RESULT:      -6.7      1.330      1.391
REMARK  Name = 
REMARK  10 active torsions:
REMARK  status: ('A' for Active; 'I' for Inactive)
REMARK    1  A    between atoms: C_2  and  C_3
REMARK    2  A    between atoms: C_3  and  O_4
REMARK    3  A    between atoms: O_4  and  C_5
REMARK    4  A    between atoms: C_5  and  C_6
REMARK    5  A    between atoms: C_6  and  O_7
REMARK    6  A    between atoms: O_7  and  C_8
REMARK    7  A    between atoms: C_11  and  C_12
REMARK    8  A    between atoms: C_12  and  N_13
REMARK    9  A    between atoms: N_16  and  C_17
REMARK   10  A    between atoms: C_17  and  C_18
REMARK                            x       y       z     vdW  Elec       q    Type
REMARK                         _______ _______ _______ _____ _____    ______ ____
ROOT
ATOM      1  N   UNL     1       2.817   3.902  18.196  0.00  0.00    +0.000 NA
ATOM      2  C   UNL     1       2.025   3.546  19.384  0.00  0.00    +0.000 C 
ATOM      3  C   UNL     1       2.038   4.456  20.652  0.00  0.00    +0.000 C 
ATOM      4  N   UNL     1       2.292   5.908  20.483  0.00  0.00    +0.000 NA
ATOM      5  C   UNL     1       3.079   6.192  19.260  0.00  0.00    +0.000 C 
ATOM      6  C   UNL     1       2.693   5.362  18.014  0.00  0.00    +0.000 C 
ENDROOT
BRANCH   1   7
ATOM      7  C   UNL     1       4.213   3.439  18.150  0.00  0.00    +0.000 C 
BRANCH   7  11
ATOM      8  C   UNL     1       6.815   6.769  17.161  0.00  0.00    +0.000 A 
ATOM      9  C   UNL     1       5.942   6.274  16.167  0.00  0.00    +0.000 A 
ATOM     10  C   UNL     1       5.152   5.155  16.432  0.00  0.00    +0.000 A 
ATOM     11  C   UNL     1       5.266   4.405  17.595  0.00  0.00    +0.000 A 
ATOM     12  C   UNL     1       6.353   4.754  18.447  0.00  0.00    +0.000 A 
ATOM     13  C   UNL     1       7.035   5.967  18.278  0.00  0.00    +0.000 A 
BRANCH   8  14
ATOM     14  O   UNL     1       7.399   8.002  17.044  0.00  0.00    +0.000 OA
BRANCH  14  15
ATOM     15  C   UNL     1       8.210   8.378  18.187  0.00  0.00    +0.000 C 
BRANCH  15  16
ATOM     16  C   UNL     1       8.551   9.868  18.146  0.00  0.00    +0.000 C 
BRANCH  16  17
ATOM     17  O   UNL     1       9.536  10.160  19.146  0.00  0.00    +0.000 OA
BRANCH  17  18
ATOM     18  C   UNL     1       9.580  11.558  19.447  0.00  0.00    +0.000 C 
BRANCH  18  20
ATOM     19  F   UNL     1       9.384  12.031  21.741  0.00  0.00    +0.000 F 
ATOM     20  C   UNL     1      10.301  11.793  20.765  0.00  0.00    +0.000 C 
ENDBRANCH  18  20
ENDBRANCH  17  18
ENDBRANCH  16  17
ENDBRANCH  15  16
ENDBRANCH  14  15
ENDBRANCH   8  14
ENDBRANCH   7  11
ENDBRANCH   1   7
BRANCH   4  21
ATOM     21  C   UNL     1       1.048   6.673  20.597  0.00  0.00    +0.000 C 
BRANCH  21  22
ATOM     22  C   UNL     1       1.258   8.186  20.750  0.00  0.00    +0.000 A 
ATOM     23  C   UNL     1       1.246   9.041  19.618  0.00  0.00    +0.000 A 
ATOM     24  C   UNL     1       0.900  10.389  19.756  0.00  0.00    +0.000 A 
ATOM     25  C   UNL     1       0.509  10.792  21.012  0.00  0.00    +0.000 A 
ATOM     26  C   UNL     1       0.691  10.004  22.129  0.00  0.00    +0.000 A 
ATOM     27  C   UNL     1       1.149   8.716  22.041  0.00  0.00    +0.000 A 
ATOM     28  O   UNL     1       0.042  10.502  23.226  0.00  0.00    +0.000 OA
ATOM     29  C   UNL     1      -0.886  11.352  22.526  0.00  0.00    +0.000 C 
ATOM     30  O   UNL     1      -0.324  11.843  21.288  0.00  0.00    +0.000 OA
ENDBRANCH  21  22
ENDBRANCH   4  21
TORSDOF 10
ENDMDL
