MODEL 1
REMARK VINA RESULT:      -6.8      0.000      0.000
REMARK  Name = 
REMARK  8 active torsions:
REMARK  status: ('A' for Active; 'I' for Inactive)
REMARK    1  A    between atoms: C_1  and  C_2
REMARK    2  A    between atoms: C_2  and  S_4
REMARK    3  A    between atoms: S_4  and  C_5
REMARK    4  A    between atoms: C_5  and  C_6
REMARK    5  A    between atoms: C_6  and  C_7
REMARK    6  A    between atoms: C_6  and  C_8
REMARK    7  A    between atoms: C_19  and  C_20
REMARK    8  A    between atoms: C_20  and  O_22
REMARK                            x       y       z     vdW  Elec       q    Type
REMARK                         _______ _______ _______ _____ _____    ______ ____
ROOT
ATOM      1  C   UNL     1       4.926   3.691  16.229  0.00  0.00    +0.000 C 
ATOM      2  O   UNL     1       5.441   2.570  16.300  0.00  0.00    +0.000 OA
ATOM      3  N   UNL     1       3.990   4.050  17.190  0.00  0.00    +0.000 N 
ATOM      4  C   UNL     1       3.344   5.361  17.211  0.00  0.00    +0.000 C 
ATOM      5  C   UNL     1       2.694   5.725  18.511  0.00  0.00    +0.000 A 
ATOM      6  C   UNL     1       2.687   7.048  18.963  0.00  0.00    +0.000 A 
ATOM      7  C   UNL     1       2.038   7.373  20.150  0.00  0.00    +0.000 A 
ATOM      8  C   UNL     1       1.376   6.383  20.877  0.00  0.00    +0.000 A 
ATOM      9  C   UNL     1       1.359   5.064  20.419  0.00  0.00    +0.000 A 
ATOM     10  C   UNL     1       2.021   4.733  19.236  0.00  0.00    +0.000 A 
ATOM     11  C   UNL     1       2.071   3.327  18.692  0.00  0.00    +0.000 C 
ATOM     12  C   UNL     1       3.496   3.024  18.178  0.00  0.00    +0.000 C 
ENDROOT
BRANCH   1  13
ATOM     13  C   UNL     1       5.454   4.741  15.221  0.00  0.00    +0.000 C 
ATOM     14  C   UNL     1       5.367   4.307  13.752  0.00  0.00    +0.000 C 
BRANCH  13  15
ATOM     15  C   UNL     1       6.915   5.114  15.574  0.00  0.00    +0.000 C 
BRANCH  15  16
ATOM     16  S   UNL     1       6.982   6.237  17.019  0.00  0.00    +0.000 S 
BRANCH  16  18
ATOM     17  C   UNL     1       7.974   5.828  19.537  0.00  0.00    +0.000 C 
ATOM     18  C   UNL     1       7.836   5.218  18.170  0.00  0.00    +0.000 C 
ATOM     19  O   UNL     1       8.306   4.131  17.864  0.00  0.00    +0.000 OA
ENDBRANCH  16  18
ENDBRANCH  15  16
ENDBRANCH  13  15
ENDBRANCH   1  13
BRANCH  12  20
ATOM     20  C   UNL     1       4.423   2.836  19.409  0.00  0.00    +0.000 C 
ATOM     21  O   UNL     1       4.154   2.130  20.370  0.00  0.00    +0.000 OA
BRANCH  20  22
ATOM     22  O   UNL     1       5.634   3.432  19.301  0.00  0.00    +0.000 OA
ATOM     23  H   UNL     1       6.246   2.882  18.776  0.00  0.00    +0.000 HD
ENDBRANCH  20  22
ENDBRANCH  12  20
TORSDOF 6
ENDMDL
MODEL 2
REMARK VINA RESULT:      -6.6      1.010      1.017
REMARK  Name = 
REMARK  8 active torsions:
REMARK  status: ('A' for Active; 'I' for Inactive)
REMARK    1  A    between atoms: C_1  and  C_2
REMARK    2  A    between atoms: C_2  and  S_4
REMARK    3  A    between atoms: S_4  and  C_5
REMARK    4  A    between atoms: C_5  and  C_6
REMARK    5  A    between atoms: C_6  and  C_7
REMARK    6  A    between atoms: C_6  and  C_8
REMARK    7  A    between atoms: C_19  and  C_20
REMARK    8  A    between atoms: C_20  and  O_22
REMARK                            x       y       z     vdW  Elec       q    Type
REMARK                         _______ _______ _______ _____ _____    ______ ____
ROOT
ATOM      1  C   UNL     1       4.953   3.860  16.474  0.00  0.00    +0.000 C 
ATOM      2  O   UNL     1       5.400   2.709  16.503  0.00  0.00    +0.000 OA
ATOM      3  N   UNL     1       3.964   4.208  17.385  0.00  0.00    +0.000 N 
ATOM      4  C   UNL     1       3.389   5.550  17.450  0.00  0.00    +0.000 C 
ATOM      5  C   UNL     1       2.658   5.864  18.720  0.00  0.00    +0.000 A 
ATOM      6  C   UNL     1       2.686   7.152  19.264  0.00  0.00    +0.000 A 
ATOM      7  C   UNL     1       1.963   7.434  20.418  0.00  0.00    +0.000 A 
ATOM      8  C   UNL     1       1.193   6.437  21.021  0.00  0.00    +0.000 A 
ATOM      9  C   UNL     1       1.143   5.156  20.469  0.00  0.00    +0.000 A 
ATOM     10  C   UNL     1       1.878   4.866  19.319  0.00  0.00    +0.000 A 
ATOM     11  C   UNL     1       1.897   3.500  18.682  0.00  0.00    +0.000 C 
ATOM     12  C   UNL     1       3.340   3.149  18.257  0.00  0.00    +0.000 C 
ENDROOT
BRANCH   1  13
ATOM     13  C   UNL     1       5.614   4.943  15.586  0.00  0.00    +0.000 C 
ATOM     14  C   UNL     1       5.905   4.490  14.149  0.00  0.00    +0.000 C 
BRANCH  13  15
ATOM     15  C   UNL     1       6.920   5.440  16.256  0.00  0.00    +0.000 C 
BRANCH  15  16
ATOM     16  S   UNL     1       6.704   7.111  16.971  0.00  0.00    +0.000 S 
BRANCH  16  18
ATOM     17  C   UNL     1       7.930   5.697  18.967  0.00  0.00    +0.000 C 
ATOM     18  C   UNL     1       7.858   7.040  18.295  0.00  0.00    +0.000 C 
ATOM     19  O   UNL     1       8.509   8.012  18.654  0.00  0.00    +0.000 OA
ENDBRANCH  16  18
ENDBRANCH  15  16
ENDBRANCH  13  15
ENDBRANCH   1  13
BRANCH  12  20
ATOM     20  C   UNL     1       4.154   2.825  19.538  0.00  0.00    +0.000 C 
ATOM     21  O   UNL     1       3.714   2.201  20.493  0.00  0.00    +0.000 OA
BRANCH  20  22
ATOM     22  O   UNL     1       5.457   3.190  19.487  0.00  0.00    +0.000 OA
ATOM     23  H   UNL     1       6.033   2.409  19.379  0.00  0.00    +0.000 HD
ENDBRANCH  20  22
ENDBRANCH  12  20
TORSDOF 6
ENDMDL
MODEL 3
REMARK VINA RESULT:      -6.5      3.314      6.166
REMARK  Name = 
REMARK  8 active torsions:
REMARK  status: ('A' for Active; 'I' for Inactive)
REMARK    1  A    between atoms: C_1  and  C_2
REMARK    2  A    between atoms: C_2  and  S_4
REMARK    3  A    between atoms: S_4  and  C_5
REMARK    4  A    between atoms: C_5  and  C_6
REMARK    5  A    between atoms: C_6  and  C_7
REMARK    6  A    between atoms: C_6  and  C_8
REMARK    7  A    between atoms: C_19  and  C_20
REMARK    8  A    between atoms: C_20  and  O_22
REMARK                            x       y       z     vdW  Elec       q    Type
REMARK                         _______ _______ _______ _____ _____    ______ ____
ROOT
ATOM      1  C   UNL     1       2.274   6.052  19.799  0.00  0.00    +0.000 C 
ATOM      2  O   UNL     1       1.465   5.332  20.393  0.00  0.00    +0.000 OA
ATOM      3  N   UNL     1       3.190   5.451  18.945  0.00  0.00    +0.000 N 
ATOM      4  C   UNL     1       4.170   6.216  18.175  0.00  0.00    +0.000 C 
ATOM      5  C   UNL     1       4.785   5.478  17.025  0.00  0.00    +0.000 A 
ATOM      6  C   UNL     1       5.120   6.145  15.843  0.00  0.00    +0.000 A 
ATOM      7  C   UNL     1       5.734   5.451  14.805  0.00  0.00    +0.000 A 
ATOM      8  C   UNL     1       6.033   4.096  14.952  0.00  0.00    +0.000 A 
ATOM      9  C   UNL     1       5.722   3.430  16.139  0.00  0.00    +0.000 A 
ATOM     10  C   UNL     1       5.095   4.120  17.177  0.00  0.00    +0.000 A 
ATOM     11  C   UNL     1       4.702   3.463  18.476  0.00  0.00    +0.000 C 
ATOM     12  C   UNL     1       3.296   3.949  18.895  0.00  0.00    +0.000 C 
ENDROOT
BRANCH   1  13
ATOM     13  C   UNL     1       2.142   7.595  19.844  0.00  0.00    +0.000 C 
ATOM     14  C   UNL     1       1.307   8.123  21.018  0.00  0.00    +0.000 C 
BRANCH  13  15
ATOM     15  C   UNL     1       1.554   8.107  18.506  0.00  0.00    +0.000 C 
BRANCH  15  16
ATOM     16  S   UNL     1       1.475   9.936  18.474  0.00  0.00    +0.000 S 
BRANCH  16  18
ATOM     17  C   UNL     1      -0.852  10.837  19.597  0.00  0.00    +0.000 C 
ATOM     18  C   UNL     1      -0.265  10.175  18.382  0.00  0.00    +0.000 C 
ATOM     19  O   UNL     1      -0.931   9.796  17.429  0.00  0.00    +0.000 OA
ENDBRANCH  16  18
ENDBRANCH  15  16
ENDBRANCH  13  15
ENDBRANCH   1  13
BRANCH  12  20
ATOM     20  C   UNL     1       2.256   3.272  17.963  0.00  0.00    +0.000 C 
ATOM     21  O   UNL     1       1.438   3.881  17.289  0.00  0.00    +0.000 OA
BRANCH  20  22
ATOM     22  O   UNL     1       2.385   1.929  17.853  0.00  0.00    +0.000 OA
ATOM     23  H   UNL     1       2.770   1.549  18.666  0.00  0.00    +0.000 HD
ENDBRANCH  20  22
ENDBRANCH  12  20
TORSDOF 6
ENDMDL
MODEL 4
REMARK VINA RESULT:      -6.5      1.495      1.647
REMARK  Name = 
REMARK  8 active torsions:
REMARK  status: ('A' for Active; 'I' for Inactive)
REMARK    1  A    between atoms: C_1  and  C_2
REMARK    2  A    between atoms: C_2  and  S_4
REMARK    3  A    between atoms: S_4  and  C_5
REMARK    4  A    between atoms: C_5  and  C_6
REMARK    5  A    between atoms: C_6  and  C_7
REMARK    6  A    between atoms: C_6  and  C_8
REMARK    7  A    between atoms: C_19  and  C_20
REMARK    8  A    between atoms: C_20  and  O_22
REMARK                            x       y       z     vdW  Elec       q    Type
REMARK                         _______ _______ _______ _____ _____    ______ ____
ROOT
ATOM      1  C   UNL     1       5.357   3.943  16.064  0.00  0.00    +0.000 C 
ATOM      2  O   UNL     1       5.839   2.834  15.808  0.00  0.00    +0.000 OA
ATOM      3  N   UNL     1       4.275   4.008  16.932  0.00  0.00    +0.000 N 
ATOM      4  C   UNL     1       3.651   5.272  17.320  0.00  0.00    +0.000 C 
ATOM      5  C   UNL     1       2.793   5.203  18.546  0.00  0.00    +0.000 A 
ATOM      6  C   UNL     1       2.724   6.279  19.435  0.00  0.00    +0.000 A 
ATOM      7  C   UNL     1       1.886   6.213  20.543  0.00  0.00    +0.000 A 
ATOM      8  C   UNL     1       1.097   5.081  20.754  0.00  0.00    +0.000 A 
ATOM      9  C   UNL     1       1.143   4.013  19.857  0.00  0.00    +0.000 A 
ATOM     10  C   UNL     1       1.993   4.071  18.753  0.00  0.00    +0.000 A 
ATOM     11  C   UNL     1       2.119   2.945  17.757  0.00  0.00    +0.000 C 
ATOM     12  C   UNL     1       3.607   2.740  17.397  0.00  0.00    +0.000 C 
ENDROOT
BRANCH   1  13
ATOM     13  C   UNL     1       6.063   5.239  15.594  0.00  0.00    +0.000 C 
ATOM     14  C   UNL     1       6.850   5.091  14.286  0.00  0.00    +0.000 C 
BRANCH  13  15
ATOM     15  C   UNL     1       6.997   5.759  16.715  0.00  0.00    +0.000 C 
BRANCH  15  16
ATOM     16  S   UNL     1       6.656   7.515  17.102  0.00  0.00    +0.000 S 
BRANCH  16  18
ATOM     17  C   UNL     1       8.452   9.288  18.162  0.00  0.00    +0.000 C 
ATOM     18  C   UNL     1       7.985   7.860  18.201  0.00  0.00    +0.000 C 
ATOM     19  O   UNL     1       8.500   6.998  18.900  0.00  0.00    +0.000 OA
ENDBRANCH  16  18
ENDBRANCH  15  16
ENDBRANCH  13  15
ENDBRANCH   1  13
BRANCH  12  20
ATOM     20  C   UNL     1       4.306   2.065  18.607  0.00  0.00    +0.000 C 
ATOM     21  O   UNL     1       4.833   2.676  19.525  0.00  0.00    +0.000 OA
BRANCH  20  22
ATOM     22  O   UNL     1       4.197   0.715  18.642  0.00  0.00    +0.000 OA
ATOM     23  H   UNL     1       3.309   0.431  18.354  0.00  0.00    +0.000 HD
ENDBRANCH  20  22
ENDBRANCH  12  20
TORSDOF 6
ENDMDL
MODEL 5
REMARK VINA RESULT:      -6.3      3.382      6.004
REMARK  Name = 
REMARK  8 active torsions:
REMARK  status: ('A' for Active; 'I' for Inactive)
REMARK    1  A    between atoms: C_1  and  C_2
REMARK    2  A    between atoms: C_2  and  S_4
REMARK    3  A    between atoms: S_4  and  C_5
REMARK    4  A    between atoms: C_5  and  C_6
REMARK    5  A    between atoms: C_6  and  C_7
REMARK    6  A    between atoms: C_6  and  C_8
REMARK    7  A    between atoms: C_19  and  C_20
REMARK    8  A    between atoms: C_20  and  O_22
REMARK                            x       y       z     vdW  Elec       q    Type
REMARK                         _______ _______ _______ _____ _____    ______ ____
ROOT
ATOM      1  C   UNL     1       2.118   6.155  19.958  0.00  0.00    +0.000 C 
ATOM      2  O   UNL     1       1.240   5.464  20.485  0.00  0.00    +0.000 OA
ATOM      3  N   UNL     1       3.000   5.542  19.077  0.00  0.00    +0.000 N 
ATOM      4  C   UNL     1       4.056   6.276  18.381  0.00  0.00    +0.000 C 
ATOM      5  C   UNL     1       4.635   5.574  17.191  0.00  0.00    +0.000 A 
ATOM      6  C   UNL     1       5.049   6.293  16.066  0.00  0.00    +0.000 A 
ATOM      7  C   UNL     1       5.627   5.627  14.990  0.00  0.00    +0.000 A 
ATOM      8  C   UNL     1       5.812   4.245  15.043  0.00  0.00    +0.000 A 
ATOM      9  C   UNL     1       5.421   3.524  16.173  0.00  0.00    +0.000 A 
ATOM     10  C   UNL     1       4.829   4.188  17.248  0.00  0.00    +0.000 A 
ATOM     11  C   UNL     1       4.356   3.475  18.490  0.00  0.00    +0.000 C 
ATOM     12  C   UNL     1       2.986   4.044  18.920  0.00  0.00    +0.000 C 
ENDROOT
BRANCH   1  13
ATOM     13  C   UNL     1       2.112   7.696  20.114  0.00  0.00    +0.000 C 
ATOM     14  C   UNL     1       1.246   8.210  21.272  0.00  0.00    +0.000 C 
BRANCH  13  15
ATOM     15  C   UNL     1       1.658   8.352  18.786  0.00  0.00    +0.000 C 
BRANCH  15  16
ATOM     16  S   UNL     1       0.498   9.735  19.091  0.00  0.00    +0.000 S 
BRANCH  16  18
ATOM     17  C   UNL     1       1.177  12.362  19.450  0.00  0.00    +0.000 C 
ATOM     18  C   UNL     1       1.532  11.104  18.707  0.00  0.00    +0.000 C 
ATOM     19  O   UNL     1       2.430  11.038  17.878  0.00  0.00    +0.000 OA
ENDBRANCH  16  18
ENDBRANCH  15  16
ENDBRANCH  13  15
ENDBRANCH   1  13
BRANCH  12  20
ATOM     20  C   UNL     1       1.914   3.524  17.925  0.00  0.00    +0.000 C 
ATOM     21  O   UNL     1       1.155   4.244  17.293  0.00  0.00    +0.000 OA
BRANCH  20  22
ATOM     22  O   UNL     1       1.947   2.188  17.706  0.00  0.00    +0.000 OA
ATOM     23  H   UNL     1       1.048   1.838  17.559  0.00  0.00    +0.000 HD
ENDBRANCH  20  22
ENDBRANCH  12  20
TORSDOF 6
ENDMDL
MODEL 6
REMARK VINA RESULT:      -6.3      1.148      1.247
REMARK  Name = 
REMARK  8 active torsions:
REMARK  status: ('A' for Active; 'I' for Inactive)
REMARK    1  A    between atoms: C_1  and  C_2
REMARK    2  A    between atoms: C_2  and  S_4
REMARK    3  A    between atoms: S_4  and  C_5
REMARK    4  A    between atoms: C_5  and  C_6
REMARK    5  A    between atoms: C_6  and  C_7
REMARK    6  A    between atoms: C_6  and  C_8
REMARK    7  A    between atoms: C_19  and  C_20
REMARK    8  A    between atoms: C_20  and  O_22
REMARK                            x       y       z     vdW  Elec       q    Type
REMARK                         _______ _______ _______ _____ _____    ______ ____
ROOT
ATOM      1  C   UNL     1       5.160   3.989  16.108  0.00  0.00    +0.000 C 
ATOM      2  O   UNL     1       5.602   2.872  15.818  0.00  0.00    +0.000 OA
ATOM      3  N   UNL     1       4.097   4.067  16.999  0.00  0.00    +0.000 N 
ATOM      4  C   UNL     1       3.520   5.339  17.428  0.00  0.00    +0.000 C 
ATOM      5  C   UNL     1       2.684   5.268  18.669  0.00  0.00    +0.000 A 
ATOM      6  C   UNL     1       2.666   6.326  19.583  0.00  0.00    +0.000 A 
ATOM      7  C   UNL     1       1.847   6.260  20.706  0.00  0.00    +0.000 A 
ATOM      8  C   UNL     1       1.028   5.148  20.907  0.00  0.00    +0.000 A 
ATOM      9  C   UNL     1       1.024   4.099  19.986  0.00  0.00    +0.000 A 
ATOM     10  C   UNL     1       1.854   4.157  18.866  0.00  0.00    +0.000 A 
ATOM     11  C   UNL     1       1.926   3.051  17.843  0.00  0.00    +0.000 C 
ATOM     12  C   UNL     1       3.400   2.809  17.448  0.00  0.00    +0.000 C 
ENDROOT
BRANCH   1  13
ATOM     13  C   UNL     1       5.896   5.273  15.654  0.00  0.00    +0.000 C 
ATOM     14  C   UNL     1       5.689   5.631  14.176  0.00  0.00    +0.000 C 
BRANCH  13  15
ATOM     15  C   UNL     1       7.410   5.141  15.956  0.00  0.00    +0.000 C 
BRANCH  15  16
ATOM     16  S   UNL     1       7.694   4.452  17.628  0.00  0.00    +0.000 S 
BRANCH  16  18
ATOM     17  C   UNL     1       7.793   7.108  18.282  0.00  0.00    +0.000 C 
ATOM     18  C   UNL     1       7.143   5.796  18.620  0.00  0.00    +0.000 C 
ATOM     19  O   UNL     1       6.332   5.655  19.526  0.00  0.00    +0.000 OA
ENDBRANCH  16  18
ENDBRANCH  15  16
ENDBRANCH  13  15
ENDBRANCH   1  13
BRANCH  12  20
ATOM     20  C   UNL     1       4.101   2.085  18.629  0.00  0.00    +0.000 C 
ATOM     21  O   UNL     1       3.931   0.908  18.912  0.00  0.00    +0.000 OA
BRANCH  20  22
ATOM     22  O   UNL     1       5.026   2.831  19.279  0.00  0.00    +0.000 OA
ATOM     23  H   UNL     1       4.667   3.177  20.117  0.00  0.00    +0.000 HD
ENDBRANCH  20  22
ENDBRANCH  12  20
TORSDOF 6
ENDMDL
MODEL 7
REMARK VINA RESULT:      -6.2      2.839      5.494
REMARK  Name = 
REMARK  8 active torsions:
REMARK  status: ('A' for Active; 'I' for Inactive)
REMARK    1  A    between atoms: C_1  and  C_2
REMARK    2  A    between atoms: C_2  and  S_4
REMARK    3  A    between atoms: S_4  and  C_5
REMARK    4  A    between atoms: C_5  and  C_6
REMARK    5  A    between atoms: C_6  and  C_7
REMARK    6  A    between atoms: C_6  and  C_8
REMARK    7  A    between atoms: C_19  and  C_20
REMARK    8  A    between atoms: C_20  and  O_22
REMARK                            x       y       z     vdW  Elec       q    Type
REMARK                         _______ _______ _______ _____ _____    ______ ____
ROOT
ATOM      1  C   UNL     1       3.752   3.658  17.926  0.00  0.00    +0.000 C 
ATOM      2  O   UNL     1       2.564   3.839  17.640  0.00  0.00    +0.000 OA
ATOM      3  N   UNL     1       4.651   4.693  17.698  0.00  0.00    +0.000 N 
ATOM      4  C   UNL     1       6.071   4.590  18.027  0.00  0.00    +0.000 C 
ATOM      5  C   UNL     1       6.799   5.898  18.103  0.00  0.00    +0.000 A 
ATOM      6  C   UNL     1       7.829   6.092  19.028  0.00  0.00    +0.000 A 
ATOM      7  C   UNL     1       8.523   7.297  19.051  0.00  0.00    +0.000 A 
ATOM      8  C   UNL     1       8.205   8.303  18.137  0.00  0.00    +0.000 A 
ATOM      9  C   UNL     1       7.193   8.106  17.196  0.00  0.00    +0.000 A 
ATOM     10  C   UNL     1       6.486   6.904  17.179  0.00  0.00    +0.000 A 
ATOM     11  C   UNL     1       5.362   6.628  16.213  0.00  0.00    +0.000 C 
ATOM     12  C   UNL     1       4.204   5.926  16.955  0.00  0.00    +0.000 C 
ENDROOT
BRANCH   1  13
ATOM     13  C   UNL     1       4.195   2.395  18.704  0.00  0.00    +0.000 C 
ATOM     14  C   UNL     1       3.265   1.187  18.529  0.00  0.00    +0.000 C 
BRANCH  13  15
ATOM     15  C   UNL     1       4.341   2.734  20.208  0.00  0.00    +0.000 C 
BRANCH  15  16
ATOM     16  S   UNL     1       2.811   2.331  21.130  0.00  0.00    +0.000 S 
BRANCH  16  18
ATOM     17  C   UNL     1       0.586   3.695  20.304  0.00  0.00    +0.000 C 
ATOM     18  C   UNL     1       1.931   3.844  20.957  0.00  0.00    +0.000 C 
ATOM     19  O   UNL     1       2.399   4.920  21.305  0.00  0.00    +0.000 OA
ENDBRANCH  16  18
ENDBRANCH  15  16
ENDBRANCH  13  15
ENDBRANCH   1  13
BRANCH  12  20
ATOM     20  C   UNL     1       3.496   6.979  17.849  0.00  0.00    +0.000 C 
ATOM     21  O   UNL     1       3.100   8.065  17.450  0.00  0.00    +0.000 OA
BRANCH  20  22
ATOM     22  O   UNL     1       3.235   6.565  19.112  0.00  0.00    +0.000 OA
ATOM     23  H   UNL     1       3.211   7.323  19.728  0.00  0.00    +0.000 HD
ENDBRANCH  20  22
ENDBRANCH  12  20
TORSDOF 6
ENDMDL
MODEL 8
REMARK VINA RESULT:      -6.2      2.105      5.792
REMARK  Name = 
REMARK  8 active torsions:
REMARK  status: ('A' for Active; 'I' for Inactive)
REMARK    1  A    between atoms: C_1  and  C_2
REMARK    2  A    between atoms: C_2  and  S_4
REMARK    3  A    between atoms: S_4  and  C_5
REMARK    4  A    between atoms: C_5  and  C_6
REMARK    5  A    between atoms: C_6  and  C_7
REMARK    6  A    between atoms: C_6  and  C_8
REMARK    7  A    between atoms: C_19  and  C_20
REMARK    8  A    between atoms: C_20  and  O_22
REMARK                            x       y       z     vdW  Elec       q    Type
REMARK                         _______ _______ _______ _____ _____    ______ ____
ROOT
ATOM      1  C   UNL     1       4.507   5.432  18.794  0.00  0.00    +0.000 C 
ATOM      2  O   UNL     1       5.130   5.669  19.834  0.00  0.00    +0.000 OA
ATOM      3  N   UNL     1       5.199   5.461  17.589  0.00  0.00    +0.000 N 
ATOM      4  C   UNL     1       4.561   5.167  16.307  0.00  0.00    +0.000 C 
ATOM      5  C   UNL     1       5.506   4.844  15.190  0.00  0.00    +0.000 A 
ATOM      6  C   UNL     1       5.164   3.906  14.211  0.00  0.00    +0.000 A 
ATOM      7  C   UNL     1       6.036   3.654  13.157  0.00  0.00    +0.000 A 
ATOM      8  C   UNL     1       7.241   4.352  13.065  0.00  0.00    +0.000 A 
ATOM      9  C   UNL     1       7.577   5.307  14.027  0.00  0.00    +0.000 A 
ATOM     10  C   UNL     1       6.711   5.552  15.093  0.00  0.00    +0.000 A 
ATOM     11  C   UNL     1       7.018   6.546  16.185  0.00  0.00    +0.000 C 
ATOM     12  C   UNL     1       6.625   5.946  17.553  0.00  0.00    +0.000 C 
ENDROOT
BRANCH   1  13
ATOM     13  C   UNL     1       3.048   4.917  18.846  0.00  0.00    +0.000 C 
ATOM     14  C   UNL     1       2.008   5.912  18.312  0.00  0.00    +0.000 C 
BRANCH  13  15
ATOM     15  C   UNL     1       2.690   4.510  20.297  0.00  0.00    +0.000 C 
BRANCH  15  16
ATOM     16  S   UNL     1       2.364   2.713  20.420  0.00  0.00    +0.000 S 
BRANCH  16  18
ATOM     17  C   UNL     1       3.616   1.453  18.338  0.00  0.00    +0.000 C 
ATOM     18  C   UNL     1       3.831   2.075  19.689  0.00  0.00    +0.000 C 
ATOM     19  O   UNL     1       4.914   2.105  20.257  0.00  0.00    +0.000 OA
ENDBRANCH  16  18
ENDBRANCH  15  16
ENDBRANCH  13  15
ENDBRANCH   1  13
BRANCH  12  20
ATOM     20  C   UNL     1       7.671   4.859  17.920  0.00  0.00    +0.000 C 
ATOM     21  O   UNL     1       8.196   4.109  17.111  0.00  0.00    +0.000 OA
BRANCH  20  22
ATOM     22  O   UNL     1       8.063   4.867  19.217  0.00  0.00    +0.000 OA
ATOM     23  H   UNL     1       8.611   5.652  19.409  0.00  0.00    +0.000 HD
ENDBRANCH  20  22
ENDBRANCH  12  20
TORSDOF 6
ENDMDL
MODEL 9
REMARK VINA RESULT:      -6.2      3.233      5.641
REMARK  Name = 
REMARK  8 active torsions:
REMARK  status: ('A' for Active; 'I' for Inactive)
REMARK    1  A    between atoms: C_1  and  C_2
REMARK    2  A    between atoms: C_2  and  S_4
REMARK    3  A    between atoms: S_4  and  C_5
REMARK    4  A    between atoms: C_5  and  C_6
REMARK    5  A    between atoms: C_6  and  C_7
REMARK    6  A    between atoms: C_6  and  C_8
REMARK    7  A    between atoms: C_19  and  C_20
REMARK    8  A    between atoms: C_20  and  O_22
REMARK                            x       y       z     vdW  Elec       q    Type
REMARK                         _______ _______ _______ _____ _____    ______ ____
ROOT
ATOM      1  C   UNL     1       3.172   7.542  17.930  0.00  0.00    +0.000 C 
ATOM      2  O   UNL     1       4.271   8.090  17.793  0.00  0.00    +0.000 OA
ATOM      3  N   UNL     1       3.118   6.154  17.885  0.00  0.00    +0.000 N 
ATOM      4  C   UNL     1       1.873   5.409  18.064  0.00  0.00    +0.000 C 
ATOM      5  C   UNL     1       2.047   3.958  18.393  0.00  0.00    +0.000 A 
ATOM      6  C   UNL     1       1.156   3.305  19.250  0.00  0.00    +0.000 A 
ATOM      7  C   UNL     1       1.307   1.946  19.506  0.00  0.00    +0.000 A 
ATOM      8  C   UNL     1       2.336   1.230  18.890  0.00  0.00    +0.000 A 
ATOM      9  C   UNL     1       3.214   1.871  18.015  0.00  0.00    +0.000 A 
ATOM     10  C   UNL     1       3.073   3.237  17.767  0.00  0.00    +0.000 A 
ATOM     11  C   UNL     1       3.999   4.004  16.857  0.00  0.00    +0.000 C 
ATOM     12  C   UNL     1       4.343   5.366  17.501  0.00  0.00    +0.000 C 
ENDROOT
BRANCH   1  13
ATOM     13  C   UNL     1       1.925   8.361  18.342  0.00  0.00    +0.000 C 
ATOM     14  C   UNL     1       1.922   9.808  17.831  0.00  0.00    +0.000 C 
BRANCH  13  15
ATOM     15  C   UNL     1       1.778   8.347  19.884  0.00  0.00    +0.000 C 
BRANCH  15  16
ATOM     16  S   UNL     1       0.456   9.488  20.436  0.00  0.00    +0.000 S 
BRANCH  16  18
ATOM     17  C   UNL     1      -0.484   9.696  22.997  0.00  0.00    +0.000 C 
ATOM     18  C   UNL     1       0.755   9.502  22.168  0.00  0.00    +0.000 C 
ATOM     19  O   UNL     1       1.878   9.403  22.643  0.00  0.00    +0.000 OA
ENDBRANCH  16  18
ENDBRANCH  15  16
ENDBRANCH  13  15
ENDBRANCH   1  13
BRANCH  12  20
ATOM     20  C   UNL     1       5.323   5.109  18.676  0.00  0.00    +0.000 C 
ATOM     21  O   UNL     1       6.418   4.579  18.555  0.00  0.00    +0.000 OA
BRANCH  20  22
ATOM     22  O   UNL     1       4.928   5.624  19.865  0.00  0.00    +0.000 OA
ATOM     23  H   UNL     1       3.954   5.661  19.921  0.00  0.00    +0.000 HD
ENDBRANCH  20  22
ENDBRANCH  12  20
TORSDOF 6
ENDMDL
