MODEL 1
REMARK VINA RESULT:      -8.3      0.000      0.000
REMARK  Name = 
REMARK  8 active torsions:
REMARK  status: ('A' for Active; 'I' for Inactive)
REMARK    1  A    between atoms: C_1  and  C_2
REMARK    2  A    between atoms: C_7  and  N_8
REMARK    3  A    between atoms: C_9  and  C_11
REMARK    4  A    between atoms: C_11  and  O_12
REMARK    5  A    between atoms: O_12  and  C_13
REMARK    6  A    between atoms: C_13  and  C_15
REMARK    7  A    between atoms: C_16  and  C_17
REMARK    8  A    between atoms: C_25  and  C_26
REMARK                            x       y       z     vdW  Elec       q    Type
REMARK                         _______ _______ _______ _____ _____    ______ ____
ROOT
ATOM      1  C   UNL     1       3.560   2.564  20.184  0.00  0.00    +0.000 C 
ATOM      2  O   UNL     1       4.648   2.090  20.483  0.00  0.00    +0.000 OA
ENDROOT
BRANCH   1   3
ATOM      3  C   UNL     1       3.205   2.966  18.847  0.00  0.00    +0.000 A 
ATOM      4  C   UNL     1       3.944   3.797  17.950  0.00  0.00    +0.000 A 
ATOM      5  N   UNL     1       3.234   4.017  16.829  0.00  0.00    +0.000 NA
ATOM      6  O   UNL     1       2.073   3.288  16.956  0.00  0.00    +0.000 OA
ATOM      7  C   UNL     1       2.064   2.640  18.148  0.00  0.00    +0.000 A 
ATOM      8  C   UNL     1       0.874   1.808  18.422  0.00  0.00    +0.000 C 
BRANCH   4   9
ATOM      9  C   UNL     1       5.295   4.338  18.102  0.00  0.00    +0.000 A 
ATOM     10  C   UNL     1       5.644   5.084  19.239  0.00  0.00    +0.000 A 
ATOM     11  C   UNL     1       6.929   5.617  19.375  0.00  0.00    +0.000 A 
ATOM     12  C   UNL     1       7.881   5.392  18.387  0.00  0.00    +0.000 A 
ATOM     13  C   UNL     1       7.556   4.627  17.266  0.00  0.00    +0.000 A 
ATOM     14  C   UNL     1       6.270   4.101  17.124  0.00  0.00    +0.000 A 
ENDBRANCH   4   9
ENDBRANCH   1   3
BRANCH   1  15
ATOM     15  O   UNL     1       2.550   2.748  21.069  0.00  0.00    +0.000 OA
BRANCH  15  16
ATOM     16  C   UNL     1       2.543   4.003  21.756  0.00  0.00    +0.000 C 
BRANCH  16  18
ATOM     17  N   UNL     1       2.624   6.130  20.554  0.00  0.00    +0.000 N 
ATOM     18  C   UNL     1       1.855   5.012  20.855  0.00  0.00    +0.000 C 
ATOM     19  O   UNL     1       0.731   4.757  20.427  0.00  0.00    +0.000 OA
ATOM     20  H   UNL     1       3.591   6.130  20.857  0.00  0.00    +0.000 HD
BRANCH  17  27
ATOM     21  C   UNL     1       1.093   8.365  21.762  0.00  0.00    +0.000 C 
ATOM     22  C   UNL     1       1.480   8.295  20.309  0.00  0.00    +0.000 A 
ATOM     23  C   UNL     1       1.103   9.378  19.486  0.00  0.00    +0.000 A 
ATOM     24  C   UNL     1       1.429   9.405  18.131  0.00  0.00    +0.000 A 
ATOM     25  C   UNL     1       2.118   8.341  17.574  0.00  0.00    +0.000 A 
ATOM     26  C   UNL     1       2.493   7.262  18.373  0.00  0.00    +0.000 A 
ATOM     27  C   UNL     1       2.206   7.223  19.745  0.00  0.00    +0.000 A 
ENDBRANCH  17  27
ENDBRANCH  16  18
ENDBRANCH  15  16
ENDBRANCH   1  15
TORSDOF 6
ENDMDL
MODEL 2
REMARK VINA RESULT:      -8.0      2.069      3.287
REMARK  Name = 
REMARK  8 active torsions:
REMARK  status: ('A' for Active; 'I' for Inactive)
REMARK    1  A    between atoms: C_1  and  C_2
REMARK    2  A    between atoms: C_7  and  N_8
REMARK    3  A    between atoms: C_9  and  C_11
REMARK    4  A    between atoms: C_11  and  O_12
REMARK    5  A    between atoms: O_12  and  C_13
REMARK    6  A    between atoms: C_13  and  C_15
REMARK    7  A    between atoms: C_16  and  C_17
REMARK    8  A    between atoms: C_25  and  C_26
REMARK                            x       y       z     vdW  Elec       q    Type
REMARK                         _______ _______ _______ _____ _____    ______ ____
ROOT
ATOM      1  C   UNL     1       2.086   4.607  18.397  0.00  0.00    +0.000 C 
ATOM      2  O   UNL     1       1.446   4.202  17.435  0.00  0.00    +0.000 OA
ENDROOT
BRANCH   1   3
ATOM      3  C   UNL     1       2.976   3.780  19.171  0.00  0.00    +0.000 A 
ATOM      4  C   UNL     1       4.344   3.466  18.904  0.00  0.00    +0.000 A 
ATOM      5  N   UNL     1       4.803   2.585  19.811  0.00  0.00    +0.000 NA
ATOM      6  O   UNL     1       3.774   2.372  20.701  0.00  0.00    +0.000 OA
ATOM      7  C   UNL     1       2.691   3.103  20.336  0.00  0.00    +0.000 A 
ATOM      8  C   UNL     1       1.504   2.979  21.207  0.00  0.00    +0.000 C 
BRANCH   4   9
ATOM      9  C   UNL     1       5.223   4.002  17.864  0.00  0.00    +0.000 A 
ATOM     10  C   UNL     1       4.915   3.830  16.506  0.00  0.00    +0.000 A 
ATOM     11  C   UNL     1       5.765   4.325  15.514  0.00  0.00    +0.000 A 
ATOM     12  C   UNL     1       6.919   5.014  15.870  0.00  0.00    +0.000 A 
ATOM     13  C   UNL     1       7.222   5.219  17.217  0.00  0.00    +0.000 A 
ATOM     14  C   UNL     1       6.378   4.717  18.209  0.00  0.00    +0.000 A 
ENDBRANCH   4   9
ENDBRANCH   1   3
BRANCH   1  15
ATOM     15  O   UNL     1       2.051   5.889  18.838  0.00  0.00    +0.000 OA
BRANCH  15  16
ATOM     16  C   UNL     1       2.857   6.822  18.110  0.00  0.00    +0.000 C 
BRANCH  16  18
ATOM     17  N   UNL     1       1.533   8.393  19.434  0.00  0.00    +0.000 N 
ATOM     18  C   UNL     1       2.199   8.184  18.233  0.00  0.00    +0.000 C 
ATOM     19  O   UNL     1       2.339   8.996  17.320  0.00  0.00    +0.000 OA
ATOM     20  H   UNL     1       1.630   7.687  20.154  0.00  0.00    +0.000 HD
BRANCH  17  27
ATOM     21  C   UNL     1       1.256   9.157  22.288  0.00  0.00    +0.000 C 
ATOM     22  C   UNL     1       0.689   9.952  21.142  0.00  0.00    +0.000 A 
ATOM     23  C   UNL     1       0.004  11.145  21.459  0.00  0.00    +0.000 A 
ATOM     24  C   UNL     1      -0.544  11.951  20.463  0.00  0.00    +0.000 A 
ATOM     25  C   UNL     1      -0.433  11.567  19.136  0.00  0.00    +0.000 A 
ATOM     26  C   UNL     1       0.237  10.389  18.809  0.00  0.00    +0.000 A 
ATOM     27  C   UNL     1       0.824   9.576  19.788  0.00  0.00    +0.000 A 
ENDBRANCH  17  27
ENDBRANCH  16  18
ENDBRANCH  15  16
ENDBRANCH   1  15
TORSDOF 6
ENDMDL
MODEL 3
REMARK VINA RESULT:      -7.9      2.789      5.127
REMARK  Name = 
REMARK  8 active torsions:
REMARK  status: ('A' for Active; 'I' for Inactive)
REMARK    1  A    between atoms: C_1  and  C_2
REMARK    2  A    between atoms: C_7  and  N_8
REMARK    3  A    between atoms: C_9  and  C_11
REMARK    4  A    between atoms: C_11  and  O_12
REMARK    5  A    between atoms: O_12  and  C_13
REMARK    6  A    between atoms: C_13  and  C_15
REMARK    7  A    between atoms: C_16  and  C_17
REMARK    8  A    between atoms: C_25  and  C_26
REMARK                            x       y       z     vdW  Elec       q    Type
REMARK                         _______ _______ _______ _____ _____    ______ ____
ROOT
ATOM      1  C   UNL     1       4.371   6.675  17.497  0.00  0.00    +0.000 C 
ATOM      2  O   UNL     1       4.509   6.770  16.284  0.00  0.00    +0.000 OA
ENDROOT
BRANCH   1   3
ATOM      3  C   UNL     1       5.148   5.786  18.322  0.00  0.00    +0.000 A 
ATOM      4  C   UNL     1       4.682   4.719  19.151  0.00  0.00    +0.000 A 
ATOM      5  N   UNL     1       5.708   4.184  19.837  0.00  0.00    +0.000 NA
ATOM      6  O   UNL     1       6.842   4.843  19.419  0.00  0.00    +0.000 OA
ATOM      7  C   UNL     1       6.514   5.783  18.496  0.00  0.00    +0.000 A 
ATOM      8  C   UNL     1       7.638   6.570  17.949  0.00  0.00    +0.000 C 
BRANCH   4   9
ATOM      9  C   UNL     1       3.330   4.173  19.271  0.00  0.00    +0.000 A 
ATOM     10  C   UNL     1       2.500   4.545  20.340  0.00  0.00    +0.000 A 
ATOM     11  C   UNL     1       1.216   4.008  20.465  0.00  0.00    +0.000 A 
ATOM     12  C   UNL     1       0.743   3.112  19.513  0.00  0.00    +0.000 A 
ATOM     13  C   UNL     1       1.547   2.757  18.429  0.00  0.00    +0.000 A 
ATOM     14  C   UNL     1       2.833   3.285  18.307  0.00  0.00    +0.000 A 
ENDBRANCH   4   9
ENDBRANCH   1   3
BRANCH   1  15
ATOM     15  O   UNL     1       3.484   7.410  18.213  0.00  0.00    +0.000 OA
BRANCH  15  16
ATOM     16  C   UNL     1       2.619   8.259  17.452  0.00  0.00    +0.000 C 
BRANCH  16  18
ATOM     17  N   UNL     1       0.991  10.028  17.894  0.00  0.00    +0.000 N 
ATOM     18  C   UNL     1       1.687   8.951  18.430  0.00  0.00    +0.000 C 
ATOM     19  O   UNL     1       1.576   8.498  19.568  0.00  0.00    +0.000 OA
ATOM     20  H   UNL     1       1.073  10.191  16.897  0.00  0.00    +0.000 HD
BRANCH  17  27
ATOM     21  C   UNL     1      -1.900   9.929  17.235  0.00  0.00    +0.000 C 
ATOM     22  C   UNL     1      -1.307  10.809  18.303  0.00  0.00    +0.000 A 
ATOM     23  C   UNL     1      -2.196  11.617  19.043  0.00  0.00    +0.000 A 
ATOM     24  C   UNL     1      -1.739  12.455  20.059  0.00  0.00    +0.000 A 
ATOM     25  C   UNL     1      -0.383  12.513  20.335  0.00  0.00    +0.000 A 
ATOM     26  C   UNL     1       0.509  11.725  19.609  0.00  0.00    +0.000 A 
ATOM     27  C   UNL     1       0.072  10.850  18.604  0.00  0.00    +0.000 A 
ENDBRANCH  17  27
ENDBRANCH  16  18
ENDBRANCH  15  16
ENDBRANCH   1  15
TORSDOF 6
ENDMDL
MODEL 4
REMARK VINA RESULT:      -7.9      1.786      3.149
REMARK  Name = 
REMARK  8 active torsions:
REMARK  status: ('A' for Active; 'I' for Inactive)
REMARK    1  A    between atoms: C_1  and  C_2
REMARK    2  A    between atoms: C_7  and  N_8
REMARK    3  A    between atoms: C_9  and  C_11
REMARK    4  A    between atoms: C_11  and  O_12
REMARK    5  A    between atoms: O_12  and  C_13
REMARK    6  A    between atoms: C_13  and  C_15
REMARK    7  A    between atoms: C_16  and  C_17
REMARK    8  A    between atoms: C_25  and  C_26
REMARK                            x       y       z     vdW  Elec       q    Type
REMARK                         _______ _______ _______ _____ _____    ______ ____
ROOT
ATOM      1  C   UNL     1       2.038   4.510  18.120  0.00  0.00    +0.000 C 
ATOM      2  O   UNL     1       1.167   4.008  17.421  0.00  0.00    +0.000 OA
ENDROOT
BRANCH   1   3
ATOM      3  C   UNL     1       2.938   3.746  18.946  0.00  0.00    +0.000 A 
ATOM      4  C   UNL     1       4.335   3.515  18.749  0.00  0.00    +0.000 A 
ATOM      5  N   UNL     1       4.802   2.673  19.688  0.00  0.00    +0.000 NA
ATOM      6  O   UNL     1       3.745   2.404  20.530  0.00  0.00    +0.000 OA
ATOM      7  C   UNL     1       2.639   3.063  20.103  0.00  0.00    +0.000 A 
ATOM      8  C   UNL     1       1.421   2.874  20.918  0.00  0.00    +0.000 C 
BRANCH   4   9
ATOM      9  C   UNL     1       5.229   4.096  17.747  0.00  0.00    +0.000 A 
ATOM     10  C   UNL     1       6.281   4.943  18.131  0.00  0.00    +0.000 A 
ATOM     11  C   UNL     1       7.122   5.512  17.172  0.00  0.00    +0.000 A 
ATOM     12  C   UNL     1       6.933   5.225  15.825  0.00  0.00    +0.000 A 
ATOM     13  C   UNL     1       5.910   4.361  15.432  0.00  0.00    +0.000 A 
ATOM     14  C   UNL     1       5.063   3.798  16.388  0.00  0.00    +0.000 A 
ENDBRANCH   4   9
ENDBRANCH   1   3
BRANCH   1  15
ATOM     15  O   UNL     1       2.275   5.844  18.186  0.00  0.00    +0.000 OA
BRANCH  15  16
ATOM     16  C   UNL     1       2.952   6.300  19.361  0.00  0.00    +0.000 C 
BRANCH  16  18
ATOM     17  N   UNL     1       1.799   8.324  20.102  0.00  0.00    +0.000 N 
ATOM     18  C   UNL     1       1.916   6.949  20.261  0.00  0.00    +0.000 C 
ATOM     19  O   UNL     1       1.240   6.234  21.000  0.00  0.00    +0.000 OA
ATOM     20  H   UNL     1       2.317   8.755  19.346  0.00  0.00    +0.000 HD
BRANCH  17  27
ATOM     21  C   UNL     1       0.125  10.314  18.676  0.00  0.00    +0.000 C 
ATOM     22  C   UNL     1       0.111  10.114  20.167  0.00  0.00    +0.000 A 
ATOM     23  C   UNL     1      -0.775  10.914  20.920  0.00  0.00    +0.000 A 
ATOM     24  C   UNL     1      -0.865  10.790  22.305  0.00  0.00    +0.000 A 
ATOM     25  C   UNL     1      -0.055   9.877  22.961  0.00  0.00    +0.000 A 
ATOM     26  C   UNL     1       0.828   9.082  22.232  0.00  0.00    +0.000 A 
ATOM     27  C   UNL     1       0.916   9.165  20.835  0.00  0.00    +0.000 A 
ENDBRANCH  17  27
ENDBRANCH  16  18
ENDBRANCH  15  16
ENDBRANCH   1  15
TORSDOF 6
ENDMDL
MODEL 5
REMARK VINA RESULT:      -7.8      2.534      3.662
REMARK  Name = 
REMARK  8 active torsions:
REMARK  status: ('A' for Active; 'I' for Inactive)
REMARK    1  A    between atoms: C_1  and  C_2
REMARK    2  A    between atoms: C_7  and  N_8
REMARK    3  A    between atoms: C_9  and  C_11
REMARK    4  A    between atoms: C_11  and  O_12
REMARK    5  A    between atoms: O_12  and  C_13
REMARK    6  A    between atoms: C_13  and  C_15
REMARK    7  A    between atoms: C_16  and  C_17
REMARK    8  A    between atoms: C_25  and  C_26
REMARK                            x       y       z     vdW  Elec       q    Type
REMARK                         _______ _______ _______ _____ _____    ______ ____
ROOT
ATOM      1  C   UNL     1       2.213   5.155  18.115  0.00  0.00    +0.000 C 
ATOM      2  O   UNL     1       1.207   4.783  17.525  0.00  0.00    +0.000 OA
ENDROOT
BRANCH   1   3
ATOM      3  C   UNL     1       3.037   4.287  18.916  0.00  0.00    +0.000 A 
ATOM      4  C   UNL     1       4.368   3.840  18.651  0.00  0.00    +0.000 A 
ATOM      5  N   UNL     1       4.759   2.963  19.592  0.00  0.00    +0.000 NA
ATOM      6  O   UNL     1       3.728   2.882  20.501  0.00  0.00    +0.000 OA
ATOM      7  C   UNL     1       2.709   3.690  20.114  0.00  0.00    +0.000 A 
ATOM      8  C   UNL     1       1.529   3.712  21.002  0.00  0.00    +0.000 C 
BRANCH   4   9
ATOM      9  C   UNL     1       5.276   4.250  17.579  0.00  0.00    +0.000 A 
ATOM     10  C   UNL     1       6.357   5.105  17.844  0.00  0.00    +0.000 A 
ATOM     11  C   UNL     1       7.213   5.511  16.817  0.00  0.00    +0.000 A 
ATOM     12  C   UNL     1       7.008   5.050  15.521  0.00  0.00    +0.000 A 
ATOM     13  C   UNL     1       5.956   4.175  15.250  0.00  0.00    +0.000 A 
ATOM     14  C   UNL     1       5.094   3.776  16.273  0.00  0.00    +0.000 A 
ENDBRANCH   4   9
ENDBRANCH   1   3
BRANCH   1  15
ATOM     15  O   UNL     1       2.685   6.426  18.069  0.00  0.00    +0.000 OA
BRANCH  15  16
ATOM     16  C   UNL     1       2.244   7.294  19.118  0.00  0.00    +0.000 C 
BRANCH  16  18
ATOM     17  N   UNL     1       1.197   9.493  19.327  0.00  0.00    +0.000 N 
ATOM     18  C   UNL     1       1.879   8.624  18.484  0.00  0.00    +0.000 C 
ATOM     19  O   UNL     1       2.242   8.853  17.331  0.00  0.00    +0.000 OA
ATOM     20  H   UNL     1       1.100   9.224  20.299  0.00  0.00    +0.000 HD
BRANCH  17  27
ATOM     21  C   UNL     1      -1.592   9.856  18.385  0.00  0.00    +0.000 C 
ATOM     22  C   UNL     1      -0.596  10.976  18.525  0.00  0.00    +0.000 A 
ATOM     23  C   UNL     1      -1.036  12.278  18.205  0.00  0.00    +0.000 A 
ATOM     24  C   UNL     1      -0.187  13.377  18.317  0.00  0.00    +0.000 A 
ATOM     25  C   UNL     1       1.122  13.189  18.730  0.00  0.00    +0.000 A 
ATOM     26  C   UNL     1       1.573  11.907  19.045  0.00  0.00    +0.000 A 
ATOM     27  C   UNL     1       0.730  10.789  18.971  0.00  0.00    +0.000 A 
ENDBRANCH  17  27
ENDBRANCH  16  18
ENDBRANCH  15  16
ENDBRANCH   1  15
TORSDOF 6
ENDMDL
MODEL 6
REMARK VINA RESULT:      -7.8      2.248      3.309
REMARK  Name = 
REMARK  8 active torsions:
REMARK  status: ('A' for Active; 'I' for Inactive)
REMARK    1  A    between atoms: C_1  and  C_2
REMARK    2  A    between atoms: C_7  and  N_8
REMARK    3  A    between atoms: C_9  and  C_11
REMARK    4  A    between atoms: C_11  and  O_12
REMARK    5  A    between atoms: O_12  and  C_13
REMARK    6  A    between atoms: C_13  and  C_15
REMARK    7  A    between atoms: C_16  and  C_17
REMARK    8  A    between atoms: C_25  and  C_26
REMARK                            x       y       z     vdW  Elec       q    Type
REMARK                         _______ _______ _______ _____ _____    ______ ____
ROOT
ATOM      1  C   UNL     1       2.791   5.591  19.069  0.00  0.00    +0.000 C 
ATOM      2  O   UNL     1       3.155   6.025  20.154  0.00  0.00    +0.000 OA
ENDROOT
BRANCH   1   3
ATOM      3  C   UNL     1       2.813   4.193  18.720  0.00  0.00    +0.000 A 
ATOM      4  C   UNL     1       3.714   3.517  17.841  0.00  0.00    +0.000 A 
ATOM      5  N   UNL     1       3.349   2.230  17.703  0.00  0.00    +0.000 NA
ATOM      6  O   UNL     1       2.263   2.043  18.529  0.00  0.00    +0.000 OA
ATOM      7  C   UNL     1       1.956   3.207  19.156  0.00  0.00    +0.000 A 
ATOM      8  C   UNL     1       0.809   3.156  20.086  0.00  0.00    +0.000 C 
BRANCH   4   9
ATOM      9  C   UNL     1       4.913   4.034  17.182  0.00  0.00    +0.000 A 
ATOM     10  C   UNL     1       4.925   4.268  15.798  0.00  0.00    +0.000 A 
ATOM     11  C   UNL     1       6.077   4.743  15.165  0.00  0.00    +0.000 A 
ATOM     12  C   UNL     1       7.219   5.008  15.912  0.00  0.00    +0.000 A 
ATOM     13  C   UNL     1       7.211   4.809  17.294  0.00  0.00    +0.000 A 
ATOM     14  C   UNL     1       6.064   4.326  17.926  0.00  0.00    +0.000 A 
ENDBRANCH   4   9
ENDBRANCH   1   3
BRANCH   1  15
ATOM     15  O   UNL     1       2.303   6.370  18.072  0.00  0.00    +0.000 OA
BRANCH  15  16
ATOM     16  C   UNL     1       3.061   7.544  17.769  0.00  0.00    +0.000 C 
BRANCH  16  18
ATOM     17  N   UNL     1       1.474   8.613  19.290  0.00  0.00    +0.000 N 
ATOM     18  C   UNL     1       2.197   8.745  18.111  0.00  0.00    +0.000 C 
ATOM     19  O   UNL     1       2.236   9.733  17.379  0.00  0.00    +0.000 OA
ATOM     20  H   UNL     1       1.659   7.801  19.866  0.00  0.00    +0.000 HD
BRANCH  17  27
ATOM     21  C   UNL     1       1.390   9.106  22.214  0.00  0.00    +0.000 C 
ATOM     22  C   UNL     1       0.535   9.832  21.211  0.00  0.00    +0.000 A 
ATOM     23  C   UNL     1      -0.342  10.823  21.704  0.00  0.00    +0.000 A 
ATOM     24  C   UNL     1      -1.163  11.554  20.847  0.00  0.00    +0.000 A 
ATOM     25  C   UNL     1      -1.134  11.293  19.487  0.00  0.00    +0.000 A 
ATOM     26  C   UNL     1      -0.277  10.314  18.986  0.00  0.00    +0.000 A 
ATOM     27  C   UNL     1       0.581   9.586  19.822  0.00  0.00    +0.000 A 
ENDBRANCH  17  27
ENDBRANCH  16  18
ENDBRANCH  15  16
ENDBRANCH   1  15
TORSDOF 6
ENDMDL
MODEL 7
REMARK VINA RESULT:      -7.8      2.640      4.823
REMARK  Name = 
REMARK  8 active torsions:
REMARK  status: ('A' for Active; 'I' for Inactive)
REMARK    1  A    between atoms: C_1  and  C_2
REMARK    2  A    between atoms: C_7  and  N_8
REMARK    3  A    between atoms: C_9  and  C_11
REMARK    4  A    between atoms: C_11  and  O_12
REMARK    5  A    between atoms: O_12  and  C_13
REMARK    6  A    between atoms: C_13  and  C_15
REMARK    7  A    between atoms: C_16  and  C_17
REMARK    8  A    between atoms: C_25  and  C_26
REMARK                            x       y       z     vdW  Elec       q    Type
REMARK                         _______ _______ _______ _____ _____    ______ ____
ROOT
ATOM      1  C   UNL     1       4.758   6.673  17.093  0.00  0.00    +0.000 C 
ATOM      2  O   UNL     1       4.814   6.459  15.889  0.00  0.00    +0.000 OA
ENDROOT
BRANCH   1   3
ATOM      3  C   UNL     1       5.488   5.912  18.074  0.00  0.00    +0.000 A 
ATOM      4  C   UNL     1       5.033   4.797  18.844  0.00  0.00    +0.000 A 
ATOM      5  N   UNL     1       5.981   4.420  19.720  0.00  0.00    +0.000 NA
ATOM      6  O   UNL     1       7.070   5.231  19.487  0.00  0.00    +0.000 OA
ATOM      7  C   UNL     1       6.787   6.105  18.489  0.00  0.00    +0.000 A 
ATOM      8  C   UNL     1       7.872   7.039  18.123  0.00  0.00    +0.000 C 
BRANCH   4   9
ATOM      9  C   UNL     1       3.770   4.065  18.741  0.00  0.00    +0.000 A 
ATOM     10  C   UNL     1       2.714   4.330  19.627  0.00  0.00    +0.000 A 
ATOM     11  C   UNL     1       1.515   3.618  19.541  0.00  0.00    +0.000 A 
ATOM     12  C   UNL     1       1.354   2.649  18.556  0.00  0.00    +0.000 A 
ATOM     13  C   UNL     1       2.385   2.397  17.649  0.00  0.00    +0.000 A 
ATOM     14  C   UNL     1       3.586   3.102  17.740  0.00  0.00    +0.000 A 
ENDBRANCH   4   9
ENDBRANCH   1   3
BRANCH   1  15
ATOM     15  O   UNL     1       4.019   7.665  17.648  0.00  0.00    +0.000 OA
BRANCH  15  16
ATOM     16  C   UNL     1       2.616   7.408  17.764  0.00  0.00    +0.000 C 
BRANCH  16  18
ATOM     17  N   UNL     1       1.194   8.638  19.327  0.00  0.00    +0.000 N 
ATOM     18  C   UNL     1       1.946   8.712  18.161  0.00  0.00    +0.000 C 
ATOM     19  O   UNL     1       2.149   9.716  17.479  0.00  0.00    +0.000 OA
ATOM     20  H   UNL     1       1.242   7.780  19.863  0.00  0.00    +0.000 HD
BRANCH  17  27
ATOM     21  C   UNL     1       1.351   9.148  22.245  0.00  0.00    +0.000 C 
ATOM     22  C   UNL     1       0.527   9.967  21.288  0.00  0.00    +0.000 A 
ATOM     23  C   UNL     1      -0.194  11.056  21.823  0.00  0.00    +0.000 A 
ATOM     24  C   UNL     1      -0.974  11.877  21.010  0.00  0.00    +0.000 A 
ATOM     25  C   UNL     1      -1.061  11.609  19.654  0.00  0.00    +0.000 A 
ATOM     26  C   UNL     1      -0.359  10.534  19.112  0.00  0.00    +0.000 A 
ATOM     27  C   UNL     1       0.458   9.711  19.901  0.00  0.00    +0.000 A 
ENDBRANCH  17  27
ENDBRANCH  16  18
ENDBRANCH  15  16
ENDBRANCH   1  15
TORSDOF 6
ENDMDL
MODEL 8
REMARK VINA RESULT:      -7.7      2.351      4.940
REMARK  Name = 
REMARK  8 active torsions:
REMARK  status: ('A' for Active; 'I' for Inactive)
REMARK    1  A    between atoms: C_1  and  C_2
REMARK    2  A    between atoms: C_7  and  N_8
REMARK    3  A    between atoms: C_9  and  C_11
REMARK    4  A    between atoms: C_11  and  O_12
REMARK    5  A    between atoms: O_12  and  C_13
REMARK    6  A    between atoms: C_13  and  C_15
REMARK    7  A    between atoms: C_16  and  C_17
REMARK    8  A    between atoms: C_25  and  C_26
REMARK                            x       y       z     vdW  Elec       q    Type
REMARK                         _______ _______ _______ _____ _____    ______ ____
ROOT
ATOM      1  C   UNL     1       4.339   6.437  17.283  0.00  0.00    +0.000 C 
ATOM      2  O   UNL     1       4.755   6.825  16.199  0.00  0.00    +0.000 OA
ENDROOT
BRANCH   1   3
ATOM      3  C   UNL     1       5.137   5.696  18.226  0.00  0.00    +0.000 A 
ATOM      4  C   UNL     1       4.719   4.652  19.107  0.00  0.00    +0.000 A 
ATOM      5  N   UNL     1       5.740   4.278  19.899  0.00  0.00    +0.000 NA
ATOM      6  O   UNL     1       6.832   5.017  19.502  0.00  0.00    +0.000 OA
ATOM      7  C   UNL     1       6.481   5.846  18.486  0.00  0.00    +0.000 A 
ATOM      8  C   UNL     1       7.559   6.701  17.950  0.00  0.00    +0.000 C 
BRANCH   4   9
ATOM      9  C   UNL     1       3.421   3.981  19.185  0.00  0.00    +0.000 A 
ATOM     10  C   UNL     1       2.965   3.178  18.128  0.00  0.00    +0.000 A 
ATOM     11  C   UNL     1       1.717   2.554  18.195  0.00  0.00    +0.000 A 
ATOM     12  C   UNL     1       0.923   2.709  19.326  0.00  0.00    +0.000 A 
ATOM     13  C   UNL     1       1.378   3.480  20.397  0.00  0.00    +0.000 A 
ATOM     14  C   UNL     1       2.621   4.112  20.328  0.00  0.00    +0.000 A 
ENDBRANCH   4   9
ENDBRANCH   1   3
BRANCH   1  15
ATOM     15  O   UNL     1       3.083   6.674  17.736  0.00  0.00    +0.000 OA
BRANCH  15  16
ATOM     16  C   UNL     1       2.729   8.051  17.902  0.00  0.00    +0.000 C 
BRANCH  16  18
ATOM     17  N   UNL     1       1.352   9.369  19.432  0.00  0.00    +0.000 N 
ATOM     18  C   UNL     1       2.065   8.189  19.260  0.00  0.00    +0.000 C 
ATOM     19  O   UNL     1       2.157   7.262  20.064  0.00  0.00    +0.000 OA
ATOM     20  H   UNL     1       1.241   9.973  18.626  0.00  0.00    +0.000 HD
BRANCH  17  27
ATOM     21  C   UNL     1      -0.516  11.674  19.382  0.00  0.00    +0.000 C 
ATOM     22  C   UNL     1      -0.239  10.838  20.603  0.00  0.00    +0.000 A 
ATOM     23  C   UNL     1      -0.935  11.169  21.785  0.00  0.00    +0.000 A 
ATOM     24  C   UNL     1      -0.751  10.443  22.961  0.00  0.00    +0.000 A 
ATOM     25  C   UNL     1       0.147   9.388  22.977  0.00  0.00    +0.000 A 
ATOM     26  C   UNL     1       0.845   9.052  21.818  0.00  0.00    +0.000 A 
ATOM     27  C   UNL     1       0.656   9.746  20.614  0.00  0.00    +0.000 A 
ENDBRANCH  17  27
ENDBRANCH  16  18
ENDBRANCH  15  16
ENDBRANCH   1  15
TORSDOF 6
ENDMDL
MODEL 9
REMARK VINA RESULT:      -7.7      2.422      3.576
REMARK  Name = 
REMARK  8 active torsions:
REMARK  status: ('A' for Active; 'I' for Inactive)
REMARK    1  A    between atoms: C_1  and  C_2
REMARK    2  A    between atoms: C_7  and  N_8
REMARK    3  A    between atoms: C_9  and  C_11
REMARK    4  A    between atoms: C_11  and  O_12
REMARK    5  A    between atoms: O_12  and  C_13
REMARK    6  A    between atoms: C_13  and  C_15
REMARK    7  A    between atoms: C_16  and  C_17
REMARK    8  A    between atoms: C_25  and  C_26
REMARK                            x       y       z     vdW  Elec       q    Type
REMARK                         _______ _______ _______ _____ _____    ______ ____
ROOT
ATOM      1  C   UNL     1       2.335   5.197  18.787  0.00  0.00    +0.000 C 
ATOM      2  O   UNL     1       1.558   4.990  17.865  0.00  0.00    +0.000 OA
ENDROOT
BRANCH   1   3
ATOM      3  C   UNL     1       3.137   4.170  19.402  0.00  0.00    +0.000 A 
ATOM      4  C   UNL     1       4.529   3.908  19.217  0.00  0.00    +0.000 A 
ATOM      5  N   UNL     1       4.888   2.803  19.896  0.00  0.00    +0.000 NA
ATOM      6  O   UNL     1       3.765   2.381  20.571  0.00  0.00    +0.000 OA
ATOM      7  C   UNL     1       2.725   3.209  20.298  0.00  0.00    +0.000 A 
ATOM      8  C   UNL     1       1.447   2.881  20.963  0.00  0.00    +0.000 C 
BRANCH   4   9
ATOM      9  C   UNL     1       5.518   4.686  18.470  0.00  0.00    +0.000 A 
ATOM     10  C   UNL     1       6.519   5.405  19.141  0.00  0.00    +0.000 A 
ATOM     11  C   UNL     1       7.451   6.164  18.428  0.00  0.00    +0.000 A 
ATOM     12  C   UNL     1       7.404   6.193  17.038  0.00  0.00    +0.000 A 
ATOM     13  C   UNL     1       6.432   5.458  16.357  0.00  0.00    +0.000 A 
ATOM     14  C   UNL     1       5.495   4.707  17.069  0.00  0.00    +0.000 A 
ENDBRANCH   4   9
ENDBRANCH   1   3
BRANCH   1  15
ATOM     15  O   UNL     1       2.552   6.421  19.330  0.00  0.00    +0.000 OA
BRANCH  15  16
ATOM     16  C   UNL     1       2.453   7.529  18.429  0.00  0.00    +0.000 C 
BRANCH  16  18
ATOM     17  N   UNL     1       1.200   9.622  18.276  0.00  0.00    +0.000 N 
ATOM     18  C   UNL     1       1.630   8.603  19.117  0.00  0.00    +0.000 C 
ATOM     19  O   UNL     1       1.366   8.475  20.312  0.00  0.00    +0.000 OA
ATOM     20  H   UNL     1       1.369   9.514  17.283  0.00  0.00    +0.000 HD
BRANCH  17  27
ATOM     21  C   UNL     1      -1.621   9.879  17.397  0.00  0.00    +0.000 C 
ATOM     22  C   UNL     1      -0.915  10.882  18.268  0.00  0.00    +0.000 A 
ATOM     23  C   UNL     1      -1.659  11.999  18.704  0.00  0.00    +0.000 A 
ATOM     24  C   UNL     1      -1.091  12.973  19.523  0.00  0.00    +0.000 A 
ATOM     25  C   UNL     1       0.237  12.855  19.902  0.00  0.00    +0.000 A 
ATOM     26  C   UNL     1       0.986  11.760  19.475  0.00  0.00    +0.000 A 
ATOM     27  C   UNL     1       0.430  10.750  18.676  0.00  0.00    +0.000 A 
ENDBRANCH  17  27
ENDBRANCH  16  18
ENDBRANCH  15  16
ENDBRANCH   1  15
TORSDOF 6
ENDMDL
