MODEL 1
REMARK VINA RESULT:      -7.5      0.000      0.000
REMARK  Name = 
REMARK  8 active torsions:
REMARK  status: ('A' for Active; 'I' for Inactive)
REMARK    1  A    between atoms: C_1  and  C_2
REMARK    2  A    between atoms: C_2  and  C_3
REMARK    3  A    between atoms: C_2  and  C_4
REMARK    4  A    between atoms: C_2  and  C_5
REMARK    5  A    between atoms: N_10  and  C_11
REMARK    6  A    between atoms: C_15  and  N_16
REMARK    7  A    between atoms: N_19  and  C_20
REMARK    8  A    between atoms: C_20  and  C_21
REMARK                            x       y       z     vdW  Elec       q    Type
REMARK                         _______ _______ _______ _____ _____    ______ ____
ROOT
ATOM      1  C   UNL     1      -0.281  11.007  18.886  0.00  0.00    +0.000 C 
ATOM      2  C   UNL     1      -0.313   9.819  17.909  0.00  0.00    +0.000 C 
ATOM      3  O   UNL     1       1.006   9.239  17.923  0.00  0.00    +0.000 OA
ATOM      4  C   UNL     1       1.524   9.422  19.248  0.00  0.00    +0.000 C 
ATOM      5  C   UNL     1       1.339   8.156  20.086  0.00  0.00    +0.000 C 
ATOM      6  C   UNL     1       0.819   8.715  21.403  0.00  0.00    +0.000 C 
ATOM      7  O   UNL     1       0.016   9.850  21.044  0.00  0.00    +0.000 OA
ATOM      8  C   UNL     1       0.688  10.490  19.946  0.00  0.00    +0.000 C 
ENDROOT
BRANCH   1  14
ATOM      9  C   UNL     1       0.684  15.625  19.187  0.00  0.00    +0.000 A 
ATOM     10  C   UNL     1      -0.450  15.860  19.947  0.00  0.00    +0.000 A 
ATOM     11  C   UNL     1      -1.268  14.787  20.176  0.00  0.00    +0.000 A 
ATOM     12  N   UNL     1      -1.043  13.567  19.667  0.00  0.00    +0.000 NA
ATOM     13  C   UNL     1       0.030  13.423  18.882  0.00  0.00    +0.000 A 
ATOM     14  N   UNL     1       0.227  12.219  18.222  0.00  0.00    +0.000 N 
ATOM     15  N   UNL     1       0.924  14.400  18.652  0.00  0.00    +0.000 NA
ATOM     16  H   UNL     1       1.171  12.199  17.854  0.00  0.00    +0.000 HD
BRANCH   9  18
ATOM     17  C   UNL     1       3.066  16.190  18.567  0.00  0.00    +0.000 C 
ATOM     18  C   UNL     1       1.677  16.766  18.920  0.00  0.00    +0.000 C 
ATOM     19  C   UNL     1       1.800  17.652  20.176  0.00  0.00    +0.000 C 
ATOM     20  C   UNL     1       1.235  17.663  17.745  0.00  0.00    +0.000 C 
ENDBRANCH   9  18
ENDBRANCH   1  14
BRANCH   5  21
ATOM     21  N   UNL     1       2.550   7.350  20.203  0.00  0.00    +0.000 N 
ATOM     22  C   UNL     1       2.676   6.163  19.536  0.00  0.00    +0.000 C 
ATOM     23  O   UNL     1       1.789   5.695  18.817  0.00  0.00    +0.000 OA
ATOM     24  N   UNL     1       3.870   5.543  19.784  0.00  0.00    +0.000 N 
ATOM     25  H   UNL     1       3.148   7.482  21.011  0.00  0.00    +0.000 HD
ATOM     26  H   UNL     1       4.649   6.165  19.950  0.00  0.00    +0.000 HD
BRANCH  24  27
ATOM     27  C   UNL     1       4.156   4.278  19.126  0.00  0.00    +0.000 C 
BRANCH  27  28
ATOM     28  C   UNL     1       5.115   4.410  17.966  0.00  0.00    +0.000 A 
ATOM     29  C   UNL     1       4.619   4.344  16.656  0.00  0.00    +0.000 A 
ATOM     30  C   UNL     1       5.474   4.444  15.556  0.00  0.00    +0.000 A 
ATOM     31  C   UNL     1       6.841   4.638  15.748  0.00  0.00    +0.000 A 
ATOM     32  C   UNL     1       7.346   4.740  17.040  0.00  0.00    +0.000 A 
ATOM     33  C   UNL     1       6.492   4.626  18.146  0.00  0.00    +0.000 A 
ENDBRANCH  27  28
ENDBRANCH  24  27
ENDBRANCH   5  21
TORSDOF 5
ENDMDL
MODEL 2
REMARK VINA RESULT:      -7.5      0.630      1.026
REMARK  Name = 
REMARK  8 active torsions:
REMARK  status: ('A' for Active; 'I' for Inactive)
REMARK    1  A    between atoms: C_1  and  C_2
REMARK    2  A    between atoms: C_2  and  C_3
REMARK    3  A    between atoms: C_2  and  C_4
REMARK    4  A    between atoms: C_2  and  C_5
REMARK    5  A    between atoms: N_10  and  C_11
REMARK    6  A    between atoms: C_15  and  N_16
REMARK    7  A    between atoms: N_19  and  C_20
REMARK    8  A    between atoms: C_20  and  C_21
REMARK                            x       y       z     vdW  Elec       q    Type
REMARK                         _______ _______ _______ _____ _____    ______ ____
ROOT
ATOM      1  C   UNL     1       0.354  10.890  18.813  0.00  0.00    +0.000 C 
ATOM      2  C   UNL     1       0.143   9.696  17.866  0.00  0.00    +0.000 C 
ATOM      3  O   UNL     1       1.358   8.923  17.902  0.00  0.00    +0.000 OA
ATOM      4  C   UNL     1       1.897   9.060  19.225  0.00  0.00    +0.000 C 
ATOM      5  C   UNL     1       1.520   7.858  20.093  0.00  0.00    +0.000 C 
ATOM      6  C   UNL     1       1.089   8.523  21.393  0.00  0.00    +0.000 C 
ATOM      7  O   UNL     1       0.469   9.757  21.002  0.00  0.00    +0.000 OA
ATOM      8  C   UNL     1       1.232  10.260  19.891  0.00  0.00    +0.000 C 
ENDROOT
BRANCH   1  14
ATOM      9  C   UNL     1       1.483  15.481  18.745  0.00  0.00    +0.000 A 
ATOM     10  C   UNL     1       0.240  15.842  19.237  0.00  0.00    +0.000 A 
ATOM     11  C   UNL     1      -0.662  14.830  19.428  0.00  0.00    +0.000 A 
ATOM     12  N   UNL     1      -0.408  13.549  19.121  0.00  0.00    +0.000 NA
ATOM     13  C   UNL     1       0.785  13.277  18.582  0.00  0.00    +0.000 A 
ATOM     14  N   UNL     1       1.041  11.994  18.122  0.00  0.00    +0.000 N 
ATOM     15  N   UNL     1       1.756  14.192  18.417  0.00  0.00    +0.000 NA
ATOM     16  H   UNL     1       2.035  11.901  17.950  0.00  0.00    +0.000 HD
BRANCH   9  18
ATOM     17  C   UNL     1       2.747  17.375  19.837  0.00  0.00    +0.000 C 
ATOM     18  C   UNL     1       2.567  16.550  18.544  0.00  0.00    +0.000 C 
ATOM     19  C   UNL     1       2.160  17.493  17.394  0.00  0.00    +0.000 C 
ATOM     20  C   UNL     1       3.937  15.933  18.194  0.00  0.00    +0.000 C 
ENDBRANCH   9  18
ENDBRANCH   1  14
BRANCH   5  21
ATOM     21  N   UNL     1       2.594   6.881  20.236  0.00  0.00    +0.000 N 
ATOM     22  C   UNL     1       2.723   5.839  19.361  0.00  0.00    +0.000 C 
ATOM     23  O   UNL     1       1.948   5.649  18.418  0.00  0.00    +0.000 OA
ATOM     24  N   UNL     1       3.774   5.019  19.667  0.00  0.00    +0.000 N 
ATOM     25  H   UNL     1       3.034   6.768  21.143  0.00  0.00    +0.000 HD
ATOM     26  H   UNL     1       4.566   5.480  20.092  0.00  0.00    +0.000 HD
BRANCH  24  27
ATOM     27  C   UNL     1       4.049   3.877  18.809  0.00  0.00    +0.000 C 
BRANCH  27  28
ATOM     28  C   UNL     1       5.075   4.166  17.738  0.00  0.00    +0.000 A 
ATOM     29  C   UNL     1       4.695   4.102  16.390  0.00  0.00    +0.000 A 
ATOM     30  C   UNL     1       5.616   4.345  15.369  0.00  0.00    +0.000 A 
ATOM     31  C   UNL     1       6.933   4.682  15.680  0.00  0.00    +0.000 A 
ATOM     32  C   UNL     1       7.319   4.784  17.012  0.00  0.00    +0.000 A 
ATOM     33  C   UNL     1       6.399   4.527  18.039  0.00  0.00    +0.000 A 
ENDBRANCH  27  28
ENDBRANCH  24  27
ENDBRANCH   5  21
TORSDOF 5
ENDMDL
MODEL 3
REMARK VINA RESULT:      -7.4      0.598      1.124
REMARK  Name = 
REMARK  8 active torsions:
REMARK  status: ('A' for Active; 'I' for Inactive)
REMARK    1  A    between atoms: C_1  and  C_2
REMARK    2  A    between atoms: C_2  and  C_3
REMARK    3  A    between atoms: C_2  and  C_4
REMARK    4  A    between atoms: C_2  and  C_5
REMARK    5  A    between atoms: N_10  and  C_11
REMARK    6  A    between atoms: C_15  and  N_16
REMARK    7  A    between atoms: N_19  and  C_20
REMARK    8  A    between atoms: C_20  and  C_21
REMARK                            x       y       z     vdW  Elec       q    Type
REMARK                         _______ _______ _______ _____ _____    ______ ____
ROOT
ATOM      1  C   UNL     1       0.225  10.813  18.845  0.00  0.00    +0.000 C 
ATOM      2  C   UNL     1       0.117   9.646  17.847  0.00  0.00    +0.000 C 
ATOM      3  O   UNL     1       1.369   8.936  17.908  0.00  0.00    +0.000 OA
ATOM      4  C   UNL     1       1.845   9.050  19.257  0.00  0.00    +0.000 C 
ATOM      5  C   UNL     1       1.497   7.798  20.065  0.00  0.00    +0.000 C 
ATOM      6  C   UNL     1       0.977   8.390  21.367  0.00  0.00    +0.000 C 
ATOM      7  O   UNL     1       0.309   9.605  20.994  0.00  0.00    +0.000 OA
ATOM      8  C   UNL     1       1.090  10.188  19.936  0.00  0.00    +0.000 C 
ENDROOT
BRANCH   1  14
ATOM      9  C   UNL     1       1.248  15.422  19.076  0.00  0.00    +0.000 A 
ATOM     10  C   UNL     1       0.002  15.721  19.599  0.00  0.00    +0.000 A 
ATOM     11  C   UNL     1      -0.875  14.677  19.729  0.00  0.00    +0.000 A 
ATOM     12  N   UNL     1      -0.595  13.427  19.335  0.00  0.00    +0.000 NA
ATOM     13  C   UNL     1       0.599  13.218  18.771  0.00  0.00    +0.000 A 
ATOM     14  N   UNL     1       0.881  11.975  18.224  0.00  0.00    +0.000 N 
ATOM     15  N   UNL     1       1.548  14.165  18.660  0.00  0.00    +0.000 NA
ATOM     16  H   UNL     1       1.875  11.918  18.039  0.00  0.00    +0.000 HD
BRANCH   9  18
ATOM     17  C   UNL     1       2.856  16.562  17.496  0.00  0.00    +0.000 C 
ATOM     18  C   UNL     1       2.306  16.528  18.938  0.00  0.00    +0.000 C 
ATOM     19  C   UNL     1       3.467  16.261  19.918  0.00  0.00    +0.000 C 
ATOM     20  C   UNL     1       1.732  17.926  19.248  0.00  0.00    +0.000 C 
ENDBRANCH   9  18
ENDBRANCH   1  14
BRANCH   5  21
ATOM     21  N   UNL     1       2.614   6.873  20.220  0.00  0.00    +0.000 N 
ATOM     22  C   UNL     1       2.766   5.801  19.384  0.00  0.00    +0.000 C 
ATOM     23  O   UNL     1       1.978   5.541  18.470  0.00  0.00    +0.000 OA
ATOM     24  N   UNL     1       3.858   5.040  19.696  0.00  0.00    +0.000 N 
ATOM     25  H   UNL     1       3.080   6.816  21.118  0.00  0.00    +0.000 HD
ATOM     26  H   UNL     1       4.640   5.550  20.082  0.00  0.00    +0.000 HD
BRANCH  24  27
ATOM     27  C   UNL     1       4.161   3.876  18.878  0.00  0.00    +0.000 C 
BRANCH  27  28
ATOM     28  C   UNL     1       5.117   4.171  17.746  0.00  0.00    +0.000 A 
ATOM     29  C   UNL     1       6.420   4.595  18.044  0.00  0.00    +0.000 A 
ATOM     30  C   UNL     1       7.330   4.896  17.028  0.00  0.00    +0.000 A 
ATOM     31  C   UNL     1       6.958   4.753  15.691  0.00  0.00    +0.000 A 
ATOM     32  C   UNL     1       5.681   4.301  15.378  0.00  0.00    +0.000 A 
ATOM     33  C   UNL     1       4.761   4.012  16.396  0.00  0.00    +0.000 A 
ENDBRANCH  27  28
ENDBRANCH  24  27
ENDBRANCH   5  21
TORSDOF 5
ENDMDL
MODEL 4
REMARK VINA RESULT:      -7.3      3.696      5.380
REMARK  Name = 
REMARK  8 active torsions:
REMARK  status: ('A' for Active; 'I' for Inactive)
REMARK    1  A    between atoms: C_1  and  C_2
REMARK    2  A    between atoms: C_2  and  C_3
REMARK    3  A    between atoms: C_2  and  C_4
REMARK    4  A    between atoms: C_2  and  C_5
REMARK    5  A    between atoms: N_10  and  C_11
REMARK    6  A    between atoms: C_15  and  N_16
REMARK    7  A    between atoms: N_19  and  C_20
REMARK    8  A    between atoms: C_20  and  C_21
REMARK                            x       y       z     vdW  Elec       q    Type
REMARK                         _______ _______ _______ _____ _____    ______ ____
ROOT
ATOM      1  C   UNL     1      -1.092  11.392  22.988  0.00  0.00    +0.000 C 
ATOM      2  C   UNL     1      -0.397  10.067  23.342  0.00  0.00    +0.000 C 
ATOM      3  O   UNL     1      -0.436   9.251  22.155  0.00  0.00    +0.000 OA
ATOM      4  C   UNL     1      -0.360  10.146  21.036  0.00  0.00    +0.000 C 
ATOM      5  C   UNL     1       1.072  10.233  20.505  0.00  0.00    +0.000 C 
ATOM      6  C   UNL     1       1.250  11.732  20.305  0.00  0.00    +0.000 C 
ATOM      7  O   UNL     1       0.492  12.348  21.356  0.00  0.00    +0.000 OA
ATOM      8  C   UNL     1      -0.693  11.551  21.523  0.00  0.00    +0.000 C 
ENDROOT
BRANCH   1  14
ATOM      9  C   UNL     1      -5.278  13.583  23.164  0.00  0.00    +0.000 A 
ATOM     10  C   UNL     1      -4.740  14.657  23.853  0.00  0.00    +0.000 A 
ATOM     11  C   UNL     1      -3.415  14.570  24.187  0.00  0.00    +0.000 A 
ATOM     12  N   UNL     1      -2.658  13.495  23.922  0.00  0.00    +0.000 NA
ATOM     13  C   UNL     1      -3.256  12.462  23.319  0.00  0.00    +0.000 A 
ATOM     14  N   UNL     1      -2.551  11.279  23.150  0.00  0.00    +0.000 N 
ATOM     15  N   UNL     1      -4.532  12.480  22.896  0.00  0.00    +0.000 NA
ATOM     16  H   UNL     1      -3.057  10.689  22.501  0.00  0.00    +0.000 HD
BRANCH   9  18
ATOM     17  C   UNL     1      -7.274  15.072  22.743  0.00  0.00    +0.000 C 
ATOM     18  C   UNL     1      -6.746  13.621  22.713  0.00  0.00    +0.000 C 
ATOM     19  C   UNL     1      -7.602  12.750  23.654  0.00  0.00    +0.000 C 
ATOM     20  C   UNL     1      -6.928  13.091  21.275  0.00  0.00    +0.000 C 
ENDBRANCH   9  18
ENDBRANCH   1  14
BRANCH   5  21
ATOM     21  N   UNL     1       1.303   9.428  19.310  0.00  0.00    +0.000 N 
ATOM     22  C   UNL     1       1.807   8.160  19.399  0.00  0.00    +0.000 C 
ATOM     23  O   UNL     1       2.108   7.626  20.471  0.00  0.00    +0.000 OA
ATOM     24  N   UNL     1       1.972   7.571  18.176  0.00  0.00    +0.000 N 
ATOM     25  H   UNL     1       1.412   9.897  18.419  0.00  0.00    +0.000 HD
ATOM     26  H   UNL     1       1.299   7.847  17.474  0.00  0.00    +0.000 HD
BRANCH  24  27
ATOM     27  C   UNL     1       2.480   6.209  18.113  0.00  0.00    +0.000 C 
BRANCH  27  28
ATOM     28  C   UNL     1       3.989   6.132  18.136  0.00  0.00    +0.000 A 
ATOM     29  C   UNL     1       4.726   6.851  17.185  0.00  0.00    +0.000 A 
ATOM     30  C   UNL     1       6.122   6.793  17.161  0.00  0.00    +0.000 A 
ATOM     31  C   UNL     1       6.807   6.031  18.107  0.00  0.00    +0.000 A 
ATOM     32  C   UNL     1       6.093   5.339  19.079  0.00  0.00    +0.000 A 
ATOM     33  C   UNL     1       4.692   5.385  19.097  0.00  0.00    +0.000 A 
ENDBRANCH  27  28
ENDBRANCH  24  27
ENDBRANCH   5  21
TORSDOF 5
ENDMDL
MODEL 5
REMARK VINA RESULT:      -7.3      0.574      1.021
REMARK  Name = 
REMARK  8 active torsions:
REMARK  status: ('A' for Active; 'I' for Inactive)
REMARK    1  A    between atoms: C_1  and  C_2
REMARK    2  A    between atoms: C_2  and  C_3
REMARK    3  A    between atoms: C_2  and  C_4
REMARK    4  A    between atoms: C_2  and  C_5
REMARK    5  A    between atoms: N_10  and  C_11
REMARK    6  A    between atoms: C_15  and  N_16
REMARK    7  A    between atoms: N_19  and  C_20
REMARK    8  A    between atoms: C_20  and  C_21
REMARK                            x       y       z     vdW  Elec       q    Type
REMARK                         _______ _______ _______ _____ _____    ______ ____
ROOT
ATOM      1  C   UNL     1      -0.223  11.264  19.039  0.00  0.00    +0.000 C 
ATOM      2  C   UNL     1      -0.382  10.022  18.145  0.00  0.00    +0.000 C 
ATOM      3  O   UNL     1       0.876   9.320  18.188  0.00  0.00    +0.000 OA
ATOM      4  C   UNL     1       1.428   9.541  19.494  0.00  0.00    +0.000 C 
ATOM      5  C   UNL     1       1.134   8.356  20.417  0.00  0.00    +0.000 C 
ATOM      6  C   UNL     1       0.688   9.049  21.697  0.00  0.00    +0.000 C 
ATOM      7  O   UNL     1      -0.008  10.230  21.268  0.00  0.00    +0.000 OA
ATOM      8  C   UNL     1       0.707  10.728  20.124  0.00  0.00    +0.000 C 
ENDROOT
BRANCH   1  14
ATOM      9  C   UNL     1       0.971  15.837  18.935  0.00  0.00    +0.000 A 
ATOM     10  C   UNL     1      -0.192  16.204  19.592  0.00  0.00    +0.000 A 
ATOM     11  C   UNL     1      -1.080  15.200  19.874  0.00  0.00    +0.000 A 
ATOM     12  N   UNL     1      -0.890  13.925  19.506  0.00  0.00    +0.000 NA
ATOM     13  C   UNL     1       0.218  13.649  18.811  0.00  0.00    +0.000 A 
ATOM     14  N   UNL     1       0.389  12.375  18.291  0.00  0.00    +0.000 N 
ATOM     15  N   UNL     1       1.177  14.553  18.544  0.00  0.00    +0.000 NA
ATOM     16  H   UNL     1       1.351  12.272  17.990  0.00  0.00    +0.000 HD
BRANCH   9  18
ATOM     17  C   UNL     1       1.409  18.073  17.847  0.00  0.00    +0.000 C 
ATOM     18  C   UNL     1       2.039  16.895  18.621  0.00  0.00    +0.000 C 
ATOM     19  C   UNL     1       3.158  16.267  17.766  0.00  0.00    +0.000 C 
ATOM     20  C   UNL     1       2.682  17.473  19.899  0.00  0.00    +0.000 C 
ENDBRANCH   9  18
ENDBRANCH   1  14
BRANCH   5  21
ATOM     21  N   UNL     1       2.264   7.447  20.579  0.00  0.00    +0.000 N 
ATOM     22  C   UNL     1       2.496   6.441  19.682  0.00  0.00    +0.000 C 
ATOM     23  O   UNL     1       1.774   6.229  18.704  0.00  0.00    +0.000 OA
ATOM     24  N   UNL     1       3.586   5.684  20.010  0.00  0.00    +0.000 N 
ATOM     25  H   UNL     1       2.674   7.338  21.499  0.00  0.00    +0.000 HD
ATOM     26  H   UNL     1       4.329   6.183  20.480  0.00  0.00    +0.000 HD
BRANCH  24  27
ATOM     27  C   UNL     1       3.970   4.587  19.135  0.00  0.00    +0.000 C 
BRANCH  27  28
ATOM     28  C   UNL     1       5.011   4.975  18.111  0.00  0.00    +0.000 A 
ATOM     29  C   UNL     1       4.643   5.071  16.762  0.00  0.00    +0.000 A 
ATOM     30  C   UNL     1       5.579   5.409  15.782  0.00  0.00    +0.000 A 
ATOM     31  C   UNL     1       6.899   5.682  16.139  0.00  0.00    +0.000 A 
ATOM     32  C   UNL     1       7.274   5.625  17.476  0.00  0.00    +0.000 A 
ATOM     33  C   UNL     1       6.340   5.272  18.461  0.00  0.00    +0.000 A 
ENDBRANCH  27  28
ENDBRANCH  24  27
ENDBRANCH   5  21
TORSDOF 5
ENDMDL
MODEL 6
REMARK VINA RESULT:      -7.3      3.558      5.478
REMARK  Name = 
REMARK  8 active torsions:
REMARK  status: ('A' for Active; 'I' for Inactive)
REMARK    1  A    between atoms: C_1  and  C_2
REMARK    2  A    between atoms: C_2  and  C_3
REMARK    3  A    between atoms: C_2  and  C_4
REMARK    4  A    between atoms: C_2  and  C_5
REMARK    5  A    between atoms: N_10  and  C_11
REMARK    6  A    between atoms: C_15  and  N_16
REMARK    7  A    between atoms: N_19  and  C_20
REMARK    8  A    between atoms: C_20  and  C_21
REMARK                            x       y       z     vdW  Elec       q    Type
REMARK                         _______ _______ _______ _____ _____    ______ ____
ROOT
ATOM      1  C   UNL     1      -1.268  12.751  20.750  0.00  0.00    +0.000 C 
ATOM      2  C   UNL     1       0.205  12.873  21.177  0.00  0.00    +0.000 C 
ATOM      3  O   UNL     1       0.646  11.544  21.516  0.00  0.00    +0.000 OA
ATOM      4  C   UNL     1      -0.071  10.639  20.663  0.00  0.00    +0.000 C 
ATOM      5  C   UNL     1       0.782  10.236  19.458  0.00  0.00    +0.000 C 
ATOM      6  C   UNL     1      -0.208  10.361  18.309  0.00  0.00    +0.000 C 
ATOM      7  O   UNL     1      -1.060  11.463  18.657  0.00  0.00    +0.000 OA
ATOM      8  C   UNL     1      -1.267  11.381  20.077  0.00  0.00    +0.000 C 
ENDROOT
BRANCH   1  14
ATOM      9  C   UNL     1      -5.613  13.518  22.448  0.00  0.00    +0.000 A 
ATOM     10  C   UNL     1      -5.814  14.581  21.584  0.00  0.00    +0.000 A 
ATOM     11  C   UNL     1      -4.761  14.925  20.778  0.00  0.00    +0.000 A 
ATOM     12  N   UNL     1      -3.566  14.319  20.830  0.00  0.00    +0.000 NA
ATOM     13  C   UNL     1      -3.414  13.348  21.736  0.00  0.00    +0.000 A 
ATOM     14  N   UNL     1      -2.159  12.787  21.921  0.00  0.00    +0.000 N 
ATOM     15  N   UNL     1      -4.407  12.898  22.524  0.00  0.00    +0.000 NA
ATOM     16  H   UNL     1      -2.257  11.941  22.470  0.00  0.00    +0.000 HD
BRANCH   9  18
ATOM     17  C   UNL     1      -6.192  12.248  24.553  0.00  0.00    +0.000 C 
ATOM     18  C   UNL     1      -6.758  13.040  23.354  0.00  0.00    +0.000 C 
ATOM     19  C   UNL     1      -7.712  12.134  22.551  0.00  0.00    +0.000 C 
ATOM     20  C   UNL     1      -7.581  14.215  23.922  0.00  0.00    +0.000 C 
ENDBRANCH   9  18
ENDBRANCH   1  14
BRANCH   5  21
ATOM     21  N   UNL     1       1.397   8.920  19.592  0.00  0.00    +0.000 N 
ATOM     22  C   UNL     1       2.090   8.356  18.556  0.00  0.00    +0.000 C 
ATOM     23  O   UNL     1       2.227   8.902  17.458  0.00  0.00    +0.000 OA
ATOM     24  N   UNL     1       2.576   7.115  18.862  0.00  0.00    +0.000 N 
ATOM     25  H   UNL     1       1.046   8.287  20.301  0.00  0.00    +0.000 HD
ATOM     26  H   UNL     1       2.831   6.982  19.831  0.00  0.00    +0.000 HD
BRANCH  24  27
ATOM     27  C   UNL     1       3.355   6.399  17.864  0.00  0.00    +0.000 C 
BRANCH  27  28
ATOM     28  C   UNL     1       3.108   4.908  17.868  0.00  0.00    +0.000 A 
ATOM     29  C   UNL     1       1.816   4.429  18.125  0.00  0.00    +0.000 A 
ATOM     30  C   UNL     1       1.549   3.058  18.155  0.00  0.00    +0.000 A 
ATOM     31  C   UNL     1       2.568   2.141  17.903  0.00  0.00    +0.000 A 
ATOM     32  C   UNL     1       3.848   2.599  17.613  0.00  0.00    +0.000 A 
ATOM     33  C   UNL     1       4.123   3.974  17.596  0.00  0.00    +0.000 A 
ENDBRANCH  27  28
ENDBRANCH  24  27
ENDBRANCH   5  21
TORSDOF 5
ENDMDL
MODEL 7
REMARK VINA RESULT:      -7.2      3.001      5.000
REMARK  Name = 
REMARK  8 active torsions:
REMARK  status: ('A' for Active; 'I' for Inactive)
REMARK    1  A    between atoms: C_1  and  C_2
REMARK    2  A    between atoms: C_2  and  C_3
REMARK    3  A    between atoms: C_2  and  C_4
REMARK    4  A    between atoms: C_2  and  C_5
REMARK    5  A    between atoms: N_10  and  C_11
REMARK    6  A    between atoms: C_15  and  N_16
REMARK    7  A    between atoms: N_19  and  C_20
REMARK    8  A    between atoms: C_20  and  C_21
REMARK                            x       y       z     vdW  Elec       q    Type
REMARK                         _______ _______ _______ _____ _____    ______ ____
ROOT
ATOM      1  C   UNL     1      -0.899  13.123  18.984  0.00  0.00    +0.000 C 
ATOM      2  C   UNL     1       0.634  13.245  19.032  0.00  0.00    +0.000 C 
ATOM      3  O   UNL     1       1.096  12.254  19.971  0.00  0.00    +0.000 OA
ATOM      4  C   UNL     1       0.189  11.146  19.882  0.00  0.00    +0.000 C 
ATOM      5  C   UNL     1       0.756  10.048  18.980  0.00  0.00    +0.000 C 
ATOM      6  C   UNL     1      -0.450   9.679  18.127  0.00  0.00    +0.000 C 
ATOM      7  O   UNL     1      -1.175  10.904  17.943  0.00  0.00    +0.000 OA
ATOM      8  C   UNL     1      -1.082  11.621  19.186  0.00  0.00    +0.000 C 
ENDROOT
BRANCH   1  14
ATOM      9  C   UNL     1      -4.274  13.395  22.283  0.00  0.00    +0.000 A 
ATOM     10  C   UNL     1      -5.201  12.788  21.453  0.00  0.00    +0.000 A 
ATOM     11  C   UNL     1      -4.783  12.487  20.184  0.00  0.00    +0.000 A 
ATOM     12  N   UNL     1      -3.563  12.793  19.719  0.00  0.00    +0.000 NA
ATOM     13  C   UNL     1      -2.740  13.443  20.547  0.00  0.00    +0.000 A 
ATOM     14  N   UNL     1      -1.522  13.902  20.067  0.00  0.00    +0.000 N 
ATOM     15  N   UNL     1      -3.037  13.724  21.828  0.00  0.00    +0.000 NA
ATOM     16  H   UNL     1      -0.942  14.172  20.853  0.00  0.00    +0.000 HD
BRANCH   9  18
ATOM     17  C   UNL     1      -6.095  14.264  23.803  0.00  0.00    +0.000 C 
ATOM     18  C   UNL     1      -4.648  13.726  23.736  0.00  0.00    +0.000 C 
ATOM     19  C   UNL     1      -3.684  14.794  24.291  0.00  0.00    +0.000 C 
ATOM     20  C   UNL     1      -4.572  12.489  24.655  0.00  0.00    +0.000 C 
ENDBRANCH   9  18
ENDBRANCH   1  14
BRANCH   5  21
ATOM     21  N   UNL     1       1.346   8.934  19.715  0.00  0.00    +0.000 N 
ATOM     22  C   UNL     1       2.073   7.971  19.073  0.00  0.00    +0.000 C 
ATOM     23  O   UNL     1       2.265   7.970  17.854  0.00  0.00    +0.000 OA
ATOM     24  N   UNL     1       2.528   7.000  19.923  0.00  0.00    +0.000 N 
ATOM     25  H   UNL     1       0.955   8.682  20.616  0.00  0.00    +0.000 HD
ATOM     26  H   UNL     1       2.739   7.315  20.859  0.00  0.00    +0.000 HD
BRANCH  24  27
ATOM     27  C   UNL     1       3.338   5.918  19.385  0.00  0.00    +0.000 C 
BRANCH  27  28
ATOM     28  C   UNL     1       2.563   4.639  19.172  0.00  0.00    +0.000 A 
ATOM     29  C   UNL     1       2.907   3.800  18.102  0.00  0.00    +0.000 A 
ATOM     30  C   UNL     1       2.206   2.617  17.859  0.00  0.00    +0.000 A 
ATOM     31  C   UNL     1       1.159   2.239  18.699  0.00  0.00    +0.000 A 
ATOM     32  C   UNL     1       0.826   3.042  19.785  0.00  0.00    +0.000 A 
ATOM     33  C   UNL     1       1.520   4.237  20.023  0.00  0.00    +0.000 A 
ENDBRANCH  27  28
ENDBRANCH  24  27
ENDBRANCH   5  21
TORSDOF 5
ENDMDL
MODEL 8
REMARK VINA RESULT:      -7.2      1.088      1.233
REMARK  Name = 
REMARK  8 active torsions:
REMARK  status: ('A' for Active; 'I' for Inactive)
REMARK    1  A    between atoms: C_1  and  C_2
REMARK    2  A    between atoms: C_2  and  C_3
REMARK    3  A    between atoms: C_2  and  C_4
REMARK    4  A    between atoms: C_2  and  C_5
REMARK    5  A    between atoms: N_10  and  C_11
REMARK    6  A    between atoms: C_15  and  N_16
REMARK    7  A    between atoms: N_19  and  C_20
REMARK    8  A    between atoms: C_20  and  C_21
REMARK                            x       y       z     vdW  Elec       q    Type
REMARK                         _______ _______ _______ _____ _____    ______ ____
ROOT
ATOM      1  C   UNL     1      -0.294  11.342  18.923  0.00  0.00    +0.000 C 
ATOM      2  C   UNL     1      -0.494  10.051  18.111  0.00  0.00    +0.000 C 
ATOM      3  O   UNL     1       0.725   9.293  18.237  0.00  0.00    +0.000 OA
ATOM      4  C   UNL     1       1.255   9.576  19.540  0.00  0.00    +0.000 C 
ATOM      5  C   UNL     1       0.880   8.474  20.533  0.00  0.00    +0.000 C 
ATOM      6  C   UNL     1       0.438   9.275  21.749  0.00  0.00    +0.000 C 
ATOM      7  O   UNL     1      -0.186  10.455  21.222  0.00  0.00    +0.000 OA
ATOM      8  C   UNL     1       0.581  10.838  20.067  0.00  0.00    +0.000 C 
ENDROOT
BRANCH   1  14
ATOM      9  C   UNL     1       1.972  15.490  18.820  0.00  0.00    +0.000 A 
ATOM     10  C   UNL     1       1.127  16.029  19.774  0.00  0.00    +0.000 A 
ATOM     11  C   UNL     1       0.102  15.230  20.207  0.00  0.00    +0.000 A 
ATOM     12  N   UNL     1      -0.132  14.004  19.720  0.00  0.00    +0.000 NA
ATOM     13  C   UNL     1       0.677  13.569  18.748  0.00  0.00    +0.000 A 
ATOM     14  N   UNL     1       0.392  12.367  18.119  0.00  0.00    +0.000 N 
ATOM     15  N   UNL     1       1.747  14.254  18.305  0.00  0.00    +0.000 NA
ATOM     16  H   UNL     1       1.199  12.084  17.575  0.00  0.00    +0.000 HD
BRANCH   9  18
ATOM     17  C   UNL     1       4.253  15.358  17.742  0.00  0.00    +0.000 C 
ATOM     18  C   UNL     1       3.173  16.303  18.314  0.00  0.00    +0.000 C 
ATOM     19  C   UNL     1       3.776  17.118  19.476  0.00  0.00    +0.000 C 
ATOM     20  C   UNL     1       2.780  17.288  17.193  0.00  0.00    +0.000 C 
ENDBRANCH   9  18
ENDBRANCH   1  14
BRANCH   5  21
ATOM     21  N   UNL     1       1.958   7.524  20.788  0.00  0.00    +0.000 N 
ATOM     22  C   UNL     1       2.369   6.646  19.823  0.00  0.00    +0.000 C 
ATOM     23  O   UNL     1       1.858   6.589  18.700  0.00  0.00    +0.000 OA
ATOM     24  N   UNL     1       3.374   5.824  20.252  0.00  0.00    +0.000 N 
ATOM     25  H   UNL     1       2.175   7.278  21.746  0.00  0.00    +0.000 HD
ATOM     26  H   UNL     1       4.005   6.236  20.926  0.00  0.00    +0.000 HD
BRANCH  24  27
ATOM     27  C   UNL     1       3.930   4.850  19.326  0.00  0.00    +0.000 C 
BRANCH  27  28
ATOM     28  C   UNL     1       5.141   5.358  18.579  0.00  0.00    +0.000 A 
ATOM     29  C   UNL     1       4.991   5.819  17.263  0.00  0.00    +0.000 A 
ATOM     30  C   UNL     1       6.087   6.280  16.531  0.00  0.00    +0.000 A 
ATOM     31  C   UNL     1       7.354   6.312  17.114  0.00  0.00    +0.000 A 
ATOM     32  C   UNL     1       7.515   5.891  18.429  0.00  0.00    +0.000 A 
ATOM     33  C   UNL     1       6.419   5.414  19.161  0.00  0.00    +0.000 A 
ENDBRANCH  27  28
ENDBRANCH  24  27
ENDBRANCH   5  21
TORSDOF 5
ENDMDL
MODEL 9
REMARK VINA RESULT:      -7.2      1.196      1.774
REMARK  Name = 
REMARK  8 active torsions:
REMARK  status: ('A' for Active; 'I' for Inactive)
REMARK    1  A    between atoms: C_1  and  C_2
REMARK    2  A    between atoms: C_2  and  C_3
REMARK    3  A    between atoms: C_2  and  C_4
REMARK    4  A    between atoms: C_2  and  C_5
REMARK    5  A    between atoms: N_10  and  C_11
REMARK    6  A    between atoms: C_15  and  N_16
REMARK    7  A    between atoms: N_19  and  C_20
REMARK    8  A    between atoms: C_20  and  C_21
REMARK                            x       y       z     vdW  Elec       q    Type
REMARK                         _______ _______ _______ _____ _____    ______ ____
ROOT
ATOM      1  C   UNL     1      -0.169  11.286  18.999  0.00  0.00    +0.000 C 
ATOM      2  C   UNL     1      -0.449  10.005  18.194  0.00  0.00    +0.000 C 
ATOM      3  O   UNL     1       0.734   9.189  18.295  0.00  0.00    +0.000 OA
ATOM      4  C   UNL     1       1.306   9.448  19.585  0.00  0.00    +0.000 C 
ATOM      5  C   UNL     1       0.900   8.366  20.588  0.00  0.00    +0.000 C 
ATOM      6  C   UNL     1       0.525   9.189  21.812  0.00  0.00    +0.000 C 
ATOM      7  O   UNL     1      -0.053  10.397  21.297  0.00  0.00    +0.000 OA
ATOM      8  C   UNL     1       0.706  10.741  20.125  0.00  0.00    +0.000 C 
ENDROOT
BRANCH   1  14
ATOM      9  C   UNL     1       2.092  15.433  18.801  0.00  0.00    +0.000 A 
ATOM     10  C   UNL     1       1.208  16.012  19.695  0.00  0.00    +0.000 A 
ATOM     11  C   UNL     1       0.167  15.230  20.121  0.00  0.00    +0.000 A 
ATOM     12  N   UNL     1      -0.044  13.982  19.680  0.00  0.00    +0.000 NA
ATOM     13  C   UNL     1       0.805  13.507  18.763  0.00  0.00    +0.000 A 
ATOM     14  N   UNL     1       0.547  12.276  18.178  0.00  0.00    +0.000 N 
ATOM     15  N   UNL     1       1.890  14.174  18.333  0.00  0.00    +0.000 NA
ATOM     16  H   UNL     1       1.376  11.971  17.681  0.00  0.00    +0.000 HD
BRANCH   9  18
ATOM     17  C   UNL     1       3.913  17.051  19.466  0.00  0.00    +0.000 C 
ATOM     18  C   UNL     1       3.311  16.227  18.307  0.00  0.00    +0.000 C 
ATOM     19  C   UNL     1       2.886  17.181  17.173  0.00  0.00    +0.000 C 
ATOM     20  C   UNL     1       4.426  15.308  17.765  0.00  0.00    +0.000 C 
ENDBRANCH   9  18
ENDBRANCH   1  14
BRANCH   5  21
ATOM     21  N   UNL     1       1.936   7.366  20.821  0.00  0.00    +0.000 N 
ATOM     22  C   UNL     1       2.438   6.616  19.793  0.00  0.00    +0.000 C 
ATOM     23  O   UNL     1       2.047   6.721  18.627  0.00  0.00    +0.000 OA
ATOM     24  N   UNL     1       3.385   5.720  20.207  0.00  0.00    +0.000 N 
ATOM     25  H   UNL     1       2.050   6.989  21.754  0.00  0.00    +0.000 HD
ATOM     26  H   UNL     1       3.946   6.023  20.991  0.00  0.00    +0.000 HD
BRANCH  24  27
ATOM     27  C   UNL     1       4.025   4.866  19.219  0.00  0.00    +0.000 C 
BRANCH  27  28
ATOM     28  C   UNL     1       5.266   5.478  18.613  0.00  0.00    +0.000 A 
ATOM     29  C   UNL     1       6.483   5.385  19.303  0.00  0.00    +0.000 A 
ATOM     30  C   UNL     1       7.650   5.952  18.786  0.00  0.00    +0.000 A 
ATOM     31  C   UNL     1       7.624   6.604  17.554  0.00  0.00    +0.000 A 
ATOM     32  C   UNL     1       6.434   6.676  16.840  0.00  0.00    +0.000 A 
ATOM     33  C   UNL     1       5.258   6.120  17.363  0.00  0.00    +0.000 A 
ENDBRANCH  27  28
ENDBRANCH  24  27
ENDBRANCH   5  21
TORSDOF 5
ENDMDL
