MODEL 1
REMARK VINA RESULT:      -6.5      0.000      0.000
REMARK  Name = 
REMARK  2 active torsions:
REMARK  status: ('A' for Active; 'I' for Inactive)
REMARK    1  A    between atoms: C_2  and  C_3
REMARK    2  A    between atoms: N_5  and  N_6
REMARK                            x       y       z     vdW  Elec       q    Type
REMARK                         _______ _______ _______ _____ _____    ______ ____
ROOT
ATOM      1  N   UNL     1       5.760   3.631  18.806  0.00  0.00    +0.000 N 
ATOM      2  C   UNL     1       4.404   3.842  18.443  0.00  0.00    +0.000 A 
ATOM      3  C   UNL     1       3.642   2.738  18.059  0.00  0.00    +0.000 A 
ATOM      4  C   UNL     1       2.318   2.925  17.658  0.00  0.00    +0.000 A 
ATOM      5  C   UNL     1       1.790   4.209  17.662  0.00  0.00    +0.000 A 
ATOM      6  C   UNL     1       2.618   5.244  18.053  0.00  0.00    +0.000 A 
ATOM      7 CL   UNL     1       2.044   6.860  18.104  0.00  0.00    +0.000 Cl
ATOM      8  N   UNL     1       3.905   5.099  18.427  0.00  0.00    +0.000 NA
ATOM      9  H   UNL     1       5.831   2.968  19.583  0.00  0.00    +0.000 HD
ENDROOT
BRANCH   1  12
ATOM     10  O   UNL     1       7.745   4.699  17.244  0.00  0.00    +0.000 OA
ATOM     11  C   UNL     1       7.400   5.306  18.260  0.00  0.00    +0.000 C 
ATOM     12  N   UNL     1       6.411   4.843  19.099  0.00  0.00    +0.000 N 
ATOM     13  H   UNL     1       6.215   5.253  20.014  0.00  0.00    +0.000 HD
BRANCH  11  14
ATOM     14  C   UNL     1       8.109   6.568  18.717  0.00  0.00    +0.000 C 
ATOM     15 CL   UNL     1       7.838   7.940  17.618  0.00  0.00    +0.000 Cl
ENDBRANCH  11  14
ENDBRANCH   1  12
TORSDOF 2
ENDMDL
MODEL 2
REMARK VINA RESULT:      -6.5      1.899      2.036
REMARK  Name = 
REMARK  2 active torsions:
REMARK  status: ('A' for Active; 'I' for Inactive)
REMARK    1  A    between atoms: C_2  and  C_3
REMARK    2  A    between atoms: N_5  and  N_6
REMARK                            x       y       z     vdW  Elec       q    Type
REMARK                         _______ _______ _______ _____ _____    ______ ____
ROOT
ATOM      1  N   UNL     1       5.250   3.095  19.686  0.00  0.00    +0.000 N 
ATOM      2  C   UNL     1       3.833   3.180  19.698  0.00  0.00    +0.000 A 
ATOM      3  C   UNL     1       3.141   2.571  20.745  0.00  0.00    +0.000 A 
ATOM      4  C   UNL     1       1.746   2.606  20.756  0.00  0.00    +0.000 A 
ATOM      5  C   UNL     1       1.081   3.259  19.727  0.00  0.00    +0.000 A 
ATOM      6  C   UNL     1       1.847   3.831  18.728  0.00  0.00    +0.000 A 
ATOM      7 CL   UNL     1       1.110   4.670  17.427  0.00  0.00    +0.000 Cl
ATOM      8  N   UNL     1       3.194   3.797  18.678  0.00  0.00    +0.000 NA
ATOM      9  H   UNL     1       5.647   3.492  20.542  0.00  0.00    +0.000 HD
ENDROOT
BRANCH   1  12
ATOM     10  O   UNL     1       6.840   5.329  19.751  0.00  0.00    +0.000 OA
ATOM     11  C   UNL     1       6.582   4.817  18.659  0.00  0.00    +0.000 C 
ATOM     12  N   UNL     1       5.794   3.694  18.536  0.00  0.00    +0.000 N 
ATOM     13  H   UNL     1       5.453   3.345  17.639  0.00  0.00    +0.000 HD
BRANCH  11  14
ATOM     14  C   UNL     1       7.035   5.446  17.354  0.00  0.00    +0.000 C 
ATOM     15 CL   UNL     1       7.561   7.134  17.556  0.00  0.00    +0.000 Cl
ENDBRANCH  11  14
ENDBRANCH   1  12
TORSDOF 2
ENDMDL
MODEL 3
REMARK VINA RESULT:      -6.4      1.247      1.247
REMARK  Name = 
REMARK  2 active torsions:
REMARK  status: ('A' for Active; 'I' for Inactive)
REMARK    1  A    between atoms: C_2  and  C_3
REMARK    2  A    between atoms: N_5  and  N_6
REMARK                            x       y       z     vdW  Elec       q    Type
REMARK                         _______ _______ _______ _____ _____    ______ ____
ROOT
ATOM      1  N   UNL     1       5.358   3.475  18.029  0.00  0.00    +0.000 N 
ATOM      2  C   UNL     1       3.991   3.410  18.408  0.00  0.00    +0.000 A 
ATOM      3  C   UNL     1       3.195   2.412  17.846  0.00  0.00    +0.000 A 
ATOM      4  C   UNL     1       1.839   2.354  18.171  0.00  0.00    +0.000 A 
ATOM      5  C   UNL     1       1.319   3.287  19.058  0.00  0.00    +0.000 A 
ATOM      6  C   UNL     1       2.181   4.243  19.563  0.00  0.00    +0.000 A 
ATOM      7 CL   UNL     1       1.628   5.425  20.677  0.00  0.00    +0.000 Cl
ATOM      8  N   UNL     1       3.489   4.339  19.254  0.00  0.00    +0.000 NA
ATOM      9  H   UNL     1       5.837   2.595  18.237  0.00  0.00    +0.000 HD
ENDROOT
BRANCH   1  12
ATOM     10  O   UNL     1       7.719   4.520  17.103  0.00  0.00    +0.000 OA
ATOM     11  C   UNL     1       7.194   5.032  18.094  0.00  0.00    +0.000 C 
ATOM     12  N   UNL     1       6.008   4.572  18.623  0.00  0.00    +0.000 N 
ATOM     13  H   UNL     1       5.636   4.886  19.521  0.00  0.00    +0.000 HD
BRANCH  11  14
ATOM     14  C   UNL     1       7.865   6.151  18.868  0.00  0.00    +0.000 C 
ATOM     15 CL   UNL     1       7.940   7.670  17.944  0.00  0.00    +0.000 Cl
ENDBRANCH  11  14
ENDBRANCH   1  12
TORSDOF 2
ENDMDL
MODEL 4
REMARK VINA RESULT:      -6.2      1.981      2.048
REMARK  Name = 
REMARK  2 active torsions:
REMARK  status: ('A' for Active; 'I' for Inactive)
REMARK    1  A    between atoms: C_2  and  C_3
REMARK    2  A    between atoms: N_5  and  N_6
REMARK                            x       y       z     vdW  Elec       q    Type
REMARK                         _______ _______ _______ _____ _____    ______ ____
ROOT
ATOM      1  N   UNL     1       4.917   2.936  19.205  0.00  0.00    +0.000 N 
ATOM      2  C   UNL     1       3.633   3.374  19.628  0.00  0.00    +0.000 A 
ATOM      3  C   UNL     1       2.631   2.420  19.797  0.00  0.00    +0.000 A 
ATOM      4  C   UNL     1       1.350   2.831  20.172  0.00  0.00    +0.000 A 
ATOM      5  C   UNL     1       1.111   4.183  20.378  0.00  0.00    +0.000 A 
ATOM      6  C   UNL     1       2.163   5.059  20.183  0.00  0.00    +0.000 A 
ATOM      7 CL   UNL     1       1.962   6.744  20.430  0.00  0.00    +0.000 Cl
ATOM      8  N   UNL     1       3.404   4.696  19.802  0.00  0.00    +0.000 NA
ATOM      9  H   UNL     1       5.302   2.250  19.859  0.00  0.00    +0.000 HD
ENDROOT
BRANCH   1  12
ATOM     10  O   UNL     1       5.565   3.939  16.735  0.00  0.00    +0.000 OA
ATOM     11  C   UNL     1       6.067   4.457  17.735  0.00  0.00    +0.000 C 
ATOM     12  N   UNL     1       5.794   4.018  19.012  0.00  0.00    +0.000 N 
ATOM     13  H   UNL     1       6.309   4.336  19.835  0.00  0.00    +0.000 HD
BRANCH  11  14
ATOM     14  C   UNL     1       7.103   5.561  17.629  0.00  0.00    +0.000 C 
ATOM     15 CL   UNL     1       7.886   5.914  19.188  0.00  0.00    +0.000 Cl
ENDBRANCH  11  14
ENDBRANCH   1  12
TORSDOF 2
ENDMDL
MODEL 5
REMARK VINA RESULT:      -6.1      2.906      4.388
REMARK  Name = 
REMARK  2 active torsions:
REMARK  status: ('A' for Active; 'I' for Inactive)
REMARK    1  A    between atoms: C_2  and  C_3
REMARK    2  A    between atoms: N_5  and  N_6
REMARK                            x       y       z     vdW  Elec       q    Type
REMARK                         _______ _______ _______ _____ _____    ______ ____
ROOT
ATOM      1  N   UNL     1       4.216   2.710  17.781  0.00  0.00    +0.000 N 
ATOM      2  C   UNL     1       4.502   3.958  17.167  0.00  0.00    +0.000 A 
ATOM      3  C   UNL     1       5.415   3.983  16.113  0.00  0.00    +0.000 A 
ATOM      4  C   UNL     1       5.744   5.203  15.520  0.00  0.00    +0.000 A 
ATOM      5  C   UNL     1       5.143   6.363  15.991  0.00  0.00    +0.000 A 
ATOM      6  C   UNL     1       4.253   6.244  17.042  0.00  0.00    +0.000 A 
ATOM      7 CL   UNL     1       3.452   7.622  17.676  0.00  0.00    +0.000 Cl
ATOM      8  N   UNL     1       3.930   5.085  17.649  0.00  0.00    +0.000 NA
ATOM      9  H   UNL     1       3.858   2.039  17.096  0.00  0.00    +0.000 HD
ENDROOT
BRANCH   1  12
ATOM     10  O   UNL     1       4.881   2.080  20.367  0.00  0.00    +0.000 OA
ATOM     11  C   UNL     1       3.751   2.515  20.135  0.00  0.00    +0.000 C 
ATOM     12  N   UNL     1       3.335   2.859  18.868  0.00  0.00    +0.000 N 
ATOM     13  H   UNL     1       2.365   3.080  18.638  0.00  0.00    +0.000 HD
BRANCH  11  14
ATOM     14  C   UNL     1       2.695   2.616  21.221  0.00  0.00    +0.000 C 
ATOM     15 CL   UNL     1       1.212   3.422  20.657  0.00  0.00    +0.000 Cl
ENDBRANCH  11  14
ENDBRANCH   1  12
TORSDOF 2
ENDMDL
MODEL 6
REMARK VINA RESULT:      -6.1      2.578      5.077
REMARK  Name = 
REMARK  2 active torsions:
REMARK  status: ('A' for Active; 'I' for Inactive)
REMARK    1  A    between atoms: C_2  and  C_3
REMARK    2  A    between atoms: N_5  and  N_6
REMARK                            x       y       z     vdW  Elec       q    Type
REMARK                         _______ _______ _______ _____ _____    ______ ____
ROOT
ATOM      1  N   UNL     1       5.711   3.536  19.032  0.00  0.00    +0.000 N 
ATOM      2  C   UNL     1       6.157   4.726  18.398  0.00  0.00    +0.000 A 
ATOM      3  C   UNL     1       7.229   5.416  18.963  0.00  0.00    +0.000 A 
ATOM      4  C   UNL     1       7.659   6.610  18.382  0.00  0.00    +0.000 A 
ATOM      5  C   UNL     1       7.011   7.075  17.245  0.00  0.00    +0.000 A 
ATOM      6  C   UNL     1       5.956   6.328  16.756  0.00  0.00    +0.000 A 
ATOM      7 CL   UNL     1       5.110   6.820  15.347  0.00  0.00    +0.000 Cl
ATOM      8  N   UNL     1       5.504   5.183  17.305  0.00  0.00    +0.000 NA
ATOM      9  H   UNL     1       6.470   2.852  19.099  0.00  0.00    +0.000 HD
ENDROOT
BRANCH   1  12
ATOM     10  O   UNL     1       3.302   3.128  20.279  0.00  0.00    +0.000 OA
ATOM     11  C   UNL     1       3.412   2.824  19.089  0.00  0.00    +0.000 C 
ATOM     12  N   UNL     1       4.584   2.997  18.386  0.00  0.00    +0.000 N 
ATOM     13  H   UNL     1       4.736   2.619  17.450  0.00  0.00    +0.000 HD
BRANCH  11  14
ATOM     14  C   UNL     1       2.288   2.142  18.331  0.00  0.00    +0.000 C 
ATOM     15 CL   UNL     1       0.683   2.541  18.986  0.00  0.00    +0.000 Cl
ENDBRANCH  11  14
ENDBRANCH   1  12
TORSDOF 2
ENDMDL
MODEL 7
REMARK VINA RESULT:      -6.0      2.369      2.572
REMARK  Name = 
REMARK  2 active torsions:
REMARK  status: ('A' for Active; 'I' for Inactive)
REMARK    1  A    between atoms: C_2  and  C_3
REMARK    2  A    between atoms: N_5  and  N_6
REMARK                            x       y       z     vdW  Elec       q    Type
REMARK                         _______ _______ _______ _____ _____    ______ ____
ROOT
ATOM      1  N   UNL     1       5.806   3.603  18.599  0.00  0.00    +0.000 N 
ATOM      2  C   UNL     1       4.453   3.482  19.016  0.00  0.00    +0.000 A 
ATOM      3  C   UNL     1       4.194   2.937  20.273  0.00  0.00    +0.000 A 
ATOM      4  C   UNL     1       2.872   2.769  20.688  0.00  0.00    +0.000 A 
ATOM      5  C   UNL     1       1.846   3.161  19.839  0.00  0.00    +0.000 A 
ATOM      6  C   UNL     1       2.195   3.688  18.609  0.00  0.00    +0.000 A 
ATOM      7 CL   UNL     1       0.994   4.212  17.504  0.00  0.00    +0.000 Cl
ATOM      8  N   UNL     1       3.461   3.844  18.171  0.00  0.00    +0.000 NA
ATOM      9  H   UNL     1       6.341   4.174  19.258  0.00  0.00    +0.000 HD
ENDROOT
BRANCH   1  12
ATOM     10  O   UNL     1       8.184   4.224  17.382  0.00  0.00    +0.000 OA
ATOM     11  C   UNL     1       7.136   4.390  16.753  0.00  0.00    +0.000 C 
ATOM     12  N   UNL     1       5.899   4.101  17.287  0.00  0.00    +0.000 N 
ATOM     13  H   UNL     1       5.020   4.367  16.840  0.00  0.00    +0.000 HD
BRANCH  11  14
ATOM     14  C   UNL     1       7.122   5.018  15.372  0.00  0.00    +0.000 C 
ATOM     15 CL   UNL     1       6.172   4.072  14.201  0.00  0.00    +0.000 Cl
ENDBRANCH  11  14
ENDBRANCH   1  12
TORSDOF 2
ENDMDL
MODEL 8
REMARK VINA RESULT:      -6.0      1.894      2.048
REMARK  Name = 
REMARK  2 active torsions:
REMARK  status: ('A' for Active; 'I' for Inactive)
REMARK    1  A    between atoms: C_2  and  C_3
REMARK    2  A    between atoms: N_5  and  N_6
REMARK                            x       y       z     vdW  Elec       q    Type
REMARK                         _______ _______ _______ _____ _____    ______ ____
ROOT
ATOM      1  N   UNL     1       4.577   2.873  17.629  0.00  0.00    +0.000 N 
ATOM      2  C   UNL     1       3.354   3.048  18.329  0.00  0.00    +0.000 A 
ATOM      3  C   UNL     1       2.365   2.075  18.188  0.00  0.00    +0.000 A 
ATOM      4  C   UNL     1       1.138   2.246  18.833  0.00  0.00    +0.000 A 
ATOM      5  C   UNL     1       0.940   3.379  19.609  0.00  0.00    +0.000 A 
ATOM      6  C   UNL     1       1.974   4.293  19.689  0.00  0.00    +0.000 A 
ATOM      7 CL   UNL     1       1.821   5.713  20.638  0.00  0.00    +0.000 Cl
ATOM      8  N   UNL     1       3.161   4.167  19.063  0.00  0.00    +0.000 NA
ATOM      9  H   UNL     1       5.024   1.990  17.891  0.00  0.00    +0.000 HD
ENDROOT
BRANCH   1  12
ATOM     10  O   UNL     1       6.213   3.862  15.663  0.00  0.00    +0.000 OA
ATOM     11  C   UNL     1       6.231   4.398  16.773  0.00  0.00    +0.000 C 
ATOM     12  N   UNL     1       5.441   3.966  17.815  0.00  0.00    +0.000 N 
ATOM     13  H   UNL     1       5.548   4.301  18.775  0.00  0.00    +0.000 HD
BRANCH  11  14
ATOM     14  C   UNL     1       7.200   5.517  17.106  0.00  0.00    +0.000 C 
ATOM     15 CL   UNL     1       7.710   5.494  18.811  0.00  0.00    +0.000 Cl
ENDBRANCH  11  14
ENDBRANCH   1  12
TORSDOF 2
ENDMDL
MODEL 9
REMARK VINA RESULT:      -6.0      1.802      1.840
REMARK  Name = 
REMARK  2 active torsions:
REMARK  status: ('A' for Active; 'I' for Inactive)
REMARK    1  A    between atoms: C_2  and  C_3
REMARK    2  A    between atoms: N_5  and  N_6
REMARK                            x       y       z     vdW  Elec       q    Type
REMARK                         _______ _______ _______ _____ _____    ______ ____
ROOT
ATOM      1  N   UNL     1       5.675   3.860  18.832  0.00  0.00    +0.000 N 
ATOM      2  C   UNL     1       4.447   3.839  19.544  0.00  0.00    +0.000 A 
ATOM      3  C   UNL     1       3.975   2.614  20.014  0.00  0.00    +0.000 A 
ATOM      4  C   UNL     1       2.749   2.561  20.680  0.00  0.00    +0.000 A 
ATOM      5  C   UNL     1       2.036   3.738  20.869  0.00  0.00    +0.000 A 
ATOM      6  C   UNL     1       2.578   4.906  20.367  0.00  0.00    +0.000 A 
ATOM      7 CL   UNL     1       1.774   6.407  20.569  0.00  0.00    +0.000 Cl
ATOM      8  N   UNL     1       3.748   4.986  19.702  0.00  0.00    +0.000 NA
ATOM      9  H   UNL     1       6.434   3.476  19.401  0.00  0.00    +0.000 HD
ENDROOT
BRANCH   1  12
ATOM     10  O   UNL     1       7.870   4.435  17.290  0.00  0.00    +0.000 OA
ATOM     11  C   UNL     1       7.106   5.352  17.597  0.00  0.00    +0.000 C 
ATOM     12  N   UNL     1       5.980   5.152  18.366  0.00  0.00    +0.000 N 
ATOM     13  H   UNL     1       5.421   5.916  18.749  0.00  0.00    +0.000 HD
BRANCH  11  14
ATOM     14  C   UNL     1       7.400   6.795  17.232  0.00  0.00    +0.000 C 
ATOM     15 CL   UNL     1       8.291   7.655  18.510  0.00  0.00    +0.000 Cl
ENDBRANCH  11  14
ENDBRANCH   1  12
TORSDOF 2
ENDMDL
