MODEL 1
REMARK VINA RESULT:      -8.5      0.000      0.000
REMARK  Name = 
REMARK  8 active torsions:
REMARK  status: ('A' for Active; 'I' for Inactive)
REMARK    1  A    between atoms: C_1  and  C_2
REMARK    2  A    between atoms: C_6  and  C_8
REMARK    3  A    between atoms: C_12  and  C_13
REMARK    4  A    between atoms: C_13  and  O_14
REMARK    5  A    between atoms: O_14  and  C_15
REMARK    6  A    between atoms: C_23  and  C_24
REMARK    7  A    between atoms: C_24  and  C_25
REMARK    8  A    between atoms: N_27  and  O_28
REMARK                            x       y       z     vdW  Elec       q    Type
REMARK                         _______ _______ _______ _____ _____    ______ ____
ROOT
ATOM      1  C   UNL     1      -0.626  10.659  22.680  0.00  0.00    +0.000 C 
ATOM      2  C   UNL     1       0.026  10.132  21.450  0.00  0.00    +0.000 A 
ATOM      3  S   UNL     1       0.990   8.706  21.522  0.00  0.00    +0.000 S 
ATOM      4  C   UNL     1       1.330   8.858  19.861  0.00  0.00    +0.000 A 
ATOM      5  N   UNL     1       2.162   7.899  19.360  0.00  0.00    +0.000 N 
ATOM      6  C   UNL     1       2.696   7.970  18.094  0.00  0.00    +0.000 C 
ATOM      7  O   UNL     1       2.511   8.852  17.263  0.00  0.00    +0.000 OA
ATOM      8  N   UNL     1       0.766   9.869  19.252  0.00  0.00    +0.000 NA
ATOM      9  C   UNL     1      -0.025  10.591  20.139  0.00  0.00    +0.000 A 
ATOM     10  H   UNL     1       2.458   7.141  19.964  0.00  0.00    +0.000 HD
ENDROOT
BRANCH   6  11
ATOM     11  C   UNL     1       3.628   6.837  17.772  0.00  0.00    +0.000 A 
ATOM     12  C   UNL     1       4.998   7.067  17.753  0.00  0.00    +0.000 A 
ATOM     13  C   UNL     1       5.844   5.999  17.483  0.00  0.00    +0.000 A 
ATOM     14  C   UNL     1       5.297   4.743  17.240  0.00  0.00    +0.000 A 
ATOM     15  C   UNL     1       3.910   4.587  17.262  0.00  0.00    +0.000 A 
ATOM     16  N   UNL     1       3.060   5.620  17.528  0.00  0.00    +0.000 NA
BRANCH  15  17
ATOM     17  C   UNL     1       3.304   3.222  16.997  0.00  0.00    +0.000 C 
BRANCH  17  18
ATOM     18  O   UNL     1       3.603   2.360  18.100  0.00  0.00    +0.000 OA
BRANCH  18  19
ATOM     19  C   UNL     1       2.870   2.567  19.239  0.00  0.00    +0.000 A 
ATOM     20  C   UNL     1       1.493   2.660  19.043  0.00  0.00    +0.000 A 
ATOM     21  C   UNL     1       0.634   2.868  20.129  0.00  0.00    +0.000 A 
ATOM     22  C   UNL     1       1.154   2.957  21.416  0.00  0.00    +0.000 A 
ATOM     23  C   UNL     1       2.526   2.841  21.618  0.00  0.00    +0.000 A 
ATOM     24  C   UNL     1       3.385   2.644  20.534  0.00  0.00    +0.000 A 
ENDBRANCH  18  19
ENDBRANCH  17  18
ENDBRANCH  15  17
ENDBRANCH   6  11
BRANCH   9  25
ATOM     25  C   UNL     1      -0.869  11.679  19.559  0.00  0.00    +0.000 C 
BRANCH  25  26
ATOM     26  C   UNL     1      -1.690  11.264  18.366  0.00  0.00    +0.000 C 
ATOM     27  O   UNL     1      -2.323  10.208  18.315  0.00  0.00    +0.000 OA
ATOM     28  N   UNL     1      -1.629  12.122  17.291  0.00  0.00    +0.000 N 
ATOM     29  H   UNL     1      -1.445  13.116  17.404  0.00  0.00    +0.000 HD
BRANCH  28  30
ATOM     30  O   UNL     1      -2.396  11.741  16.163  0.00  0.00    +0.000 OA
ATOM     31  H   UNL     1      -2.448  12.576  15.649  0.00  0.00    +0.000 HD
ENDBRANCH  28  30
ENDBRANCH  25  26
ENDBRANCH   9  25
TORSDOF 7
ENDMDL
MODEL 2
REMARK VINA RESULT:      -8.3      0.891      1.094
REMARK  Name = 
REMARK  8 active torsions:
REMARK  status: ('A' for Active; 'I' for Inactive)
REMARK    1  A    between atoms: C_1  and  C_2
REMARK    2  A    between atoms: C_6  and  C_8
REMARK    3  A    between atoms: C_12  and  C_13
REMARK    4  A    between atoms: C_13  and  O_14
REMARK    5  A    between atoms: O_14  and  C_15
REMARK    6  A    between atoms: C_23  and  C_24
REMARK    7  A    between atoms: C_24  and  C_25
REMARK    8  A    between atoms: N_27  and  O_28
REMARK                            x       y       z     vdW  Elec       q    Type
REMARK                         _______ _______ _______ _____ _____    ______ ____
ROOT
ATOM      1  C   UNL     1      -0.717  10.322  22.796  0.00  0.00    +0.000 C 
ATOM      2  C   UNL     1      -0.055   9.895  21.533  0.00  0.00    +0.000 A 
ATOM      3  S   UNL     1       1.007   8.538  21.527  0.00  0.00    +0.000 S 
ATOM      4  C   UNL     1       1.302   8.782  19.869  0.00  0.00    +0.000 A 
ATOM      5  N   UNL     1       2.188   7.907  19.313  0.00  0.00    +0.000 N 
ATOM      6  C   UNL     1       2.690   8.068  18.041  0.00  0.00    +0.000 C 
ATOM      7  O   UNL     1       2.427   8.968  17.252  0.00  0.00    +0.000 OA
ATOM      8  N   UNL     1       0.656   9.776  19.314  0.00  0.00    +0.000 NA
ATOM      9  C   UNL     1      -0.165  10.403  20.244  0.00  0.00    +0.000 A 
ATOM     10  H   UNL     1       2.548   7.146  19.878  0.00  0.00    +0.000 HD
ENDROOT
BRANCH   6  11
ATOM     11  C   UNL     1       3.692   7.017  17.655  0.00  0.00    +0.000 A 
ATOM     12  C   UNL     1       4.288   7.074  16.401  0.00  0.00    +0.000 A 
ATOM     13  C   UNL     1       5.234   6.111  16.075  0.00  0.00    +0.000 A 
ATOM     14  C   UNL     1       5.551   5.127  17.006  0.00  0.00    +0.000 A 
ATOM     15  C   UNL     1       4.903   5.122  18.242  0.00  0.00    +0.000 A 
ATOM     16  N   UNL     1       3.974   6.060  18.585  0.00  0.00    +0.000 NA
BRANCH  15  17
ATOM     17  C   UNL     1       5.241   4.052  19.262  0.00  0.00    +0.000 C 
BRANCH  17  18
ATOM     18  O   UNL     1       4.491   2.871  18.961  0.00  0.00    +0.000 OA
BRANCH  18  19
ATOM     19  C   UNL     1       3.192   2.858  19.396  0.00  0.00    +0.000 A 
ATOM     20  C   UNL     1       2.242   2.633  18.400  0.00  0.00    +0.000 A 
ATOM     21  C   UNL     1       0.878   2.593  18.715  0.00  0.00    +0.000 A 
ATOM     22  C   UNL     1       0.468   2.752  20.035  0.00  0.00    +0.000 A 
ATOM     23  C   UNL     1       1.414   2.953  21.035  0.00  0.00    +0.000 A 
ATOM     24  C   UNL     1       2.775   3.003  20.719  0.00  0.00    +0.000 A 
ENDBRANCH  18  19
ENDBRANCH  17  18
ENDBRANCH  15  17
ENDBRANCH   6  11
BRANCH   9  25
ATOM     25  C   UNL     1      -1.094  11.452  19.727  0.00  0.00    +0.000 C 
BRANCH  25  26
ATOM     26  C   UNL     1      -1.902  11.033  18.526  0.00  0.00    +0.000 C 
ATOM     27  O   UNL     1      -3.099  10.746  18.583  0.00  0.00    +0.000 OA
ATOM     28  N   UNL     1      -1.189  10.921  17.354  0.00  0.00    +0.000 N 
ATOM     29  H   UNL     1      -0.349  11.468  17.180  0.00  0.00    +0.000 HD
BRANCH  28  30
ATOM     30  O   UNL     1      -1.938  10.526  16.220  0.00  0.00    +0.000 OA
ATOM     31  H   UNL     1      -2.833  10.380  16.597  0.00  0.00    +0.000 HD
ENDBRANCH  28  30
ENDBRANCH  25  26
ENDBRANCH   9  25
TORSDOF 7
ENDMDL
MODEL 3
REMARK VINA RESULT:      -8.0      1.819      3.953
REMARK  Name = 
REMARK  8 active torsions:
REMARK  status: ('A' for Active; 'I' for Inactive)
REMARK    1  A    between atoms: C_1  and  C_2
REMARK    2  A    between atoms: C_6  and  C_8
REMARK    3  A    between atoms: C_12  and  C_13
REMARK    4  A    between atoms: C_13  and  O_14
REMARK    5  A    between atoms: O_14  and  C_15
REMARK    6  A    between atoms: C_23  and  C_24
REMARK    7  A    between atoms: C_24  and  C_25
REMARK    8  A    between atoms: N_27  and  O_28
REMARK                            x       y       z     vdW  Elec       q    Type
REMARK                         _______ _______ _______ _____ _____    ______ ____
ROOT
ATOM      1  C   UNL     1      -0.818  11.884  22.752  0.00  0.00    +0.000 C 
ATOM      2  C   UNL     1      -0.148  10.835  21.935  0.00  0.00    +0.000 A 
ATOM      3  S   UNL     1      -0.308   9.173  22.357  0.00  0.00    +0.000 S 
ATOM      4  C   UNL     1       0.706   8.750  21.057  0.00  0.00    +0.000 A 
ATOM      5  N   UNL     1       0.955   7.413  20.942  0.00  0.00    +0.000 N 
ATOM      6  C   UNL     1       1.898   6.909  20.075  0.00  0.00    +0.000 C 
ATOM      7  O   UNL     1       2.614   7.545  19.310  0.00  0.00    +0.000 OA
ATOM      8  N   UNL     1       1.134   9.742  20.321  0.00  0.00    +0.000 NA
ATOM      9  C   UNL     1       0.619  10.949  20.782  0.00  0.00    +0.000 A 
ATOM     10  H   UNL     1       0.482   6.769  21.565  0.00  0.00    +0.000 HD
ENDROOT
BRANCH   6  11
ATOM     11  C   UNL     1       2.045   5.415  20.153  0.00  0.00    +0.000 A 
ATOM     12  C   UNL     1       0.985   4.651  20.625  0.00  0.00    +0.000 A 
ATOM     13  C   UNL     1       1.131   3.270  20.660  0.00  0.00    +0.000 A 
ATOM     14  C   UNL     1       2.324   2.701  20.226  0.00  0.00    +0.000 A 
ATOM     15  C   UNL     1       3.352   3.530  19.777  0.00  0.00    +0.000 A 
ATOM     16  N   UNL     1       3.231   4.889  19.730  0.00  0.00    +0.000 NA
BRANCH  15  17
ATOM     17  C   UNL     1       4.657   2.920  19.304  0.00  0.00    +0.000 C 
BRANCH  17  18
ATOM     18  O   UNL     1       5.617   3.964  19.114  0.00  0.00    +0.000 OA
BRANCH  18  19
ATOM     19  C   UNL     1       5.845   4.342  17.817  0.00  0.00    +0.000 A 
ATOM     20  C   UNL     1       6.785   5.360  17.659  0.00  0.00    +0.000 A 
ATOM     21  C   UNL     1       7.110   5.834  16.382  0.00  0.00    +0.000 A 
ATOM     22  C   UNL     1       6.512   5.269  15.261  0.00  0.00    +0.000 A 
ATOM     23  C   UNL     1       5.591   4.237  15.414  0.00  0.00    +0.000 A 
ATOM     24  C   UNL     1       5.258   3.770  16.688  0.00  0.00    +0.000 A 
ENDBRANCH  18  19
ENDBRANCH  17  18
ENDBRANCH  15  17
ENDBRANCH   6  11
BRANCH   9  25
ATOM     25  C   UNL     1       0.881  12.159  19.946  0.00  0.00    +0.000 C 
BRANCH  25  26
ATOM     26  C   UNL     1      -0.281  12.589  19.089  0.00  0.00    +0.000 C 
ATOM     27  O   UNL     1      -1.017  13.536  19.374  0.00  0.00    +0.000 OA
ATOM     28  N   UNL     1      -0.515  11.800  17.986  0.00  0.00    +0.000 N 
ATOM     29  H   UNL     1       0.229  11.277  17.529  0.00  0.00    +0.000 HD
BRANCH  28  30
ATOM     30  O   UNL     1      -1.606  12.195  17.174  0.00  0.00    +0.000 OA
ATOM     31  H   UNL     1      -2.334  12.288  17.827  0.00  0.00    +0.000 HD
ENDBRANCH  28  30
ENDBRANCH  25  26
ENDBRANCH   9  25
TORSDOF 7
ENDMDL
MODEL 4
REMARK VINA RESULT:      -7.9      0.995      1.309
REMARK  Name = 
REMARK  8 active torsions:
REMARK  status: ('A' for Active; 'I' for Inactive)
REMARK    1  A    between atoms: C_1  and  C_2
REMARK    2  A    between atoms: C_6  and  C_8
REMARK    3  A    between atoms: C_12  and  C_13
REMARK    4  A    between atoms: C_13  and  O_14
REMARK    5  A    between atoms: O_14  and  C_15
REMARK    6  A    between atoms: C_23  and  C_24
REMARK    7  A    between atoms: C_24  and  C_25
REMARK    8  A    between atoms: N_27  and  O_28
REMARK                            x       y       z     vdW  Elec       q    Type
REMARK                         _______ _______ _______ _____ _____    ______ ____
ROOT
ATOM      1  C   UNL     1      -0.426   9.625  22.900  0.00  0.00    +0.000 C 
ATOM      2  C   UNL     1       0.210   9.341  21.584  0.00  0.00    +0.000 A 
ATOM      3  S   UNL     1       1.215   7.956  21.388  0.00  0.00    +0.000 S 
ATOM      4  C   UNL     1       1.510   8.405  19.773  0.00  0.00    +0.000 A 
ATOM      5  N   UNL     1       2.356   7.575  19.096  0.00  0.00    +0.000 N 
ATOM      6  C   UNL     1       2.855   7.882  17.851  0.00  0.00    +0.000 C 
ATOM      7  O   UNL     1       2.625   8.888  17.190  0.00  0.00    +0.000 OA
ATOM      8  N   UNL     1       0.902   9.487  19.361  0.00  0.00    +0.000 NA
ATOM      9  C   UNL     1       0.113  10.019  20.375  0.00  0.00    +0.000 A 
ATOM     10  H   UNL     1       2.687   6.733  19.553  0.00  0.00    +0.000 HD
ENDROOT
BRANCH   6  11
ATOM     11  C   UNL     1       3.811   6.852  17.318  0.00  0.00    +0.000 A 
ATOM     12  C   UNL     1       4.940   7.267  16.622  0.00  0.00    +0.000 A 
ATOM     13  C   UNL     1       5.826   6.300  16.164  0.00  0.00    +0.000 A 
ATOM     14  C   UNL     1       5.556   4.958  16.414  0.00  0.00    +0.000 A 
ATOM     15  C   UNL     1       4.397   4.612  17.108  0.00  0.00    +0.000 A 
ATOM     16  N   UNL     1       3.514   5.544  17.570  0.00  0.00    +0.000 NA
BRANCH  15  17
ATOM     17  C   UNL     1       4.093   3.152  17.383  0.00  0.00    +0.000 C 
BRANCH  17  18
ATOM     18  O   UNL     1       2.693   3.009  17.638  0.00  0.00    +0.000 OA
BRANCH  18  19
ATOM     19  C   UNL     1       2.318   3.020  18.956  0.00  0.00    +0.000 A 
ATOM     20  C   UNL     1       3.257   2.486  19.838  0.00  0.00    +0.000 A 
ATOM     21  C   UNL     1       2.995   2.442  21.213  0.00  0.00    +0.000 A 
ATOM     22  C   UNL     1       1.801   2.957  21.707  0.00  0.00    +0.000 A 
ATOM     23  C   UNL     1       0.872   3.512  20.832  0.00  0.00    +0.000 A 
ATOM     24  C   UNL     1       1.128   3.547  19.459  0.00  0.00    +0.000 A 
ENDBRANCH  18  19
ENDBRANCH  17  18
ENDBRANCH  15  17
ENDBRANCH   6  11
BRANCH   9  25
ATOM     25  C   UNL     1      -0.775  11.163  20.011  0.00  0.00    +0.000 C 
BRANCH  25  26
ATOM     26  C   UNL     1      -1.184  11.199  18.560  0.00  0.00    +0.000 C 
ATOM     27  O   UNL     1      -1.172  12.225  17.879  0.00  0.00    +0.000 OA
ATOM     28  N   UNL     1      -1.648  10.004  18.057  0.00  0.00    +0.000 N 
ATOM     29  H   UNL     1      -1.347   9.108  18.432  0.00  0.00    +0.000 HD
BRANCH  28  30
ATOM     30  O   UNL     1      -2.036  10.026  16.696  0.00  0.00    +0.000 OA
ATOM     31  H   UNL     1      -2.636   9.250  16.633  0.00  0.00    +0.000 HD
ENDBRANCH  28  30
ENDBRANCH  25  26
ENDBRANCH   9  25
TORSDOF 7
ENDMDL
MODEL 5
REMARK VINA RESULT:      -7.9      1.865      3.951
REMARK  Name = 
REMARK  8 active torsions:
REMARK  status: ('A' for Active; 'I' for Inactive)
REMARK    1  A    between atoms: C_1  and  C_2
REMARK    2  A    between atoms: C_6  and  C_8
REMARK    3  A    between atoms: C_12  and  C_13
REMARK    4  A    between atoms: C_13  and  O_14
REMARK    5  A    between atoms: O_14  and  C_15
REMARK    6  A    between atoms: C_23  and  C_24
REMARK    7  A    between atoms: C_24  and  C_25
REMARK    8  A    between atoms: N_27  and  O_28
REMARK                            x       y       z     vdW  Elec       q    Type
REMARK                         _______ _______ _______ _____ _____    ______ ____
ROOT
ATOM      1  C   UNL     1      -1.044  11.778  22.958  0.00  0.00    +0.000 C 
ATOM      2  C   UNL     1      -0.394  10.798  22.046  0.00  0.00    +0.000 A 
ATOM      3  S   UNL     1      -0.054   9.199  22.590  0.00  0.00    +0.000 S 
ATOM      4  C   UNL     1       0.649   8.840  21.082  0.00  0.00    +0.000 A 
ATOM      5  N   UNL     1       1.156   7.577  20.977  0.00  0.00    +0.000 N 
ATOM      6  C   UNL     1       1.925   7.176  19.908  0.00  0.00    +0.000 C 
ATOM      7  O   UNL     1       2.248   7.849  18.936  0.00  0.00    +0.000 OA
ATOM      8  N   UNL     1       0.630   9.804  20.199  0.00  0.00    +0.000 NA
ATOM      9  C   UNL     1      -0.006  10.927  20.717  0.00  0.00    +0.000 A 
ATOM     10  H   UNL     1       1.024   6.929  21.744  0.00  0.00    +0.000 HD
ENDROOT
BRANCH   6  11
ATOM     11  C   UNL     1       2.423   5.763  20.026  0.00  0.00    +0.000 A 
ATOM     12  C   UNL     1       1.830   4.907  20.946  0.00  0.00    +0.000 A 
ATOM     13  C   UNL     1       2.285   3.596  21.017  0.00  0.00    +0.000 A 
ATOM     14  C   UNL     1       3.312   3.186  20.173  0.00  0.00    +0.000 A 
ATOM     15  C   UNL     1       3.871   4.103  19.282  0.00  0.00    +0.000 A 
ATOM     16  N   UNL     1       3.438   5.394  19.192  0.00  0.00    +0.000 NA
BRANCH  15  17
ATOM     17  C   UNL     1       4.992   3.667  18.360  0.00  0.00    +0.000 C 
BRANCH  17  18
ATOM     18  O   UNL     1       6.244   4.046  18.940  0.00  0.00    +0.000 OA
BRANCH  18  19
ATOM     19  C   UNL     1       6.764   5.241  18.519  0.00  0.00    +0.000 A 
ATOM     20  C   UNL     1       6.180   5.761  17.364  0.00  0.00    +0.000 A 
ATOM     21  C   UNL     1       6.620   6.979  16.833  0.00  0.00    +0.000 A 
ATOM     22  C   UNL     1       7.628   7.691  17.474  0.00  0.00    +0.000 A 
ATOM     23  C   UNL     1       8.196   7.187  18.640  0.00  0.00    +0.000 A 
ATOM     24  C   UNL     1       7.765   5.966  19.166  0.00  0.00    +0.000 A 
ENDBRANCH  18  19
ENDBRANCH  17  18
ENDBRANCH  15  17
ENDBRANCH   6  11
BRANCH   9  25
ATOM     25  C   UNL     1      -0.256  12.058  19.774  0.00  0.00    +0.000 C 
BRANCH  25  26
ATOM     26  C   UNL     1      -1.619  12.044  19.130  0.00  0.00    +0.000 C 
ATOM     27  O   UNL     1      -1.883  11.388  18.121  0.00  0.00    +0.000 OA
ATOM     28  N   UNL     1      -2.546  12.878  19.712  0.00  0.00    +0.000 N 
ATOM     29  H   UNL     1      -2.501  13.133  20.696  0.00  0.00    +0.000 HD
BRANCH  28  30
ATOM     30  O   UNL     1      -3.830  12.874  19.115  0.00  0.00    +0.000 OA
ATOM     31  H   UNL     1      -4.423  12.744  19.887  0.00  0.00    +0.000 HD
ENDBRANCH  28  30
ENDBRANCH  25  26
ENDBRANCH   9  25
TORSDOF 7
ENDMDL
MODEL 6
REMARK VINA RESULT:      -7.8      2.394      8.809
REMARK  Name = 
REMARK  8 active torsions:
REMARK  status: ('A' for Active; 'I' for Inactive)
REMARK    1  A    between atoms: C_1  and  C_2
REMARK    2  A    between atoms: C_6  and  C_8
REMARK    3  A    between atoms: C_12  and  C_13
REMARK    4  A    between atoms: C_13  and  O_14
REMARK    5  A    between atoms: O_14  and  C_15
REMARK    6  A    between atoms: C_23  and  C_24
REMARK    7  A    between atoms: C_24  and  C_25
REMARK    8  A    between atoms: N_27  and  O_28
REMARK                            x       y       z     vdW  Elec       q    Type
REMARK                         _______ _______ _______ _____ _____    ______ ____
ROOT
ATOM      1  C   UNL     1       5.914   4.581  16.364  0.00  0.00    +0.000 C 
ATOM      2  C   UNL     1       4.863   5.016  17.324  0.00  0.00    +0.000 A 
ATOM      3  S   UNL     1       4.325   6.653  17.339  0.00  0.00    +0.000 S 
ATOM      4  C   UNL     1       3.276   6.292  18.629  0.00  0.00    +0.000 A 
ATOM      5  N   UNL     1       2.557   7.355  19.094  0.00  0.00    +0.000 N 
ATOM      6  C   UNL     1       1.807   7.295  20.246  0.00  0.00    +0.000 C 
ATOM      7  O   UNL     1       1.670   6.329  20.989  0.00  0.00    +0.000 OA
ATOM      8  N   UNL     1       3.275   5.048  19.034  0.00  0.00    +0.000 NA
ATOM      9  C   UNL     1       4.150   4.285  18.267  0.00  0.00    +0.000 A 
ATOM     10  H   UNL     1       2.631   8.244  18.614  0.00  0.00    +0.000 HD
ENDROOT
BRANCH   6  11
ATOM     11  C   UNL     1       1.144   8.596  20.598  0.00  0.00    +0.000 A 
ATOM     12  C   UNL     1       0.889   8.891  21.932  0.00  0.00    +0.000 A 
ATOM     13  C   UNL     1       0.302  10.112  22.238  0.00  0.00    +0.000 A 
ATOM     14  C   UNL     1      -0.009  10.994  21.207  0.00  0.00    +0.000 A 
ATOM     15  C   UNL     1       0.263  10.627  19.889  0.00  0.00    +0.000 A 
ATOM     16  N   UNL     1       0.842   9.435  19.565  0.00  0.00    +0.000 NA
BRANCH  15  17
ATOM     17  C   UNL     1      -0.074  11.581  18.760  0.00  0.00    +0.000 C 
BRANCH  17  18
ATOM     18  O   UNL     1      -1.270  12.292  19.095  0.00  0.00    +0.000 OA
BRANCH  18  19
ATOM     19  C   UNL     1      -2.401  11.916  18.420  0.00  0.00    +0.000 A 
ATOM     20  C   UNL     1      -2.182  11.420  17.135  0.00  0.00    +0.000 A 
ATOM     21  C   UNL     1      -3.256  10.999  16.343  0.00  0.00    +0.000 A 
ATOM     22  C   UNL     1      -4.551  11.050  16.849  0.00  0.00    +0.000 A 
ATOM     23  C   UNL     1      -4.772  11.522  18.140  0.00  0.00    +0.000 A 
ATOM     24  C   UNL     1      -3.700  11.952  18.928  0.00  0.00    +0.000 A 
ENDBRANCH  18  19
ENDBRANCH  17  18
ENDBRANCH  15  17
ENDBRANCH   6  11
BRANCH   9  25
ATOM     25  C   UNL     1       4.139   2.810  18.497  0.00  0.00    +0.000 C 
BRANCH  25  26
ATOM     26  C   UNL     1       4.133   2.404  19.949  0.00  0.00    +0.000 C 
ATOM     27  O   UNL     1       5.085   1.848  20.499  0.00  0.00    +0.000 OA
ATOM     28  N   UNL     1       2.949   2.634  20.613  0.00  0.00    +0.000 N 
ATOM     29  H   UNL     1       2.312   3.378  20.336  0.00  0.00    +0.000 HD
BRANCH  28  30
ATOM     30  O   UNL     1       2.932   2.256  21.976  0.00  0.00    +0.000 OA
ATOM     31  H   UNL     1       1.982   2.061  22.131  0.00  0.00    +0.000 HD
ENDBRANCH  28  30
ENDBRANCH  25  26
ENDBRANCH   9  25
TORSDOF 7
ENDMDL
MODEL 7
REMARK VINA RESULT:      -7.8      2.937      9.244
REMARK  Name = 
REMARK  8 active torsions:
REMARK  status: ('A' for Active; 'I' for Inactive)
REMARK    1  A    between atoms: C_1  and  C_2
REMARK    2  A    between atoms: C_6  and  C_8
REMARK    3  A    between atoms: C_12  and  C_13
REMARK    4  A    between atoms: C_13  and  O_14
REMARK    5  A    between atoms: O_14  and  C_15
REMARK    6  A    between atoms: C_23  and  C_24
REMARK    7  A    between atoms: C_24  and  C_25
REMARK    8  A    between atoms: N_27  and  O_28
REMARK                            x       y       z     vdW  Elec       q    Type
REMARK                         _______ _______ _______ _____ _____    ______ ____
ROOT
ATOM      1  C   UNL     1       3.470   2.399  19.511  0.00  0.00    +0.000 C 
ATOM      2  C   UNL     1       3.172   3.857  19.551  0.00  0.00    +0.000 A 
ATOM      3  S   UNL     1       2.184   4.506  20.804  0.00  0.00    +0.000 S 
ATOM      4  C   UNL     1       2.326   6.053  20.108  0.00  0.00    +0.000 A 
ATOM      5  N   UNL     1       1.638   7.035  20.759  0.00  0.00    +0.000 N 
ATOM      6  C   UNL     1       1.481   8.299  20.238  0.00  0.00    +0.000 C 
ATOM      7  O   UNL     1       1.917   8.717  19.171  0.00  0.00    +0.000 OA
ATOM      8  N   UNL     1       3.067   6.130  19.033  0.00  0.00    +0.000 NA
ATOM      9  C   UNL     1       3.601   4.884  18.719  0.00  0.00    +0.000 A 
ATOM     10  H   UNL     1       1.164   6.811  21.626  0.00  0.00    +0.000 HD
ENDROOT
BRANCH   6  11
ATOM     11  C   UNL     1       0.643   9.202  21.097  0.00  0.00    +0.000 A 
ATOM     12  C   UNL     1       0.447   8.880  22.434  0.00  0.00    +0.000 A 
ATOM     13  C   UNL     1      -0.306   9.744  23.219  0.00  0.00    +0.000 A 
ATOM     14  C   UNL     1      -0.837  10.895  22.645  0.00  0.00    +0.000 A 
ATOM     15  C   UNL     1      -0.612  11.149  21.292  0.00  0.00    +0.000 A 
ATOM     16  N   UNL     1       0.128  10.317  20.503  0.00  0.00    +0.000 NA
BRANCH  15  17
ATOM     17  C   UNL     1      -1.188  12.400  20.657  0.00  0.00    +0.000 C 
BRANCH  17  18
ATOM     18  O   UNL     1      -2.223  12.914  21.501  0.00  0.00    +0.000 OA
BRANCH  18  19
ATOM     19  C   UNL     1      -3.506  12.726  21.060  0.00  0.00    +0.000 A 
ATOM     20  C   UNL     1      -4.489  12.849  22.041  0.00  0.00    +0.000 A 
ATOM     21  C   UNL     1      -5.841  12.683  21.718  0.00  0.00    +0.000 A 
ATOM     22  C   UNL     1      -6.211  12.419  20.403  0.00  0.00    +0.000 A 
ATOM     23  C   UNL     1      -5.235  12.319  19.416  0.00  0.00    +0.000 A 
ATOM     24  C   UNL     1      -3.884  12.475  19.740  0.00  0.00    +0.000 A 
ENDBRANCH  18  19
ENDBRANCH  17  18
ENDBRANCH  15  17
ENDBRANCH   6  11
BRANCH   9  25
ATOM     25  C   UNL     1       4.604   4.838  17.614  0.00  0.00    +0.000 C 
BRANCH  25  26
ATOM     26  C   UNL     1       6.038   4.777  18.075  0.00  0.00    +0.000 C 
ATOM     27  O   UNL     1       6.439   5.315  19.108  0.00  0.00    +0.000 OA
ATOM     28  N   UNL     1       6.898   4.130  17.216  0.00  0.00    +0.000 N 
ATOM     29  H   UNL     1       6.581   3.396  16.587  0.00  0.00    +0.000 HD
BRANCH  28  30
ATOM     30  O   UNL     1       8.247   4.067  17.638  0.00  0.00    +0.000 OA
ATOM     31  H   UNL     1       8.611   4.921  17.315  0.00  0.00    +0.000 HD
ENDBRANCH  28  30
ENDBRANCH  25  26
ENDBRANCH   9  25
TORSDOF 7
ENDMDL
MODEL 8
REMARK VINA RESULT:      -7.8      1.069      1.503
REMARK  Name = 
REMARK  8 active torsions:
REMARK  status: ('A' for Active; 'I' for Inactive)
REMARK    1  A    between atoms: C_1  and  C_2
REMARK    2  A    between atoms: C_6  and  C_8
REMARK    3  A    between atoms: C_12  and  C_13
REMARK    4  A    between atoms: C_13  and  O_14
REMARK    5  A    between atoms: O_14  and  C_15
REMARK    6  A    between atoms: C_23  and  C_24
REMARK    7  A    between atoms: C_24  and  C_25
REMARK    8  A    between atoms: N_27  and  O_28
REMARK                            x       y       z     vdW  Elec       q    Type
REMARK                         _______ _______ _______ _____ _____    ______ ____
ROOT
ATOM      1  C   UNL     1      -0.737  10.662  22.387  0.00  0.00    +0.000 C 
ATOM      2  C   UNL     1      -0.022  10.160  21.182  0.00  0.00    +0.000 A 
ATOM      3  S   UNL     1       0.943   8.736  21.277  0.00  0.00    +0.000 S 
ATOM      4  C   UNL     1       1.366   8.919  19.639  0.00  0.00    +0.000 A 
ATOM      5  N   UNL     1       2.226   7.973  19.163  0.00  0.00    +0.000 N 
ATOM      6  C   UNL     1       2.823   8.068  17.927  0.00  0.00    +0.000 C 
ATOM      7  O   UNL     1       2.676   8.964  17.103  0.00  0.00    +0.000 OA
ATOM      8  N   UNL     1       0.829   9.939  19.021  0.00  0.00    +0.000 NA
ATOM      9  C   UNL     1      -0.009  10.642  19.879  0.00  0.00    +0.000 A 
ATOM     10  H   UNL     1       2.494   7.204  19.767  0.00  0.00    +0.000 HD
ENDROOT
BRANCH   6  11
ATOM     11  C   UNL     1       3.775   6.944  17.632  0.00  0.00    +0.000 A 
ATOM     12  C   UNL     1       4.390   6.883  16.387  0.00  0.00    +0.000 A 
ATOM     13  C   UNL     1       5.290   5.852  16.146  0.00  0.00    +0.000 A 
ATOM     14  C   UNL     1       5.543   4.921  17.149  0.00  0.00    +0.000 A 
ATOM     15  C   UNL     1       4.878   5.036  18.370  0.00  0.00    +0.000 A 
ATOM     16  N   UNL     1       3.993   6.041  18.631  0.00  0.00    +0.000 NA
BRANCH  15  17
ATOM     17  C   UNL     1       5.146   4.025  19.468  0.00  0.00    +0.000 C 
BRANCH  17  18
ATOM     18  O   UNL     1       4.481   2.801  19.144  0.00  0.00    +0.000 OA
BRANCH  18  19
ATOM     19  C   UNL     1       3.128   2.775  19.363  0.00  0.00    +0.000 A 
ATOM     20  C   UNL     1       2.739   3.073  20.669  0.00  0.00    +0.000 A 
ATOM     21  C   UNL     1       1.385   3.084  21.021  0.00  0.00    +0.000 A 
ATOM     22  C   UNL     1       0.417   2.821  20.057  0.00  0.00    +0.000 A 
ATOM     23  C   UNL     1       0.800   2.547  18.748  0.00  0.00    +0.000 A 
ATOM     24  C   UNL     1       2.153   2.526  18.397  0.00  0.00    +0.000 A 
ENDBRANCH  18  19
ENDBRANCH  17  18
ENDBRANCH  15  17
ENDBRANCH   6  11
BRANCH   9  25
ATOM     25  C   UNL     1      -0.827  11.738  19.277  0.00  0.00    +0.000 C 
BRANCH  25  26
ATOM     26  C   UNL     1      -2.182  11.304  18.780  0.00  0.00    +0.000 C 
ATOM     27  O   UNL     1      -2.377  10.241  18.188  0.00  0.00    +0.000 OA
ATOM     28  N   UNL     1      -3.193  12.220  18.969  0.00  0.00    +0.000 N 
ATOM     29  H   UNL     1      -3.172  12.895  19.730  0.00  0.00    +0.000 HD
BRANCH  28  30
ATOM     30  O   UNL     1      -4.469  11.823  18.505  0.00  0.00    +0.000 OA
ATOM     31  H   UNL     1      -4.270  10.995  18.016  0.00  0.00    +0.000 HD
ENDBRANCH  28  30
ENDBRANCH  25  26
ENDBRANCH   9  25
TORSDOF 7
ENDMDL
MODEL 9
REMARK VINA RESULT:      -7.7      1.833      3.766
REMARK  Name = 
REMARK  8 active torsions:
REMARK  status: ('A' for Active; 'I' for Inactive)
REMARK    1  A    between atoms: C_1  and  C_2
REMARK    2  A    between atoms: C_6  and  C_8
REMARK    3  A    between atoms: C_12  and  C_13
REMARK    4  A    between atoms: C_13  and  O_14
REMARK    5  A    between atoms: O_14  and  C_15
REMARK    6  A    between atoms: C_23  and  C_24
REMARK    7  A    between atoms: C_24  and  C_25
REMARK    8  A    between atoms: N_27  and  O_28
REMARK                            x       y       z     vdW  Elec       q    Type
REMARK                         _______ _______ _______ _____ _____    ______ ____
ROOT
ATOM      1  C   UNL     1      -1.201  11.309  22.982  0.00  0.00    +0.000 C 
ATOM      2  C   UNL     1      -0.468  10.508  21.963  0.00  0.00    +0.000 A 
ATOM      3  S   UNL     1       0.214   8.983  22.384  0.00  0.00    +0.000 S 
ATOM      4  C   UNL     1       0.825   8.826  20.804  0.00  0.00    +0.000 A 
ATOM      5  N   UNL     1       1.548   7.689  20.583  0.00  0.00    +0.000 N 
ATOM      6  C   UNL     1       2.273   7.485  19.432  0.00  0.00    +0.000 C 
ATOM      7  O   UNL     1       2.372   8.246  18.476  0.00  0.00    +0.000 OA
ATOM      8  N   UNL     1       0.543   9.804  19.982  0.00  0.00    +0.000 NA
ATOM      9  C   UNL     1      -0.239  10.763  20.616  0.00  0.00    +0.000 A 
ATOM     10  H   UNL     1       1.612   6.998  21.321  0.00  0.00    +0.000 HD
ENDROOT
BRANCH   6  11
ATOM     11  C   UNL     1       3.035   6.191  19.425  0.00  0.00    +0.000 A 
ATOM     12  C   UNL     1       2.336   4.990  19.432  0.00  0.00    +0.000 A 
ATOM     13  C   UNL     1       3.059   3.804  19.395  0.00  0.00    +0.000 A 
ATOM     14  C   UNL     1       4.449   3.857  19.355  0.00  0.00    +0.000 A 
ATOM     15  C   UNL     1       5.086   5.098  19.364  0.00  0.00    +0.000 A 
ATOM     16  N   UNL     1       4.397   6.275  19.396  0.00  0.00    +0.000 NA
BRANCH  15  17
ATOM     17  C   UNL     1       6.600   5.165  19.322  0.00  0.00    +0.000 C 
BRANCH  17  18
ATOM     18  O   UNL     1       6.999   5.954  18.196  0.00  0.00    +0.000 OA
BRANCH  18  19
ATOM     19  C   UNL     1       6.606   5.489  16.968  0.00  0.00    +0.000 A 
ATOM     20  C   UNL     1       5.692   6.302  16.297  0.00  0.00    +0.000 A 
ATOM     21  C   UNL     1       5.215   5.940  15.032  0.00  0.00    +0.000 A 
ATOM     22  C   UNL     1       5.674   4.775  14.426  0.00  0.00    +0.000 A 
ATOM     23  C   UNL     1       6.604   3.974  15.082  0.00  0.00    +0.000 A 
ATOM     24  C   UNL     1       7.073   4.329  16.350  0.00  0.00    +0.000 A 
ENDBRANCH  18  19
ENDBRANCH  17  18
ENDBRANCH  15  17
ENDBRANCH   6  11
BRANCH   9  25
ATOM     25  C   UNL     1      -0.784  11.862  19.764  0.00  0.00    +0.000 C 
BRANCH  25  26
ATOM     26  C   UNL     1      -1.538  11.392  18.547  0.00  0.00    +0.000 C 
ATOM     27  O   UNL     1      -2.135  10.315  18.495  0.00  0.00    +0.000 OA
ATOM     28  N   UNL     1      -1.457  12.225  17.454  0.00  0.00    +0.000 N 
ATOM     29  H   UNL     1      -1.309  13.227  17.550  0.00  0.00    +0.000 HD
BRANCH  28  30
ATOM     30  O   UNL     1      -2.160  11.793  16.304  0.00  0.00    +0.000 OA
ATOM     31  H   UNL     1      -1.525  11.171  15.887  0.00  0.00    +0.000 HD
ENDBRANCH  28  30
ENDBRANCH  25  26
ENDBRANCH   9  25
TORSDOF 7
ENDMDL
