MODEL 1
REMARK VINA RESULT:      -7.0      0.000      0.000
REMARK  Name = 
REMARK  6 active torsions:
REMARK  status: ('A' for Active; 'I' for Inactive)
REMARK    1  A    between atoms: C_1  and  C_2
REMARK    2  A    between atoms: C_2  and  C_3
REMARK    3  A    between atoms: C_2  and  C_4
REMARK    4  A    between atoms: C_6  and  C_7
REMARK    5  A    between atoms: C_21  and  N_22
REMARK    6  A    between atoms: C_23  and  O_24
REMARK                            x       y       z     vdW  Elec       q    Type
REMARK                         _______ _______ _______ _____ _____    ______ ____
ROOT
ATOM      1  C   UNL     1       2.868   7.349  18.205  0.00  0.00    +0.000 C 
ATOM      2  O   UNL     1       3.716   7.489  17.331  0.00  0.00    +0.000 OA
ATOM      3  N   UNL     1       2.186   8.446  18.765  0.00  0.00    +0.000 N 
ATOM      4  C   UNL     1       2.259   9.734  18.092  0.00  0.00    +0.000 C 
ATOM      5  C   UNL     1       0.836  10.226  17.811  0.00  0.00    +0.000 C 
ATOM      6  C   UNL     1      -0.035  10.300  19.095  0.00  0.00    +0.000 C 
ATOM      7  C   UNL     1       0.034   8.948  19.846  0.00  0.00    +0.000 C 
ATOM      8  C   UNL     1       1.488   8.492  20.049  0.00  0.00    +0.000 C 
ATOM      9  C   UNL     1      -1.478  10.646  18.764  0.00  0.00    +0.000 A 
ATOM     10  C   UNL     1      -2.339   9.986  17.889  0.00  0.00    +0.000 A 
ATOM     11  C   UNL     1      -3.650  10.448  17.740  0.00  0.00    +0.000 A 
ATOM     12  C   UNL     1      -4.097  11.566  18.454  0.00  0.00    +0.000 A 
ATOM     13  C   UNL     1      -3.238  12.222  19.333  0.00  0.00    +0.000 A 
ATOM     14  C   UNL     1      -1.936  11.749  19.489  0.00  0.00    +0.000 A 
ATOM     15  C   UNL     1      -0.912  12.279  20.445  0.00  0.00    +0.000 C 
ATOM     16  C   UNL     1       0.371  11.468  20.068  0.00  0.00    +0.000 C 
ENDROOT
BRANCH   1  19
ATOM     17  C   UNL     1       2.362   4.125  20.069  0.00  0.00    +0.000 A 
ATOM     18  C   UNL     1       2.744   5.437  19.934  0.00  0.00    +0.000 A 
ATOM     19  C   UNL     1       2.487   6.003  18.654  0.00  0.00    +0.000 A 
ATOM     20  C   UNL     1       1.710   5.128  17.917  0.00  0.00    +0.000 A 
ATOM     21  S   UNL     1       1.488   3.610  18.700  0.00  0.00    +0.000 S 
BRANCH  17  23
ATOM     22  C   UNL     1       1.358   2.531  21.705  0.00  0.00    +0.000 C 
ATOM     23  C   UNL     1       2.643   3.248  21.262  0.00  0.00    +0.000 C 
ATOM     24  C   UNL     1       3.715   2.209  20.909  0.00  0.00    +0.000 C 
ENDBRANCH  17  23
ENDBRANCH   1  19
BRANCH  15  25
ATOM     25  N   UNL     1      -1.334  12.078  21.830  0.00  0.00    +0.000 NA
ATOM     26  H   UNL     1      -1.349  11.079  22.035  0.00  0.00    +0.000 HD
ATOM     27  H   UNL     1      -2.298  12.393  21.925  0.00  0.00    +0.000 HD
ENDBRANCH  15  25
BRANCH  16  28
ATOM     28  O   UNL     1       1.356  12.339  19.497  0.00  0.00    +0.000 OA
ATOM     29  H   UNL     1       1.625  12.972  20.181  0.00  0.00    +0.000 HD
ENDBRANCH  16  28
TORSDOF 4
ENDMDL
MODEL 2
REMARK VINA RESULT:      -6.9      1.222      1.560
REMARK  Name = 
REMARK  6 active torsions:
REMARK  status: ('A' for Active; 'I' for Inactive)
REMARK    1  A    between atoms: C_1  and  C_2
REMARK    2  A    between atoms: C_2  and  C_3
REMARK    3  A    between atoms: C_2  and  C_4
REMARK    4  A    between atoms: C_6  and  C_7
REMARK    5  A    between atoms: C_21  and  N_22
REMARK    6  A    between atoms: C_23  and  O_24
REMARK                            x       y       z     vdW  Elec       q    Type
REMARK                         _______ _______ _______ _____ _____    ______ ____
ROOT
ATOM      1  C   UNL     1       2.639   7.859  18.406  0.00  0.00    +0.000 C 
ATOM      2  O   UNL     1       3.497   8.033  17.547  0.00  0.00    +0.000 OA
ATOM      3  N   UNL     1       1.867   8.920  18.916  0.00  0.00    +0.000 N 
ATOM      4  C   UNL     1       1.866  10.190  18.204  0.00  0.00    +0.000 C 
ATOM      5  C   UNL     1       0.418  10.570  17.875  0.00  0.00    +0.000 C 
ATOM      6  C   UNL     1      -0.488  10.619  19.136  0.00  0.00    +0.000 C 
ATOM      7  C   UNL     1      -0.342   9.298  19.930  0.00  0.00    +0.000 C 
ATOM      8  C   UNL     1       1.135   8.954  20.180  0.00  0.00    +0.000 C 
ATOM      9  C   UNL     1      -1.943  10.851  18.760  0.00  0.00    +0.000 A 
ATOM     10  C   UNL     1      -2.733  10.105  17.887  0.00  0.00    +0.000 A 
ATOM     11  C   UNL     1      -4.069  10.468  17.693  0.00  0.00    +0.000 A 
ATOM     12  C   UNL     1      -4.611  11.571  18.361  0.00  0.00    +0.000 A 
ATOM     13  C   UNL     1      -3.824  12.313  19.239  0.00  0.00    +0.000 A 
ATOM     14  C   UNL     1      -2.497  11.939  19.440  0.00  0.00    +0.000 A 
ATOM     15  C   UNL     1      -1.537  12.570  20.402  0.00  0.00    +0.000 C 
ATOM     16  C   UNL     1      -0.190  11.841  20.081  0.00  0.00    +0.000 C 
ENDROOT
BRANCH   1  19
ATOM     17  C   UNL     1       1.881   4.197  18.776  0.00  0.00    +0.000 A 
ATOM     18  C   UNL     1       2.261   5.325  18.093  0.00  0.00    +0.000 A 
ATOM     19  C   UNL     1       2.343   6.503  18.888  0.00  0.00    +0.000 A 
ATOM     20  C   UNL     1       2.218   6.161  20.222  0.00  0.00    +0.000 A 
ATOM     21  S   UNL     1       1.817   4.502  20.452  0.00  0.00    +0.000 S 
BRANCH  17  23
ATOM     22  C   UNL     1       2.888   2.107  17.858  0.00  0.00    +0.000 C 
ATOM     23  C   UNL     1       1.580   2.856  18.157  0.00  0.00    +0.000 C 
ATOM     24  C   UNL     1       0.716   2.020  19.109  0.00  0.00    +0.000 C 
ENDBRANCH  17  23
ENDBRANCH   1  19
BRANCH  15  25
ATOM     25  N   UNL     1      -1.979  12.380  21.782  0.00  0.00    +0.000 NA
ATOM     26  H   UNL     1      -1.784  11.420  22.069  0.00  0.00    +0.000 HD
ATOM     27  H   UNL     1      -2.992  12.476  21.816  0.00  0.00    +0.000 HD
ENDBRANCH  15  25
BRANCH  16  28
ATOM     28  O   UNL     1       0.744  12.764  19.505  0.00  0.00    +0.000 OA
ATOM     29  H   UNL     1       1.636  12.415  19.655  0.00  0.00    +0.000 HD
ENDBRANCH  16  28
TORSDOF 4
ENDMDL
MODEL 3
REMARK VINA RESULT:      -6.6      8.218     11.475
REMARK  Name = 
REMARK  6 active torsions:
REMARK  status: ('A' for Active; 'I' for Inactive)
REMARK    1  A    between atoms: C_1  and  C_2
REMARK    2  A    between atoms: C_2  and  C_3
REMARK    3  A    between atoms: C_2  and  C_4
REMARK    4  A    between atoms: C_6  and  C_7
REMARK    5  A    between atoms: C_21  and  N_22
REMARK    6  A    between atoms: C_23  and  O_24
REMARK                            x       y       z     vdW  Elec       q    Type
REMARK                         _______ _______ _______ _____ _____    ______ ____
ROOT
ATOM      1  C   UNL     1       5.418  16.613  20.830  0.00  0.00    +0.000 C 
ATOM      2  O   UNL     1       5.410  16.953  22.009  0.00  0.00    +0.000 OA
ATOM      3  N   UNL     1       6.608  16.546  20.081  0.00  0.00    +0.000 N 
ATOM      4  C   UNL     1       7.882  16.582  20.785  0.00  0.00    +0.000 C 
ATOM      5  C   UNL     1       8.699  15.348  20.389  0.00  0.00    +0.000 C 
ATOM      6  C   UNL     1       8.898  15.230  18.852  0.00  0.00    +0.000 C 
ATOM      7  C   UNL     1       7.525  15.338  18.145  0.00  0.00    +0.000 C 
ATOM      8  C   UNL     1       6.739  16.568  18.626  0.00  0.00    +0.000 C 
ATOM      9  C   UNL     1       9.581  13.923  18.483  0.00  0.00    +0.000 A 
ATOM     10  C   UNL     1       9.184  12.627  18.806  0.00  0.00    +0.000 A 
ATOM     11  C   UNL     1       9.941  11.545  18.346  0.00  0.00    +0.000 A 
ATOM     12  C   UNL     1      11.089  11.756  17.574  0.00  0.00    +0.000 A 
ATOM     13  C   UNL     1      11.481  13.052  17.245  0.00  0.00    +0.000 A 
ATOM     14  C   UNL     1      10.716  14.126  17.695  0.00  0.00    +0.000 A 
ATOM     15  C   UNL     1      10.945  15.571  17.370  0.00  0.00    +0.000 C 
ATOM     16  C   UNL     1       9.885  16.301  18.258  0.00  0.00    +0.000 C 
ENDROOT
BRANCH   1  19
ATOM     17  C   UNL     1       2.473  14.743  19.432  0.00  0.00    +0.000 A 
ATOM     18  C   UNL     1       3.600  14.892  20.202  0.00  0.00    +0.000 A 
ATOM     19  C   UNL     1       4.171  16.195  20.176  0.00  0.00    +0.000 A 
ATOM     20  C   UNL     1       3.305  17.058  19.529  0.00  0.00    +0.000 A 
ATOM     21  S   UNL     1       1.960  16.248  18.822  0.00  0.00    +0.000 S 
BRANCH  17  23
ATOM     22  C   UNL     1       0.336  13.719  18.651  0.00  0.00    +0.000 C 
ATOM     23  C   UNL     1       1.756  13.443  19.170  0.00  0.00    +0.000 C 
ATOM     24  C   UNL     1       2.529  12.617  18.135  0.00  0.00    +0.000 C 
ENDBRANCH  17  23
ENDBRANCH   1  19
BRANCH  15  25
ATOM     25  N   UNL     1      10.768  15.820  15.940  0.00  0.00    +0.000 NA
ATOM     26  H   UNL     1       9.775  15.952  15.743  0.00  0.00    +0.000 HD
ATOM     27  H   UNL     1      11.042  14.984  15.427  0.00  0.00    +0.000 HD
ENDBRANCH  15  25
BRANCH  16  28
ATOM     28  O   UNL     1      10.540  17.067  19.278  0.00  0.00    +0.000 OA
ATOM     29  H   UNL     1      11.191  17.642  18.846  0.00  0.00    +0.000 HD
ENDBRANCH  16  28
TORSDOF 4
ENDMDL
MODEL 4
REMARK VINA RESULT:      -6.6      8.352     12.031
REMARK  Name = 
REMARK  6 active torsions:
REMARK  status: ('A' for Active; 'I' for Inactive)
REMARK    1  A    between atoms: C_1  and  C_2
REMARK    2  A    between atoms: C_2  and  C_3
REMARK    3  A    between atoms: C_2  and  C_4
REMARK    4  A    between atoms: C_6  and  C_7
REMARK    5  A    between atoms: C_21  and  N_22
REMARK    6  A    between atoms: C_23  and  O_24
REMARK                            x       y       z     vdW  Elec       q    Type
REMARK                         _______ _______ _______ _____ _____    ______ ____
ROOT
ATOM      1  C   UNL     1       5.411  16.578  20.783  0.00  0.00    +0.000 C 
ATOM      2  O   UNL     1       5.366  16.844  21.980  0.00  0.00    +0.000 OA
ATOM      3  N   UNL     1       6.628  16.501  20.081  0.00  0.00    +0.000 N 
ATOM      4  C   UNL     1       7.870  16.432  20.836  0.00  0.00    +0.000 C 
ATOM      5  C   UNL     1       8.648  15.188  20.396  0.00  0.00    +0.000 C 
ATOM      6  C   UNL     1       8.908  15.157  18.864  0.00  0.00    +0.000 C 
ATOM      7  C   UNL     1       7.573  15.374  18.109  0.00  0.00    +0.000 C 
ATOM      8  C   UNL     1       6.824  16.609  18.636  0.00  0.00    +0.000 C 
ATOM      9  C   UNL     1       9.547  13.845  18.440  0.00  0.00    +0.000 A 
ATOM     10  C   UNL     1       9.079  12.551  18.662  0.00  0.00    +0.000 A 
ATOM     11  C   UNL     1       9.805  11.465  18.164  0.00  0.00    +0.000 A 
ATOM     12  C   UNL     1      10.994  11.669  17.455  0.00  0.00    +0.000 A 
ATOM     13  C   UNL     1      11.459  12.963  17.227  0.00  0.00    +0.000 A 
ATOM     14  C   UNL     1      10.724  14.042  17.713  0.00  0.00    +0.000 A 
ATOM     15  C   UNL     1      11.031  15.492  17.491  0.00  0.00    +0.000 C 
ATOM     16  C   UNL     1       9.968  16.215  18.381  0.00  0.00    +0.000 C 
ENDROOT
BRANCH   1  19
ATOM     17  C   UNL     1       2.098  16.635  19.009  0.00  0.00    +0.000 A 
ATOM     18  C   UNL     1       3.209  17.197  19.586  0.00  0.00    +0.000 A 
ATOM     19  C   UNL     1       4.176  16.262  20.053  0.00  0.00    +0.000 A 
ATOM     20  C   UNL     1       3.836  14.998  19.608  0.00  0.00    +0.000 A 
ATOM     21  S   UNL     1       2.300  14.953  18.832  0.00  0.00    +0.000 S 
BRANCH  17  23
ATOM     22  C   UNL     1       1.124  18.062  17.208  0.00  0.00    +0.000 C 
ATOM     23  C   UNL     1       0.868  17.383  18.563  0.00  0.00    +0.000 C 
ATOM     24  C   UNL     1      -0.317  16.417  18.437  0.00  0.00    +0.000 C 
ENDBRANCH  17  23
ENDBRANCH   1  19
BRANCH  15  25
ATOM     25  N   UNL     1      10.928  15.838  16.075  0.00  0.00    +0.000 NA
ATOM     26  H   UNL     1      11.611  16.565  15.856  0.00  0.00    +0.000 HD
ATOM     27  H   UNL     1      10.016  16.258  15.908  0.00  0.00    +0.000 HD
ENDBRANCH  15  25
BRANCH  16  28
ATOM     28  O   UNL     1      10.611  16.884  19.474  0.00  0.00    +0.000 OA
ATOM     29  H   UNL     1      10.029  16.817  20.247  0.00  0.00    +0.000 HD
ENDBRANCH  16  28
TORSDOF 4
ENDMDL
MODEL 5
REMARK VINA RESULT:      -6.5      4.683      8.940
REMARK  Name = 
REMARK  6 active torsions:
REMARK  status: ('A' for Active; 'I' for Inactive)
REMARK    1  A    between atoms: C_1  and  C_2
REMARK    2  A    between atoms: C_2  and  C_3
REMARK    3  A    between atoms: C_2  and  C_4
REMARK    4  A    between atoms: C_6  and  C_7
REMARK    5  A    between atoms: C_21  and  N_22
REMARK    6  A    between atoms: C_23  and  O_24
REMARK                            x       y       z     vdW  Elec       q    Type
REMARK                         _______ _______ _______ _____ _____    ______ ____
ROOT
ATOM      1  C   UNL     1       3.615   5.968  19.128  0.00  0.00    +0.000 C 
ATOM      2  O   UNL     1       3.415   5.215  20.075  0.00  0.00    +0.000 OA
ATOM      3  N   UNL     1       4.649   5.740  18.200  0.00  0.00    +0.000 N 
ATOM      4  C   UNL     1       5.297   4.438  18.179  0.00  0.00    +0.000 C 
ATOM      5  C   UNL     1       5.206   3.864  16.761  0.00  0.00    +0.000 C 
ATOM      6  C   UNL     1       5.805   4.818  15.691  0.00  0.00    +0.000 C 
ATOM      7  C   UNL     1       5.182   6.227  15.848  0.00  0.00    +0.000 C 
ATOM      8  C   UNL     1       5.263   6.717  17.303  0.00  0.00    +0.000 C 
ATOM      9  C   UNL     1       5.566   4.290  14.285  0.00  0.00    +0.000 A 
ATOM     10  C   UNL     1       4.352   3.944  13.694  0.00  0.00    +0.000 A 
ATOM     11  C   UNL     1       4.339   3.499  12.368  0.00  0.00    +0.000 A 
ATOM     12  C   UNL     1       5.529   3.392  11.641  0.00  0.00    +0.000 A 
ATOM     13  C   UNL     1       6.742   3.743  12.231  0.00  0.00    +0.000 A 
ATOM     14  C   UNL     1       6.748   4.201  13.547  0.00  0.00    +0.000 A 
ATOM     15  C   UNL     1       7.943   4.694  14.305  0.00  0.00    +0.000 C 
ATOM     16  C   UNL     1       7.374   4.924  15.744  0.00  0.00    +0.000 C 
ENDROOT
BRANCH   1  19
ATOM     17  C   UNL     1       1.216   8.848  19.407  0.00  0.00    +0.000 A 
ATOM     18  C   UNL     1       2.068   7.887  19.893  0.00  0.00    +0.000 A 
ATOM     19  C   UNL     1       2.724   7.112  18.895  0.00  0.00    +0.000 A 
ATOM     20  C   UNL     1       2.489   7.676  17.654  0.00  0.00    +0.000 A 
ATOM     21  S   UNL     1       1.354   8.970  17.713  0.00  0.00    +0.000 S 
BRANCH  17  23
ATOM     22  C   UNL     1      -0.839  10.262  19.363  0.00  0.00    +0.000 C 
ATOM     23  C   UNL     1       0.297   9.706  20.237  0.00  0.00    +0.000 C 
ATOM     24  C   UNL     1      -0.297   8.881  21.385  0.00  0.00    +0.000 C 
ENDBRANCH  17  23
ENDBRANCH   1  19
BRANCH  15  25
ATOM     25  N   UNL     1       8.481   5.911  13.698  0.00  0.00    +0.000 NA
ATOM     26  H   UNL     1       7.712   6.471  13.330  0.00  0.00    +0.000 HD
ATOM     27  H   UNL     1       9.043   5.650  12.891  0.00  0.00    +0.000 HD
ENDBRANCH  15  25
BRANCH  16  28
ATOM     28  O   UNL     1       7.955   3.986  16.659  0.00  0.00    +0.000 OA
ATOM     29  H   UNL     1       7.373   3.212  16.700  0.00  0.00    +0.000 HD
ENDBRANCH  16  28
TORSDOF 4
ENDMDL
MODEL 6
REMARK VINA RESULT:      -6.4      8.590     12.172
REMARK  Name = 
REMARK  6 active torsions:
REMARK  status: ('A' for Active; 'I' for Inactive)
REMARK    1  A    between atoms: C_1  and  C_2
REMARK    2  A    between atoms: C_2  and  C_3
REMARK    3  A    between atoms: C_2  and  C_4
REMARK    4  A    between atoms: C_6  and  C_7
REMARK    5  A    between atoms: C_21  and  N_22
REMARK    6  A    between atoms: C_23  and  O_24
REMARK                            x       y       z     vdW  Elec       q    Type
REMARK                         _______ _______ _______ _____ _____    ______ ____
ROOT
ATOM      1  C   UNL     1       5.964  17.034  19.966  0.00  0.00    +0.000 C 
ATOM      2  O   UNL     1       5.951  18.004  20.716  0.00  0.00    +0.000 OA
ATOM      3  N   UNL     1       7.128  16.635  19.281  0.00  0.00    +0.000 N 
ATOM      4  C   UNL     1       8.409  17.187  19.697  0.00  0.00    +0.000 C 
ATOM      5  C   UNL     1       9.363  16.031  20.017  0.00  0.00    +0.000 C 
ATOM      6  C   UNL     1       9.524  15.043  18.828  0.00  0.00    +0.000 C 
ATOM      7  C   UNL     1       8.126  14.596  18.335  0.00  0.00    +0.000 C 
ATOM      8  C   UNL     1       7.207  15.802  18.083  0.00  0.00    +0.000 C 
ATOM      9  C   UNL     1      10.356  13.834  19.226  0.00  0.00    +0.000 A 
ATOM     10  C   UNL     1      10.138  12.954  20.284  0.00  0.00    +0.000 A 
ATOM     11  C   UNL     1      11.010  11.877  20.468  0.00  0.00    +0.000 A 
ATOM     12  C   UNL     1      12.096  11.684  19.607  0.00  0.00    +0.000 A 
ATOM     13  C   UNL     1      12.310  12.561  18.545  0.00  0.00    +0.000 A 
ATOM     14  C   UNL     1      11.429  13.624  18.357  0.00  0.00    +0.000 A 
ATOM     15  C   UNL     1      11.462  14.608  17.228  0.00  0.00    +0.000 C 
ATOM     16  C   UNL     1      10.348  15.632  17.624  0.00  0.00    +0.000 C 
ENDROOT
BRANCH   1  19
ATOM     17  C   UNL     1       2.573  15.635  19.147  0.00  0.00    +0.000 A 
ATOM     18  C   UNL     1       3.598  16.544  19.058  0.00  0.00    +0.000 A 
ATOM     19  C   UNL     1       4.759  16.208  19.809  0.00  0.00    +0.000 A 
ATOM     20  C   UNL     1       4.634  14.915  20.285  0.00  0.00    +0.000 A 
ATOM     21  S   UNL     1       3.079  14.239  19.984  0.00  0.00    +0.000 S 
BRANCH  17  23
ATOM     22  C   UNL     1       0.130  15.521  19.646  0.00  0.00    +0.000 C 
ATOM     23  C   UNL     1       1.191  15.811  18.572  0.00  0.00    +0.000 C 
ATOM     24  C   UNL     1       1.018  17.244  18.053  0.00  0.00    +0.000 C 
ENDBRANCH  17  23
ENDBRANCH   1  19
BRANCH  15  25
ATOM     25  N   UNL     1      11.208  13.947  15.949  0.00  0.00    +0.000 NA
ATOM     26  H   UNL     1      11.744  13.080  15.907  0.00  0.00    +0.000 HD
ATOM     27  H   UNL     1      11.573  14.533  15.201  0.00  0.00    +0.000 HD
ENDBRANCH  15  25
BRANCH  16  28
ATOM     28  O   UNL     1      10.933  16.904  17.931  0.00  0.00    +0.000 OA
ATOM     29  H   UNL     1      10.493  17.573  17.384  0.00  0.00    +0.000 HD
ENDBRANCH  16  28
TORSDOF 4
ENDMDL
MODEL 7
REMARK VINA RESULT:      -6.4      5.025      8.493
REMARK  Name = 
REMARK  6 active torsions:
REMARK  status: ('A' for Active; 'I' for Inactive)
REMARK    1  A    between atoms: C_1  and  C_2
REMARK    2  A    between atoms: C_2  and  C_3
REMARK    3  A    between atoms: C_2  and  C_4
REMARK    4  A    between atoms: C_6  and  C_7
REMARK    5  A    between atoms: C_21  and  N_22
REMARK    6  A    between atoms: C_23  and  O_24
REMARK                            x       y       z     vdW  Elec       q    Type
REMARK                         _______ _______ _______ _____ _____    ______ ____
ROOT
ATOM      1  C   UNL     1      -4.063  12.978  22.815  0.00  0.00    +0.000 C 
ATOM      2  O   UNL     1      -4.175  12.644  23.990  0.00  0.00    +0.000 OA
ATOM      3  N   UNL     1      -2.810  13.245  22.231  0.00  0.00    +0.000 N 
ATOM      4  C   UNL     1      -1.606  12.826  22.934  0.00  0.00    +0.000 C 
ATOM      5  C   UNL     1      -0.773  11.941  22.002  0.00  0.00    +0.000 C 
ATOM      6  C   UNL     1      -0.435  12.642  20.657  0.00  0.00    +0.000 C 
ATOM      7  C   UNL     1      -1.735  13.190  20.019  0.00  0.00    +0.000 C 
ATOM      8  C   UNL     1      -2.545  14.026  21.025  0.00  0.00    +0.000 C 
ATOM      9  C   UNL     1       0.261  11.688  19.698  0.00  0.00    +0.000 A 
ATOM     10  C   UNL     1      -0.182  10.444  19.254  0.00  0.00    +0.000 A 
ATOM     11  C   UNL     1       0.599   9.726  18.343  0.00  0.00    +0.000 A 
ATOM     12  C   UNL     1       1.816  10.242  17.885  0.00  0.00    +0.000 A 
ATOM     13  C   UNL     1       2.255  11.490  18.325  0.00  0.00    +0.000 A 
ATOM     14  C   UNL     1       1.467  12.208  19.221  0.00  0.00    +0.000 A 
ATOM     15  C   UNL     1       1.745  13.589  19.732  0.00  0.00    +0.000 C 
ATOM     16  C   UNL     1       0.618  13.802  20.795  0.00  0.00    +0.000 C 
ENDROOT
BRANCH   1  19
ATOM     17  C   UNL     1      -6.669  12.539  20.142  0.00  0.00    +0.000 A 
ATOM     18  C   UNL     1      -5.532  12.208  20.838  0.00  0.00    +0.000 A 
ATOM     19  C   UNL     1      -5.250  13.047  21.952  0.00  0.00    +0.000 A 
ATOM     20  C   UNL     1      -6.332  13.877  22.181  0.00  0.00    +0.000 A 
ATOM     21  S   UNL     1      -7.537  13.757  20.957  0.00  0.00    +0.000 S 
BRANCH  17  23
ATOM     22  C   UNL     1      -6.359  12.528  17.666  0.00  0.00    +0.000 C 
ATOM     23  C   UNL     1      -7.120  11.910  18.849  0.00  0.00    +0.000 C 
ATOM     24  C   UNL     1      -6.871  10.397  18.886  0.00  0.00    +0.000 C 
ENDBRANCH  17  23
ENDBRANCH   1  19
BRANCH  15  25
ATOM     25  N   UNL     1       1.704  14.567  18.645  0.00  0.00    +0.000 NA
ATOM     26  H   UNL     1       1.564  14.079  17.760  0.00  0.00    +0.000 HD
ATOM     27  H   UNL     1       2.616  15.012  18.573  0.00  0.00    +0.000 HD
ENDBRANCH  15  25
BRANCH  16  28
ATOM     28  O   UNL     1       1.187  13.872  22.109  0.00  0.00    +0.000 OA
ATOM     29  H   UNL     1       0.989  13.038  22.563  0.00  0.00    +0.000 HD
ENDBRANCH  16  28
TORSDOF 4
ENDMDL
MODEL 8
REMARK VINA RESULT:      -6.3      7.816     11.029
REMARK  Name = 
REMARK  6 active torsions:
REMARK  status: ('A' for Active; 'I' for Inactive)
REMARK    1  A    between atoms: C_1  and  C_2
REMARK    2  A    between atoms: C_2  and  C_3
REMARK    3  A    between atoms: C_2  and  C_4
REMARK    4  A    between atoms: C_6  and  C_7
REMARK    5  A    between atoms: C_21  and  N_22
REMARK    6  A    between atoms: C_23  and  O_24
REMARK                            x       y       z     vdW  Elec       q    Type
REMARK                         _______ _______ _______ _____ _____    ______ ____
ROOT
ATOM      1  C   UNL     1       4.967  16.006  19.773  0.00  0.00    +0.000 C 
ATOM      2  O   UNL     1       4.701  16.913  20.556  0.00  0.00    +0.000 OA
ATOM      3  N   UNL     1       6.242  15.870  19.193  0.00  0.00    +0.000 N 
ATOM      4  C   UNL     1       7.352  16.625  19.757  0.00  0.00    +0.000 C 
ATOM      5  C   UNL     1       8.475  15.650  20.125  0.00  0.00    +0.000 C 
ATOM      6  C   UNL     1       8.929  14.779  18.921  0.00  0.00    +0.000 C 
ATOM      7  C   UNL     1       7.692  14.109  18.273  0.00  0.00    +0.000 C 
ATOM      8  C   UNL     1       6.588  15.137  17.977  0.00  0.00    +0.000 C 
ATOM      9  C   UNL     1       9.935  13.723  19.352  0.00  0.00    +0.000 A 
ATOM     10  C   UNL     1       9.792  12.758  20.347  0.00  0.00    +0.000 A 
ATOM     11  C   UNL     1      10.833  11.853  20.576  0.00  0.00    +0.000 A 
ATOM     12  C   UNL     1      12.009  11.914  19.822  0.00  0.00    +0.000 A 
ATOM     13  C   UNL     1      12.149  12.875  18.822  0.00  0.00    +0.000 A 
ATOM     14  C   UNL     1      11.103  13.766  18.588  0.00  0.00    +0.000 A 
ATOM     15  C   UNL     1      11.052  14.803  17.507  0.00  0.00    +0.000 C 
ATOM     16  C   UNL     1       9.732  15.578  17.830  0.00  0.00    +0.000 C 
ENDROOT
BRANCH   1  19
ATOM     17  C   UNL     1       2.336  13.323  19.862  0.00  0.00    +0.000 A 
ATOM     18  C   UNL     1       3.133  14.302  20.402  0.00  0.00    +0.000 A 
ATOM     19  C   UNL     1       3.960  14.982  19.464  0.00  0.00    +0.000 A 
ATOM     20  C   UNL     1       3.590  14.616  18.182  0.00  0.00    +0.000 A 
ATOM     21  S   UNL     1       2.423  13.350  18.160  0.00  0.00    +0.000 S 
BRANCH  17  23
ATOM     22  C   UNL     1       0.349  13.124  21.356  0.00  0.00    +0.000 C 
ATOM     23  C   UNL     1       1.476  12.362  20.642  0.00  0.00    +0.000 C 
ATOM     24  C   UNL     1       0.872  11.315  19.699  0.00  0.00    +0.000 C 
ENDBRANCH  17  23
ENDBRANCH   1  19
BRANCH  15  25
ATOM     25  N   UNL     1      11.045  14.180  16.185  0.00  0.00    +0.000 NA
ATOM     26  H   UNL     1      10.825  13.188  16.281  0.00  0.00    +0.000 HD
ATOM     27  H   UNL     1      11.988  14.217  15.803  0.00  0.00    +0.000 HD
ENDBRANCH  15  25
BRANCH  16  28
ATOM     28  O   UNL     1      10.035  16.917  18.243  0.00  0.00    +0.000 OA
ATOM     29  H   UNL     1       9.337  17.204  18.852  0.00  0.00    +0.000 HD
ENDBRANCH  16  28
TORSDOF 4
ENDMDL
MODEL 9
REMARK VINA RESULT:      -6.2      0.985      1.275
REMARK  Name = 
REMARK  6 active torsions:
REMARK  status: ('A' for Active; 'I' for Inactive)
REMARK    1  A    between atoms: C_1  and  C_2
REMARK    2  A    between atoms: C_2  and  C_3
REMARK    3  A    between atoms: C_2  and  C_4
REMARK    4  A    between atoms: C_6  and  C_7
REMARK    5  A    between atoms: C_21  and  N_22
REMARK    6  A    between atoms: C_23  and  O_24
REMARK                            x       y       z     vdW  Elec       q    Type
REMARK                         _______ _______ _______ _____ _____    ______ ____
ROOT
ATOM      1  C   UNL     1       3.354   7.589  18.113  0.00  0.00    +0.000 C 
ATOM      2  O   UNL     1       4.169   7.769  17.215  0.00  0.00    +0.000 OA
ATOM      3  N   UNL     1       2.547   8.631  18.609  0.00  0.00    +0.000 N 
ATOM      4  C   UNL     1       2.453   9.867  17.847  0.00  0.00    +0.000 C 
ATOM      5  C   UNL     1       0.977  10.159  17.560  0.00  0.00    +0.000 C 
ATOM      6  C   UNL     1       0.117  10.216  18.852  0.00  0.00    +0.000 C 
ATOM      7  C   UNL     1       0.361   8.939  19.693  0.00  0.00    +0.000 C 
ATOM      8  C   UNL     1       1.862   8.681  19.899  0.00  0.00    +0.000 C 
ATOM      9  C   UNL     1      -1.361  10.358  18.525  0.00  0.00    +0.000 A 
ATOM     10  C   UNL     1      -2.143   9.537  17.715  0.00  0.00    +0.000 A 
ATOM     11  C   UNL     1      -3.503   9.823  17.559  0.00  0.00    +0.000 A 
ATOM     12  C   UNL     1      -4.076  10.925  18.202  0.00  0.00    +0.000 A 
ATOM     13  C   UNL     1      -3.296  11.743  19.018  0.00  0.00    +0.000 A 
ATOM     14  C   UNL     1      -1.945  11.445  19.181  0.00  0.00    +0.000 A 
ATOM     15  C   UNL     1      -0.984  12.164  20.079  0.00  0.00    +0.000 C 
ATOM     16  C   UNL     1       0.386  11.491  19.734  0.00  0.00    +0.000 C 
ENDROOT
BRANCH   1  19
ATOM     17  C   UNL     1       1.972   4.348  19.421  0.00  0.00    +0.000 A 
ATOM     18  C   UNL     1       1.901   5.567  18.794  0.00  0.00    +0.000 A 
ATOM     19  C   UNL     1       3.147   6.241  18.660  0.00  0.00    +0.000 A 
ATOM     20  C   UNL     1       4.170   5.382  19.020  0.00  0.00    +0.000 A 
ATOM     21  S   UNL     1       3.595   3.898  19.678  0.00  0.00    +0.000 S 
BRANCH  17  23
ATOM     22  C   UNL     1       0.559   2.399  18.763  0.00  0.00    +0.000 C 
ATOM     23  C   UNL     1       0.793   3.495  19.815  0.00  0.00    +0.000 C 
ATOM     24  C   UNL     1       1.048   2.848  21.182  0.00  0.00    +0.000 C 
ENDBRANCH  17  23
ENDBRANCH   1  19
BRANCH  15  25
ATOM     25  N   UNL     1      -1.364  12.010  21.482  0.00  0.00    +0.000 NA
ATOM     26  H   UNL     1      -0.766  11.307  21.917  0.00  0.00    +0.000 HD
ATOM     27  H   UNL     1      -2.309  11.633  21.524  0.00  0.00    +0.000 HD
ENDBRANCH  15  25
BRANCH  16  28
ATOM     28  O   UNL     1       1.249  12.434  19.086  0.00  0.00    +0.000 OA
ATOM     29  H   UNL     1       2.086  12.455  19.574  0.00  0.00    +0.000 HD
ENDBRANCH  16  28
TORSDOF 4
ENDMDL
