MODEL 1
REMARK VINA RESULT:      -7.6      0.000      0.000
REMARK  Name = 
REMARK  5 active torsions:
REMARK  status: ('A' for Active; 'I' for Inactive)
REMARK    1  A    between atoms: C_1  and  O_2
REMARK    2  A    between atoms: O_2  and  C_3
REMARK    3  A    between atoms: C_8  and  C_9
REMARK    4  A    between atoms: N_11  and  C_12
REMARK    5  A    between atoms: C_12  and  C_13
REMARK                            x       y       z     vdW  Elec       q    Type
REMARK                         _______ _______ _______ _____ _____    ______ ____
ROOT
ATOM      1  C   UNL     1       2.010   3.955  19.888  0.00  0.00    +0.000 A 
ATOM      2  C   UNL     1       1.419   3.786  18.639  0.00  0.00    +0.000 A 
ATOM      3  C   UNL     1       2.196   3.889  17.484  0.00  0.00    +0.000 A 
ATOM      4  C   UNL     1       3.570   4.163  17.572  0.00  0.00    +0.000 A 
ATOM      5  C   UNL     1       4.375   4.259  16.427  0.00  0.00    +0.000 A 
ATOM      6  C   UNL     1       5.743   4.517  16.544  0.00  0.00    +0.000 A 
ATOM      7  C   UNL     1       6.245   4.671  17.826  0.00  0.00    +0.000 A 
ATOM      8  N   UNL     1       5.492   4.595  18.956  0.00  0.00    +0.000 NA
ATOM      9  C   UNL     1       4.177   4.337  18.832  0.00  0.00    +0.000 A 
ATOM     10  C   UNL     1       3.380   4.229  19.966  0.00  0.00    +0.000 A 
ENDROOT
BRANCH   6  11
ATOM     11  C   UNL     1       6.580   4.549  15.315  0.00  0.00    +0.000 C 
ATOM     12  O   UNL     1       7.759   4.887  15.388  0.00  0.00    +0.000 OA
ATOM     13  N   UNL     1       5.998   4.206  14.116  0.00  0.00    +0.000 N 
ATOM     14  H   UNL     1       5.104   3.735  14.058  0.00  0.00    +0.000 HD
BRANCH  13  15
ATOM     15  C   UNL     1       6.777   4.238  12.898  0.00  0.00    +0.000 C 
BRANCH  15  16
ATOM     16  C   UNL     1       6.482   3.021  12.102  0.00  0.00    +0.000 A 
ATOM     17  N   UNL     1       5.299   2.531  11.787  0.00  0.00    +0.000 NA
ATOM     18  N   UNL     1       5.497   1.384  11.055  0.00  0.00    +0.000 NA
ATOM     19  C   UNL     1       6.792   1.202  10.939  0.00  0.00    +0.000 A 
ATOM     20  N   UNL     1       7.451   2.208  11.577  0.00  0.00    +0.000 N 
ATOM     21  H   UNL     1       8.450   2.329  11.647  0.00  0.00    +0.000 HD
ENDBRANCH  15  16
ENDBRANCH  13  15
ENDBRANCH   6  11
BRANCH   1  23
ATOM     22  C   UNL     1       1.409   2.623  21.761  0.00  0.00    +0.000 C 
ATOM     23  O   UNL     1       1.364   3.876  21.091  0.00  0.00    +0.000 OA
ENDBRANCH   1  23
TORSDOF 4
ENDMDL
MODEL 2
REMARK VINA RESULT:      -7.3      3.594      4.400
REMARK  Name = 
REMARK  5 active torsions:
REMARK  status: ('A' for Active; 'I' for Inactive)
REMARK    1  A    between atoms: C_1  and  O_2
REMARK    2  A    between atoms: O_2  and  C_3
REMARK    3  A    between atoms: C_8  and  C_9
REMARK    4  A    between atoms: N_11  and  C_12
REMARK    5  A    between atoms: C_12  and  C_13
REMARK                            x       y       z     vdW  Elec       q    Type
REMARK                         _______ _______ _______ _____ _____    ______ ____
ROOT
ATOM      1  C   UNL     1       1.115   9.148  19.969  0.00  0.00    +0.000 A 
ATOM      2  C   UNL     1       1.412   9.426  18.638  0.00  0.00    +0.000 A 
ATOM      3  C   UNL     1       2.121   8.496  17.877  0.00  0.00    +0.000 A 
ATOM      4  C   UNL     1       2.539   7.282  18.443  0.00  0.00    +0.000 A 
ATOM      5  C   UNL     1       3.243   6.325  17.696  0.00  0.00    +0.000 A 
ATOM      6  C   UNL     1       3.633   5.118  18.280  0.00  0.00    +0.000 A 
ATOM      7  C   UNL     1       3.294   4.926  19.610  0.00  0.00    +0.000 A 
ATOM      8  N   UNL     1       2.623   5.836  20.366  0.00  0.00    +0.000 NA
ATOM      9  C   UNL     1       2.244   6.992  19.791  0.00  0.00    +0.000 A 
ATOM     10  C   UNL     1       1.536   7.935  20.526  0.00  0.00    +0.000 A 
ENDROOT
BRANCH   6  11
ATOM     11  C   UNL     1       4.320   4.099  17.442  0.00  0.00    +0.000 C 
ATOM     12  O   UNL     1       4.192   2.906  17.706  0.00  0.00    +0.000 OA
ATOM     13  N   UNL     1       5.098   4.529  16.392  0.00  0.00    +0.000 N 
ATOM     14  H   UNL     1       5.056   5.475  16.034  0.00  0.00    +0.000 HD
BRANCH  13  15
ATOM     15  C   UNL     1       5.792   3.568  15.564  0.00  0.00    +0.000 C 
BRANCH  15  16
ATOM     16  C   UNL     1       6.659   4.294  14.602  0.00  0.00    +0.000 A 
ATOM     17  N   UNL     1       7.586   5.193  14.871  0.00  0.00    +0.000 NA
ATOM     18  N   UNL     1       8.126   5.613  13.679  0.00  0.00    +0.000 NA
ATOM     19  C   UNL     1       7.521   4.962  12.713  0.00  0.00    +0.000 A 
ATOM     20  N   UNL     1       6.594   4.119  13.245  0.00  0.00    +0.000 N 
ATOM     21  H   UNL     1       5.985   3.492  12.741  0.00  0.00    +0.000 HD
ENDBRANCH  15  16
ENDBRANCH  13  15
ENDBRANCH   6  11
BRANCH   1  23
ATOM     22  C   UNL     1      -0.399  10.962  20.223  0.00  0.00    +0.000 C 
ATOM     23  O   UNL     1       0.427   9.969  20.819  0.00  0.00    +0.000 OA
ENDBRANCH   1  23
TORSDOF 4
ENDMDL
MODEL 3
REMARK VINA RESULT:      -7.3      3.817      4.747
REMARK  Name = 
REMARK  5 active torsions:
REMARK  status: ('A' for Active; 'I' for Inactive)
REMARK    1  A    between atoms: C_1  and  O_2
REMARK    2  A    between atoms: O_2  and  C_3
REMARK    3  A    between atoms: C_8  and  C_9
REMARK    4  A    between atoms: N_11  and  C_12
REMARK    5  A    between atoms: C_12  and  C_13
REMARK                            x       y       z     vdW  Elec       q    Type
REMARK                         _______ _______ _______ _____ _____    ______ ____
ROOT
ATOM      1  C   UNL     1       0.656   9.510  19.603  0.00  0.00    +0.000 A 
ATOM      2  C   UNL     1       1.234   9.831  18.378  0.00  0.00    +0.000 A 
ATOM      3  C   UNL     1       2.194   8.986  17.821  0.00  0.00    +0.000 A 
ATOM      4  C   UNL     1       2.584   7.814  18.487  0.00  0.00    +0.000 A 
ATOM      5  C   UNL     1       3.538   6.941  17.943  0.00  0.00    +0.000 A 
ATOM      6  C   UNL     1       3.896   5.772  18.620  0.00  0.00    +0.000 A 
ATOM      7  C   UNL     1       3.270   5.533  19.832  0.00  0.00    +0.000 A 
ATOM      8  N   UNL     1       2.349   6.362  20.393  0.00  0.00    +0.000 NA
ATOM      9  C   UNL     1       2.005   7.480  19.729  0.00  0.00    +0.000 A 
ATOM     10  C   UNL     1       1.051   8.339  20.261  0.00  0.00    +0.000 A 
ENDROOT
BRANCH   6  11
ATOM     11  C   UNL     1       4.863   4.837  17.985  0.00  0.00    +0.000 C 
ATOM     12  O   UNL     1       4.508   3.697  17.695  0.00  0.00    +0.000 OA
ATOM     13  N   UNL     1       6.144   5.279  17.749  0.00  0.00    +0.000 N 
ATOM     14  H   UNL     1       6.400   6.257  17.787  0.00  0.00    +0.000 HD
BRANCH  13  15
ATOM     15  C   UNL     1       7.115   4.394  17.145  0.00  0.00    +0.000 C 
BRANCH  15  16
ATOM     16  C   UNL     1       7.000   4.482  15.668  0.00  0.00    +0.000 A 
ATOM     17  N   UNL     1       7.526   5.391  14.871  0.00  0.00    +0.000 NA
ATOM     18  N   UNL     1       7.148   5.095  13.582  0.00  0.00    +0.000 NA
ATOM     19  C   UNL     1       6.403   4.015  13.623  0.00  0.00    +0.000 A 
ATOM     20  N   UNL     1       6.286   3.591  14.911  0.00  0.00    +0.000 N 
ATOM     21  H   UNL     1       5.777   2.784  15.240  0.00  0.00    +0.000 HD
ENDBRANCH  15  16
ENDBRANCH  13  15
ENDBRANCH   6  11
BRANCH   1  23
ATOM     22  C   UNL     1       0.100  11.532  20.721  0.00  0.00    +0.000 C 
ATOM     23  O   UNL     1      -0.295  10.248  20.252  0.00  0.00    +0.000 OA
ENDBRANCH   1  23
TORSDOF 4
ENDMDL
MODEL 4
REMARK VINA RESULT:      -7.2      4.257      5.425
REMARK  Name = 
REMARK  5 active torsions:
REMARK  status: ('A' for Active; 'I' for Inactive)
REMARK    1  A    between atoms: C_1  and  O_2
REMARK    2  A    between atoms: O_2  and  C_3
REMARK    3  A    between atoms: C_8  and  C_9
REMARK    4  A    between atoms: N_11  and  C_12
REMARK    5  A    between atoms: C_12  and  C_13
REMARK                            x       y       z     vdW  Elec       q    Type
REMARK                         _______ _______ _______ _____ _____    ______ ____
ROOT
ATOM      1  C   UNL     1       0.079   9.848  20.730  0.00  0.00    +0.000 A 
ATOM      2  C   UNL     1       0.181   8.733  21.556  0.00  0.00    +0.000 A 
ATOM      3  C   UNL     1       0.994   7.663  21.180  0.00  0.00    +0.000 A 
ATOM      4  C   UNL     1       1.709   7.702  19.974  0.00  0.00    +0.000 A 
ATOM      5  C   UNL     1       2.543   6.645  19.579  0.00  0.00    +0.000 A 
ATOM      6  C   UNL     1       3.257   6.716  18.380  0.00  0.00    +0.000 A 
ATOM      7  C   UNL     1       3.095   7.864  17.621  0.00  0.00    +0.000 A 
ATOM      8  N   UNL     1       2.288   8.902  17.968  0.00  0.00    +0.000 NA
ATOM      9  C   UNL     1       1.612   8.827  19.129  0.00  0.00    +0.000 A 
ATOM     10  C   UNL     1       0.795   9.878  19.528  0.00  0.00    +0.000 A 
ENDROOT
BRANCH   6  11
ATOM     11  C   UNL     1       4.181   5.607  18.022  0.00  0.00    +0.000 C 
ATOM     12  O   UNL     1       3.724   4.515  17.694  0.00  0.00    +0.000 OA
ATOM     13  N   UNL     1       5.536   5.837  18.081  0.00  0.00    +0.000 N 
ATOM     14  H   UNL     1       5.929   6.767  18.147  0.00  0.00    +0.000 HD
BRANCH  13  15
ATOM     15  C   UNL     1       6.465   4.778  17.753  0.00  0.00    +0.000 C 
BRANCH  15  16
ATOM     16  C   UNL     1       6.719   4.792  16.291  0.00  0.00    +0.000 A 
ATOM     17  N   UNL     1       7.556   5.564  15.625  0.00  0.00    +0.000 NA
ATOM     18  N   UNL     1       7.454   5.248  14.291  0.00  0.00    +0.000 NA
ATOM     19  C   UNL     1       6.561   4.293  14.174  0.00  0.00    +0.000 A 
ATOM     20  N   UNL     1       6.076   3.971  15.404  0.00  0.00    +0.000 N 
ATOM     21  H   UNL     1       5.384   3.268  15.617  0.00  0.00    +0.000 HD
ENDBRANCH  15  16
ENDBRANCH  13  15
ENDBRANCH   6  11
BRANCH   1  23
ATOM     22  C   UNL     1       0.024  12.141  21.351  0.00  0.00    +0.000 C 
ATOM     23  O   UNL     1      -0.677  10.960  20.983  0.00  0.00    +0.000 OA
ENDBRANCH   1  23
TORSDOF 4
ENDMDL
MODEL 5
REMARK VINA RESULT:      -7.2      5.095      7.078
REMARK  Name = 
REMARK  5 active torsions:
REMARK  status: ('A' for Active; 'I' for Inactive)
REMARK    1  A    between atoms: C_1  and  O_2
REMARK    2  A    between atoms: O_2  and  C_3
REMARK    3  A    between atoms: C_8  and  C_9
REMARK    4  A    between atoms: N_11  and  C_12
REMARK    5  A    between atoms: C_12  and  C_13
REMARK                            x       y       z     vdW  Elec       q    Type
REMARK                         _______ _______ _______ _____ _____    ______ ____
ROOT
ATOM      1  C   UNL     1      -0.197  11.220  20.619  0.00  0.00    +0.000 A 
ATOM      2  C   UNL     1      -0.098  10.306  21.665  0.00  0.00    +0.000 A 
ATOM      3  C   UNL     1       0.587   9.106  21.475  0.00  0.00    +0.000 A 
ATOM      4  C   UNL     1       1.177   8.811  20.236  0.00  0.00    +0.000 A 
ATOM      5  C   UNL     1       1.882   7.616  20.023  0.00  0.00    +0.000 A 
ATOM      6  C   UNL     1       2.473   7.355  18.785  0.00  0.00    +0.000 A 
ATOM      7  C   UNL     1       2.325   8.321  17.802  0.00  0.00    +0.000 A 
ATOM      8  N   UNL     1       1.640   9.483  17.971  0.00  0.00    +0.000 NA
ATOM      9  C   UNL     1       1.082   9.729  19.170  0.00  0.00    +0.000 A 
ATOM     10  C   UNL     1       0.394  10.917  19.387  0.00  0.00    +0.000 A 
ENDROOT
BRANCH   6  11
ATOM     11  C   UNL     1       3.267   6.109  18.612  0.00  0.00    +0.000 C 
ATOM     12  O   UNL     1       3.476   5.671  17.483  0.00  0.00    +0.000 OA
ATOM     13  N   UNL     1       3.739   5.471  19.736  0.00  0.00    +0.000 N 
ATOM     14  H   UNL     1       3.758   5.912  20.646  0.00  0.00    +0.000 HD
BRANCH  13  15
ATOM     15  C   UNL     1       4.504   4.250  19.607  0.00  0.00    +0.000 C 
BRANCH  15  16
ATOM     16  C   UNL     1       5.873   4.582  19.142  0.00  0.00    +0.000 A 
ATOM     17  N   UNL     1       6.784   5.305  19.765  0.00  0.00    +0.000 NA
ATOM     18  N   UNL     1       7.897   5.368  18.961  0.00  0.00    +0.000 NA
ATOM     19  C   UNL     1       7.643   4.684  17.870  0.00  0.00    +0.000 A 
ATOM     20  N   UNL     1       6.385   4.168  17.941  0.00  0.00    +0.000 N 
ATOM     21  H   UNL     1       5.925   3.596  17.248  0.00  0.00    +0.000 HD
ENDBRANCH  15  16
ENDBRANCH  13  15
ENDBRANCH   6  11
BRANCH   1  23
ATOM     22  C   UNL     1      -2.038  12.554  19.927  0.00  0.00    +0.000 C 
ATOM     23  O   UNL     1      -0.834  12.429  20.676  0.00  0.00    +0.000 OA
ENDBRANCH   1  23
TORSDOF 4
ENDMDL
MODEL 6
REMARK VINA RESULT:      -7.0      4.230      5.312
REMARK  Name = 
REMARK  5 active torsions:
REMARK  status: ('A' for Active; 'I' for Inactive)
REMARK    1  A    between atoms: C_1  and  O_2
REMARK    2  A    between atoms: O_2  and  C_3
REMARK    3  A    between atoms: C_8  and  C_9
REMARK    4  A    between atoms: N_11  and  C_12
REMARK    5  A    between atoms: C_12  and  C_13
REMARK                            x       y       z     vdW  Elec       q    Type
REMARK                         _______ _______ _______ _____ _____    ______ ____
ROOT
ATOM      1  C   UNL     1       0.586  10.317  19.469  0.00  0.00    +0.000 A 
ATOM      2  C   UNL     1       1.213  10.418  18.230  0.00  0.00    +0.000 A 
ATOM      3  C   UNL     1       2.007   9.369  17.767  0.00  0.00    +0.000 A 
ATOM      4  C   UNL     1       2.182   8.211  18.541  0.00  0.00    +0.000 A 
ATOM      5  C   UNL     1       2.965   7.137  18.093  0.00  0.00    +0.000 A 
ATOM      6  C   UNL     1       3.108   5.990  18.878  0.00  0.00    +0.000 A 
ATOM      7  C   UNL     1       2.449   5.976  20.096  0.00  0.00    +0.000 A 
ATOM      8  N   UNL     1       1.690   7.003  20.565  0.00  0.00    +0.000 NA
ATOM      9  C   UNL     1       1.552   8.099  19.798  0.00  0.00    +0.000 A 
ATOM     10  C   UNL     1       0.765   9.159  20.235  0.00  0.00    +0.000 A 
ENDROOT
BRANCH   6  11
ATOM     11  C   UNL     1       3.894   4.845  18.345  0.00  0.00    +0.000 C 
ATOM     12  O   UNL     1       3.888   3.771  18.943  0.00  0.00    +0.000 OA
ATOM     13  N   UNL     1       4.621   5.027  17.192  0.00  0.00    +0.000 N 
ATOM     14  H   UNL     1       4.482   5.821  16.579  0.00  0.00    +0.000 HD
BRANCH  13  15
ATOM     15  C   UNL     1       5.407   3.940  16.651  0.00  0.00    +0.000 C 
BRANCH  15  16
ATOM     16  C   UNL     1       6.276   4.462  15.567  0.00  0.00    +0.000 A 
ATOM     17  N   UNL     1       7.297   5.288  15.679  0.00  0.00    +0.000 NA
ATOM     18  N   UNL     1       7.798   5.515  14.418  0.00  0.00    +0.000 NA
ATOM     19  C   UNL     1       7.074   4.824  13.570  0.00  0.00    +0.000 A 
ATOM     20  N   UNL     1       6.109   4.143  14.245  0.00  0.00    +0.000 N 
ATOM     21  H   UNL     1       5.413   3.527  13.851  0.00  0.00    +0.000 HD
ENDBRANCH  15  16
ENDBRANCH  13  15
ENDBRANCH   6  11
BRANCH   1  23
ATOM     22  C   UNL     1      -1.486  11.481  19.422  0.00  0.00    +0.000 C 
ATOM     23  O   UNL     1      -0.219  11.267  20.034  0.00  0.00    +0.000 OA
ENDBRANCH   1  23
TORSDOF 4
ENDMDL
MODEL 7
REMARK VINA RESULT:      -7.0      4.123      8.674
REMARK  Name = 
REMARK  5 active torsions:
REMARK  status: ('A' for Active; 'I' for Inactive)
REMARK    1  A    between atoms: C_1  and  O_2
REMARK    2  A    between atoms: O_2  and  C_3
REMARK    3  A    between atoms: C_8  and  C_9
REMARK    4  A    between atoms: N_11  and  C_12
REMARK    5  A    between atoms: C_12  and  C_13
REMARK                            x       y       z     vdW  Elec       q    Type
REMARK                         _______ _______ _______ _____ _____    ______ ____
ROOT
ATOM      1  C   UNL     1       5.828   4.513  15.236  0.00  0.00    +0.000 A 
ATOM      2  C   UNL     1       5.684   5.896  15.291  0.00  0.00    +0.000 A 
ATOM      3  C   UNL     1       4.887   6.472  16.280  0.00  0.00    +0.000 A 
ATOM      4  C   UNL     1       4.226   5.667  17.221  0.00  0.00    +0.000 A 
ATOM      5  C   UNL     1       3.429   6.222  18.233  0.00  0.00    +0.000 A 
ATOM      6  C   UNL     1       2.796   5.398  19.168  0.00  0.00    +0.000 A 
ATOM      7  C   UNL     1       2.995   4.033  19.037  0.00  0.00    +0.000 A 
ATOM      8  N   UNL     1       3.752   3.462  18.063  0.00  0.00    +0.000 NA
ATOM      9  C   UNL     1       4.365   4.265  17.174  0.00  0.00    +0.000 A 
ATOM     10  C   UNL     1       5.165   3.717  16.178  0.00  0.00    +0.000 A 
ENDROOT
BRANCH   6  11
ATOM     11  C   UNL     1       2.010   6.022  20.265  0.00  0.00    +0.000 C 
ATOM     12  O   UNL     1       1.472   5.311  21.110  0.00  0.00    +0.000 OA
ATOM     13  N   UNL     1       1.898   7.393  20.296  0.00  0.00    +0.000 N 
ATOM     14  H   UNL     1       2.489   8.001  19.743  0.00  0.00    +0.000 HD
BRANCH  13  15
ATOM     15  C   UNL     1       1.131   8.034  21.341  0.00  0.00    +0.000 C 
BRANCH  15  16
ATOM     16  C   UNL     1       1.057   9.490  21.064  0.00  0.00    +0.000 A 
ATOM     17  N   UNL     1       1.015  10.476  21.939  0.00  0.00    +0.000 NA
ATOM     18  N   UNL     1       0.934  11.658  21.242  0.00  0.00    +0.000 NA
ATOM     19  C   UNL     1       0.930  11.368  19.962  0.00  0.00    +0.000 A 
ATOM     20  N   UNL     1       1.011  10.019  19.802  0.00  0.00    +0.000 N 
ATOM     21  H   UNL     1       1.032   9.512  18.929  0.00  0.00    +0.000 HD
ENDBRANCH  15  16
ENDBRANCH  13  15
ENDBRANCH   6  11
BRANCH   1  23
ATOM     22  C   UNL     1       5.984   3.585  13.054  0.00  0.00    +0.000 C 
ATOM     23  O   UNL     1       6.580   3.826  14.323  0.00  0.00    +0.000 OA
ENDBRANCH   1  23
TORSDOF 4
ENDMDL
MODEL 8
REMARK VINA RESULT:      -7.0      4.888      6.112
REMARK  Name = 
REMARK  5 active torsions:
REMARK  status: ('A' for Active; 'I' for Inactive)
REMARK    1  A    between atoms: C_1  and  O_2
REMARK    2  A    between atoms: O_2  and  C_3
REMARK    3  A    between atoms: C_8  and  C_9
REMARK    4  A    between atoms: N_11  and  C_12
REMARK    5  A    between atoms: C_12  and  C_13
REMARK                            x       y       z     vdW  Elec       q    Type
REMARK                         _______ _______ _______ _____ _____    ______ ____
ROOT
ATOM      1  C   UNL     1      -0.172  11.010  20.233  0.00  0.00    +0.000 A 
ATOM      2  C   UNL     1      -0.048  10.143  21.315  0.00  0.00    +0.000 A 
ATOM      3  C   UNL     1       0.700   8.973  21.184  0.00  0.00    +0.000 A 
ATOM      4  C   UNL     1       1.329   8.661  19.969  0.00  0.00    +0.000 A 
ATOM      5  C   UNL     1       2.096   7.497  19.816  0.00  0.00    +0.000 A 
ATOM      6  C   UNL     1       2.725   7.219  18.600  0.00  0.00    +0.000 A 
ATOM      7  C   UNL     1       2.548   8.137  17.578  0.00  0.00    +0.000 A 
ATOM      8  N   UNL     1       1.803   9.268  17.688  0.00  0.00    +0.000 NA
ATOM      9  C   UNL     1       1.209   9.532  18.867  0.00  0.00    +0.000 A 
ATOM     10  C   UNL     1       0.458  10.691  19.024  0.00  0.00    +0.000 A 
ENDROOT
BRANCH   6  11
ATOM     11  C   UNL     1       3.584   6.009  18.491  0.00  0.00    +0.000 C 
ATOM     12  O   UNL     1       3.197   4.943  18.963  0.00  0.00    +0.000 OA
ATOM     13  N   UNL     1       4.804   6.124  17.867  0.00  0.00    +0.000 N 
ATOM     14  H   UNL     1       5.053   6.924  17.298  0.00  0.00    +0.000 HD
BRANCH  13  15
ATOM     15  C   UNL     1       5.671   4.973  17.753  0.00  0.00    +0.000 C 
BRANCH  15  16
ATOM     16  C   UNL     1       6.308   4.975  16.412  0.00  0.00    +0.000 A 
ATOM     17  N   UNL     1       7.250   5.783  15.968  0.00  0.00    +0.000 NA
ATOM     18  N   UNL     1       7.527   5.437  14.667  0.00  0.00    +0.000 NA
ATOM     19  C   UNL     1       6.750   4.428  14.348  0.00  0.00    +0.000 A 
ATOM     20  N   UNL     1       5.970   4.100  15.414  0.00  0.00    +0.000 N 
ATOM     21  H   UNL     1       5.284   3.361  15.459  0.00  0.00    +0.000 HD
ENDBRANCH  15  16
ENDBRANCH  13  15
ENDBRANCH   6  11
BRANCH   1  23
ATOM     22  C   UNL     1      -1.916  12.312  21.186  0.00  0.00    +0.000 C 
ATOM     23  O   UNL     1      -0.870  12.186  20.230  0.00  0.00    +0.000 OA
ENDBRANCH   1  23
TORSDOF 4
ENDMDL
MODEL 9
REMARK VINA RESULT:      -7.0      5.309      7.312
REMARK  Name = 
REMARK  5 active torsions:
REMARK  status: ('A' for Active; 'I' for Inactive)
REMARK    1  A    between atoms: C_1  and  O_2
REMARK    2  A    between atoms: O_2  and  C_3
REMARK    3  A    between atoms: C_8  and  C_9
REMARK    4  A    between atoms: N_11  and  C_12
REMARK    5  A    between atoms: C_12  and  C_13
REMARK                            x       y       z     vdW  Elec       q    Type
REMARK                         _______ _______ _______ _____ _____    ______ ____
ROOT
ATOM      1  C   UNL     1      -0.701  10.724  21.931  0.00  0.00    +0.000 A 
ATOM      2  C   UNL     1      -0.109   9.733  22.710  0.00  0.00    +0.000 A 
ATOM      3  C   UNL     1       0.756   8.812  22.120  0.00  0.00    +0.000 A 
ATOM      4  C   UNL     1       1.035   8.874  20.746  0.00  0.00    +0.000 A 
ATOM      5  C   UNL     1       1.911   7.967  20.131  0.00  0.00    +0.000 A 
ATOM      6  C   UNL     1       2.183   8.062  18.764  0.00  0.00    +0.000 A 
ATOM      7  C   UNL     1       1.550   9.079  18.067  0.00  0.00    +0.000 A 
ATOM      8  N   UNL     1       0.688   9.967  18.629  0.00  0.00    +0.000 NA
ATOM      9  C   UNL     1       0.439   9.873  19.948  0.00  0.00    +0.000 A 
ATOM     10  C   UNL     1      -0.419  10.779  20.561  0.00  0.00    +0.000 A 
ENDROOT
BRANCH   6  11
ATOM     11  C   UNL     1       3.165   7.125  18.156  0.00  0.00    +0.000 C 
ATOM     12  O   UNL     1       3.757   7.445  17.128  0.00  0.00    +0.000 OA
ATOM     13  N   UNL     1       3.376   5.910  18.765  0.00  0.00    +0.000 N 
ATOM     14  H   UNL     1       3.063   5.709  19.706  0.00  0.00    +0.000 HD
BRANCH  13  15
ATOM     15  C   UNL     1       4.314   4.968  18.195  0.00  0.00    +0.000 C 
BRANCH  15  16
ATOM     16  C   UNL     1       5.679   5.287  18.685  0.00  0.00    +0.000 A 
ATOM     17  N   UNL     1       6.230   4.926  19.827  0.00  0.00    +0.000 NA
ATOM     18  N   UNL     1       7.498   5.457  19.871  0.00  0.00    +0.000 NA
ATOM     19  C   UNL     1       7.691   6.126  18.758  0.00  0.00    +0.000 A 
ATOM     20  N   UNL     1       6.577   6.043  17.980  0.00  0.00    +0.000 N 
ATOM     21  H   UNL     1       6.443   6.455  17.069  0.00  0.00    +0.000 HD
ENDBRANCH  15  16
ENDBRANCH  13  15
ENDBRANCH   6  11
BRANCH   1  23
ATOM     22  C   UNL     1      -0.990  12.940  22.739  0.00  0.00    +0.000 C 
ATOM     23  O   UNL     1      -1.561  11.686  22.385  0.00  0.00    +0.000 OA
ENDBRANCH   1  23
TORSDOF 4
ENDMDL
