MODEL 1
REMARK VINA RESULT:      -6.0      0.000      0.000
REMARK  Name = 
REMARK  8 active torsions:
REMARK  status: ('A' for Active; 'I' for Inactive)
REMARK    1  A    between atoms: C_1  and  O_2
REMARK    2  A    between atoms: O_2  and  C_3
REMARK    3  A    between atoms: C_8  and  C_9
REMARK    4  A    between atoms: C_9  and  C_10
REMARK    5  A    between atoms: C_9  and  O_11
REMARK    6  A    between atoms: C_9  and  C_12
REMARK    7  A    between atoms: C_12  and  C_13
REMARK    8  A    between atoms: C_13  and  O_15
REMARK                            x       y       z     vdW  Elec       q    Type
REMARK                         _______ _______ _______ _____ _____    ______ ____
ROOT
ATOM      1  C   UNL     1       4.998   5.034  17.519  0.00  0.00    +0.000 C 
ATOM      2  C   UNL     1       5.383   6.530  17.563  0.00  0.00    +0.000 C 
ENDROOT
BRANCH   1   8
ATOM      3  C   UNL     1       2.792   3.663  18.230  0.00  0.00    +0.000 C 
ATOM      4  C   UNL     1       2.975   3.745  19.752  0.00  0.00    +0.000 C 
ATOM      5  C   UNL     1       2.368   5.027  20.321  0.00  0.00    +0.000 C 
ATOM      6  C   UNL     1       2.771   6.295  19.573  0.00  0.00    +0.000 C 
ATOM      7  C   UNL     1       2.671   6.139  18.057  0.00  0.00    +0.000 C 
ATOM      8  C   UNL     1       3.417   4.897  17.511  0.00  0.00    +0.000 C 
BRANCH   3  10
ATOM      9  C   UNL     1       3.609   1.426  18.578  0.00  0.00    +0.000 C 
ATOM     10  O   UNL     1       3.283   2.453  17.651  0.00  0.00    +0.000 OA
ENDBRANCH   3  10
ENDBRANCH   1   8
BRANCH   1  11
ATOM     11  O   UNL     1       5.539   4.425  18.696  0.00  0.00    +0.000 OA
ATOM     12  H   UNL     1       5.012   4.733  19.463  0.00  0.00    +0.000 HD
ENDBRANCH   1  11
BRANCH   1  13
ATOM     13  C   UNL     1       5.632   4.337  16.294  0.00  0.00    +0.000 C 
BRANCH  13  14
ATOM     14  C   UNL     1       7.087   4.653  16.032  0.00  0.00    +0.000 C 
ATOM     15  O   UNL     1       7.509   5.345  15.117  0.00  0.00    +0.000 OA
BRANCH  14  16
ATOM     16  O   UNL     1       7.901   4.135  16.983  0.00  0.00    +0.000 OA
ATOM     17  H   UNL     1       8.664   3.648  16.611  0.00  0.00    +0.000 HD
ENDBRANCH  14  16
ENDBRANCH  13  14
ENDBRANCH   1  13
TORSDOF 6
ENDMDL
MODEL 2
REMARK VINA RESULT:      -5.9      1.775      2.518
REMARK  Name = 
REMARK  8 active torsions:
REMARK  status: ('A' for Active; 'I' for Inactive)
REMARK    1  A    between atoms: C_1  and  O_2
REMARK    2  A    between atoms: O_2  and  C_3
REMARK    3  A    between atoms: C_8  and  C_9
REMARK    4  A    between atoms: C_9  and  C_10
REMARK    5  A    between atoms: C_9  and  O_11
REMARK    6  A    between atoms: C_9  and  C_12
REMARK    7  A    between atoms: C_12  and  C_13
REMARK    8  A    between atoms: C_13  and  O_15
REMARK                            x       y       z     vdW  Elec       q    Type
REMARK                         _______ _______ _______ _____ _____    ______ ____
ROOT
ATOM      1  C   UNL     1       3.491   4.724  18.516  0.00  0.00    +0.000 C 
ATOM      2  C   UNL     1       2.353   5.699  18.141  0.00  0.00    +0.000 C 
ENDROOT
BRANCH   1   8
ATOM      3  C   UNL     1       3.341   2.399  19.865  0.00  0.00    +0.000 C 
ATOM      4  C   UNL     1       2.754   2.951  21.172  0.00  0.00    +0.000 C 
ATOM      5  C   UNL     1       1.229   3.022  21.114  0.00  0.00    +0.000 C 
ATOM      6  C   UNL     1       0.681   3.684  19.853  0.00  0.00    +0.000 C 
ATOM      7  C   UNL     1       1.362   3.180  18.583  0.00  0.00    +0.000 C 
ATOM      8  C   UNL     1       2.907   3.253  18.636  0.00  0.00    +0.000 C 
BRANCH   3  10
ATOM      9  C   UNL     1       5.264   1.367  20.881  0.00  0.00    +0.000 C 
ATOM     10  O   UNL     1       4.762   2.248  19.885  0.00  0.00    +0.000 OA
ENDBRANCH   3  10
ENDBRANCH   1   8
BRANCH   1  11
ATOM     11  O   UNL     1       4.012   5.151  19.779  0.00  0.00    +0.000 OA
ATOM     12  H   UNL     1       3.320   5.682  20.226  0.00  0.00    +0.000 HD
ENDBRANCH   1  11
BRANCH   1  13
ATOM     13  C   UNL     1       4.640   4.794  17.485  0.00  0.00    +0.000 C 
BRANCH  13  14
ATOM     14  C   UNL     1       6.007   5.126  18.038  0.00  0.00    +0.000 C 
ATOM     15  O   UNL     1       6.493   6.245  18.106  0.00  0.00    +0.000 OA
BRANCH  14  16
ATOM     16  O   UNL     1       6.636   4.033  18.533  0.00  0.00    +0.000 OA
ATOM     17  H   UNL     1       7.571   3.968  18.252  0.00  0.00    +0.000 HD
ENDBRANCH  14  16
ENDBRANCH  13  14
ENDBRANCH   1  13
TORSDOF 6
ENDMDL
MODEL 3
REMARK VINA RESULT:      -5.9      1.658      3.984
REMARK  Name = 
REMARK  8 active torsions:
REMARK  status: ('A' for Active; 'I' for Inactive)
REMARK    1  A    between atoms: C_1  and  O_2
REMARK    2  A    between atoms: O_2  and  C_3
REMARK    3  A    between atoms: C_8  and  C_9
REMARK    4  A    between atoms: C_9  and  C_10
REMARK    5  A    between atoms: C_9  and  O_11
REMARK    6  A    between atoms: C_9  and  C_12
REMARK    7  A    between atoms: C_12  and  C_13
REMARK    8  A    between atoms: C_13  and  O_15
REMARK                            x       y       z     vdW  Elec       q    Type
REMARK                         _______ _______ _______ _____ _____    ______ ____
ROOT
ATOM      1  C   UNL     1       3.079   3.707  18.379  0.00  0.00    +0.000 C 
ATOM      2  C   UNL     1       1.703   4.166  17.849  0.00  0.00    +0.000 C 
ENDROOT
BRANCH   1   8
ATOM      3  C   UNL     1       5.100   5.463  18.675  0.00  0.00    +0.000 C 
ATOM      4  C   UNL     1       4.915   6.221  17.353  0.00  0.00    +0.000 C 
ATOM      5  C   UNL     1       3.902   7.356  17.495  0.00  0.00    +0.000 C 
ATOM      6  C   UNL     1       2.595   6.946  18.169  0.00  0.00    +0.000 C 
ATOM      7  C   UNL     1       2.820   6.108  19.425  0.00  0.00    +0.000 C 
ATOM      8  C   UNL     1       3.748   4.889  19.200  0.00  0.00    +0.000 C 
BRANCH   3  10
ATOM      9  C   UNL     1       7.214   4.714  17.803  0.00  0.00    +0.000 C 
ATOM     10  O   UNL     1       6.086   4.431  18.620  0.00  0.00    +0.000 OA
ENDBRANCH   3  10
ENDBRANCH   1   8
BRANCH   1  11
ATOM     11  O   UNL     1       3.883   3.384  17.238  0.00  0.00    +0.000 OA
ATOM     12  H   UNL     1       3.445   2.650  16.759  0.00  0.00    +0.000 HD
ENDBRANCH   1  11
BRANCH   1  13
ATOM     13  C   UNL     1       2.944   2.429  19.236  0.00  0.00    +0.000 C 
BRANCH  13  14
ATOM     14  C   UNL     1       4.220   1.658  19.483  0.00  0.00    +0.000 C 
ATOM     15  O   UNL     1       4.987   1.835  20.418  0.00  0.00    +0.000 OA
BRANCH  14  16
ATOM     16  O   UNL     1       4.403   0.669  18.574  0.00  0.00    +0.000 OA
ATOM     17  H   UNL     1       3.635   0.547  17.981  0.00  0.00    +0.000 HD
ENDBRANCH  14  16
ENDBRANCH  13  14
ENDBRANCH   1  13
TORSDOF 6
ENDMDL
MODEL 4
REMARK VINA RESULT:      -5.9      1.648      2.854
REMARK  Name = 
REMARK  8 active torsions:
REMARK  status: ('A' for Active; 'I' for Inactive)
REMARK    1  A    between atoms: C_1  and  O_2
REMARK    2  A    between atoms: O_2  and  C_3
REMARK    3  A    between atoms: C_8  and  C_9
REMARK    4  A    between atoms: C_9  and  C_10
REMARK    5  A    between atoms: C_9  and  O_11
REMARK    6  A    between atoms: C_9  and  C_12
REMARK    7  A    between atoms: C_12  and  C_13
REMARK    8  A    between atoms: C_13  and  O_15
REMARK                            x       y       z     vdW  Elec       q    Type
REMARK                         _______ _______ _______ _____ _____    ______ ____
ROOT
ATOM      1  C   UNL     1       4.238   5.117  18.915  0.00  0.00    +0.000 C 
ATOM      2  C   UNL     1       3.346   5.948  19.864  0.00  0.00    +0.000 C 
ENDROOT
BRANCH   1   8
ATOM      3  C   UNL     1       3.784   3.414  16.879  0.00  0.00    +0.000 C 
ATOM      4  C   UNL     1       3.412   2.181  17.715  0.00  0.00    +0.000 C 
ATOM      5  C   UNL     1       1.923   2.170  18.063  0.00  0.00    +0.000 C 
ATOM      6  C   UNL     1       1.403   3.489  18.627  0.00  0.00    +0.000 C 
ATOM      7  C   UNL     1       1.880   4.698  17.826  0.00  0.00    +0.000 C 
ATOM      8  C   UNL     1       3.413   4.738  17.613  0.00  0.00    +0.000 C 
BRANCH   3  10
ATOM      9  C   UNL     1       5.414   4.193  15.288  0.00  0.00    +0.000 C 
ATOM     10  O   UNL     1       5.152   3.445  16.468  0.00  0.00    +0.000 OA
ENDBRANCH   3  10
ENDBRANCH   1   8
BRANCH   1  11
ATOM     11  O   UNL     1       4.614   3.931  19.623  0.00  0.00    +0.000 OA
ATOM     12  H   UNL     1       3.840   3.329  19.634  0.00  0.00    +0.000 HD
ENDBRANCH   1  11
BRANCH   1  13
ATOM     13  C   UNL     1       5.532   5.884  18.561  0.00  0.00    +0.000 C 
BRANCH  13  14
ATOM     14  C   UNL     1       6.823   5.261  19.040  0.00  0.00    +0.000 C 
ATOM     15  O   UNL     1       7.380   5.508  20.099  0.00  0.00    +0.000 OA
BRANCH  14  16
ATOM     16  O   UNL     1       7.283   4.317  18.184  0.00  0.00    +0.000 OA
ATOM     17  H   UNL     1       6.771   4.272  17.352  0.00  0.00    +0.000 HD
ENDBRANCH  14  16
ENDBRANCH  13  14
ENDBRANCH   1  13
TORSDOF 6
ENDMDL
MODEL 5
REMARK VINA RESULT:      -5.8      1.226      1.484
REMARK  Name = 
REMARK  8 active torsions:
REMARK  status: ('A' for Active; 'I' for Inactive)
REMARK    1  A    between atoms: C_1  and  O_2
REMARK    2  A    between atoms: O_2  and  C_3
REMARK    3  A    between atoms: C_8  and  C_9
REMARK    4  A    between atoms: C_9  and  C_10
REMARK    5  A    between atoms: C_9  and  O_11
REMARK    6  A    between atoms: C_9  and  C_12
REMARK    7  A    between atoms: C_12  and  C_13
REMARK    8  A    between atoms: C_13  and  O_15
REMARK                            x       y       z     vdW  Elec       q    Type
REMARK                         _______ _______ _______ _____ _____    ______ ____
ROOT
ATOM      1  C   UNL     1       4.976   4.186  17.671  0.00  0.00    +0.000 C 
ATOM      2  C   UNL     1       4.498   5.651  17.789  0.00  0.00    +0.000 C 
ENDROOT
BRANCH   1   8
ATOM      3  C   UNL     1       3.434   2.510  19.107  0.00  0.00    +0.000 C 
ATOM      4  C   UNL     1       2.972   3.512  20.175  0.00  0.00    +0.000 C 
ATOM      5  C   UNL     1       1.728   4.277  19.724  0.00  0.00    +0.000 C 
ATOM      6  C   UNL     1       1.831   4.863  18.319  0.00  0.00    +0.000 C 
ATOM      7  C   UNL     1       2.390   3.867  17.306  0.00  0.00    +0.000 C 
ATOM      8  C   UNL     1       3.724   3.215  17.747  0.00  0.00    +0.000 C 
BRANCH   3  10
ATOM      9  C   UNL     1       4.747   1.593  20.904  0.00  0.00    +0.000 C 
ATOM     10  O   UNL     1       4.555   1.718  19.501  0.00  0.00    +0.000 OA
ENDBRANCH   3  10
ENDBRANCH   1   8
BRANCH   1  11
ATOM     11  O   UNL     1       5.856   3.941  18.774  0.00  0.00    +0.000 OA
ATOM     12  H   UNL     1       6.753   4.241  18.516  0.00  0.00    +0.000 HD
ENDBRANCH   1  11
BRANCH   1  13
ATOM     13  C   UNL     1       5.781   3.971  16.370  0.00  0.00    +0.000 C 
BRANCH  13  14
ATOM     14  C   UNL     1       7.113   4.682  16.289  0.00  0.00    +0.000 C 
ATOM     15  O   UNL     1       7.344   5.682  15.627  0.00  0.00    +0.000 OA
BRANCH  14  16
ATOM     16  O   UNL     1       8.039   4.124  17.105  0.00  0.00    +0.000 OA
ATOM     17  H   UNL     1       7.648   3.556  17.799  0.00  0.00    +0.000 HD
ENDBRANCH  14  16
ENDBRANCH  13  14
ENDBRANCH   1  13
TORSDOF 6
ENDMDL
MODEL 6
REMARK VINA RESULT:      -5.7      2.576      5.343
REMARK  Name = 
REMARK  8 active torsions:
REMARK  status: ('A' for Active; 'I' for Inactive)
REMARK    1  A    between atoms: C_1  and  O_2
REMARK    2  A    between atoms: O_2  and  C_3
REMARK    3  A    between atoms: C_8  and  C_9
REMARK    4  A    between atoms: C_9  and  C_10
REMARK    5  A    between atoms: C_9  and  O_11
REMARK    6  A    between atoms: C_9  and  C_12
REMARK    7  A    between atoms: C_12  and  C_13
REMARK    8  A    between atoms: C_13  and  O_15
REMARK                            x       y       z     vdW  Elec       q    Type
REMARK                         _______ _______ _______ _____ _____    ______ ____
ROOT
ATOM      1  C   UNL     1       3.286   4.493  19.780  0.00  0.00    +0.000 C 
ATOM      2  C   UNL     1       3.916   3.083  19.735  0.00  0.00    +0.000 C 
ENDROOT
BRANCH   1   8
ATOM      3  C   UNL     1       2.956   6.258  17.773  0.00  0.00    +0.000 C 
ATOM      4  C   UNL     1       4.434   6.428  17.397  0.00  0.00    +0.000 C 
ATOM      5  C   UNL     1       4.882   5.365  16.394  0.00  0.00    +0.000 C 
ATOM      6  C   UNL     1       4.494   3.940  16.779  0.00  0.00    +0.000 C 
ATOM      7  C   UNL     1       3.044   3.832  17.244  0.00  0.00    +0.000 C 
ATOM      8  C   UNL     1       2.672   4.841  18.358  0.00  0.00    +0.000 C 
BRANCH   3  10
ATOM      9  C   UNL     1       2.196   8.525  18.056  0.00  0.00    +0.000 C 
ATOM     10  O   UNL     1       2.463   7.265  18.659  0.00  0.00    +0.000 OA
ENDBRANCH   3  10
ENDBRANCH   1   8
BRANCH   1  11
ATOM     11  O   UNL     1       4.336   5.412  20.101  0.00  0.00    +0.000 OA
ATOM     12  H   UNL     1       4.512   5.345  21.063  0.00  0.00    +0.000 HD
ENDBRANCH   1  11
BRANCH   1  13
ATOM     13  C   UNL     1       2.220   4.587  20.894  0.00  0.00    +0.000 C 
BRANCH  13  14
ATOM     14  C   UNL     1       1.464   3.314  21.197  0.00  0.00    +0.000 C 
ATOM     15  O   UNL     1       1.670   2.575  22.148  0.00  0.00    +0.000 OA
BRANCH  14  16
ATOM     16  O   UNL     1       0.453   3.101  20.321  0.00  0.00    +0.000 OA
ATOM     17  H   UNL     1      -0.302   2.619  20.716  0.00  0.00    +0.000 HD
ENDBRANCH  14  16
ENDBRANCH  13  14
ENDBRANCH   1  13
TORSDOF 6
ENDMDL
MODEL 7
REMARK VINA RESULT:      -5.7      2.139      4.794
REMARK  Name = 
REMARK  8 active torsions:
REMARK  status: ('A' for Active; 'I' for Inactive)
REMARK    1  A    between atoms: C_1  and  O_2
REMARK    2  A    between atoms: O_2  and  C_3
REMARK    3  A    between atoms: C_8  and  C_9
REMARK    4  A    between atoms: C_9  and  C_10
REMARK    5  A    between atoms: C_9  and  O_11
REMARK    6  A    between atoms: C_9  and  C_12
REMARK    7  A    between atoms: C_12  and  C_13
REMARK    8  A    between atoms: C_13  and  O_15
REMARK                            x       y       z     vdW  Elec       q    Type
REMARK                         _______ _______ _______ _____ _____    ______ ____
ROOT
ATOM      1  C   UNL     1       3.884   3.319  19.162  0.00  0.00    +0.000 C 
ATOM      2  C   UNL     1       4.099   3.341  17.632  0.00  0.00    +0.000 C 
ENDROOT
BRANCH   1   8
ATOM      3  C   UNL     1       5.261   5.633  19.219  0.00  0.00    +0.000 C 
ATOM      4  C   UNL     1       5.081   6.021  17.745  0.00  0.00    +0.000 C 
ATOM      5  C   UNL     1       3.781   6.795  17.525  0.00  0.00    +0.000 C 
ATOM      6  C   UNL     1       2.553   6.144  18.155  0.00  0.00    +0.000 C 
ATOM      7  C   UNL     1       2.804   5.680  19.588  0.00  0.00    +0.000 C 
ATOM      8  C   UNL     1       4.059   4.787  19.740  0.00  0.00    +0.000 C 
BRANCH   3  10
ATOM      9  C   UNL     1       7.650   5.570  18.939  0.00  0.00    +0.000 C 
ATOM     10  O   UNL     1       6.492   4.964  19.497  0.00  0.00    +0.000 OA
ENDBRANCH   3  10
ENDBRANCH   1   8
BRANCH   1  11
ATOM     11  O   UNL     1       4.880   2.451  19.714  0.00  0.00    +0.000 OA
ATOM     12  H   UNL     1       5.085   1.764  19.046  0.00  0.00    +0.000 HD
ENDBRANCH   1  11
BRANCH   1  13
ATOM     13  C   UNL     1       2.499   2.733  19.516  0.00  0.00    +0.000 C 
BRANCH  13  14
ATOM     14  C   UNL     1       2.175   2.645  20.990  0.00  0.00    +0.000 C 
ATOM     15  O   UNL     1       2.980   2.424  21.882  0.00  0.00    +0.000 OA
BRANCH  14  16
ATOM     16  O   UNL     1       0.871   2.913  21.242  0.00  0.00    +0.000 OA
ATOM     17  H   UNL     1       0.592   2.650  22.142  0.00  0.00    +0.000 HD
ENDBRANCH  14  16
ENDBRANCH  13  14
ENDBRANCH   1  13
TORSDOF 6
ENDMDL
MODEL 8
REMARK VINA RESULT:      -5.7      2.074      2.371
REMARK  Name = 
REMARK  8 active torsions:
REMARK  status: ('A' for Active; 'I' for Inactive)
REMARK    1  A    between atoms: C_1  and  O_2
REMARK    2  A    between atoms: O_2  and  C_3
REMARK    3  A    between atoms: C_8  and  C_9
REMARK    4  A    between atoms: C_9  and  C_10
REMARK    5  A    between atoms: C_9  and  O_11
REMARK    6  A    between atoms: C_9  and  C_12
REMARK    7  A    between atoms: C_12  and  C_13
REMARK    8  A    between atoms: C_13  and  O_15
REMARK                            x       y       z     vdW  Elec       q    Type
REMARK                         _______ _______ _______ _____ _____    ______ ____
ROOT
ATOM      1  C   UNL     1       5.213   5.076  18.256  0.00  0.00    +0.000 C 
ATOM      2  C   UNL     1       4.764   6.110  17.199  0.00  0.00    +0.000 C 
ENDROOT
BRANCH   1   8
ATOM      3  C   UNL     1       3.962   2.932  19.300  0.00  0.00    +0.000 C 
ATOM      4  C   UNL     1       2.860   3.682  20.062  0.00  0.00    +0.000 C 
ATOM      5  C   UNL     1       1.651   3.959  19.168  0.00  0.00    +0.000 C 
ATOM      6  C   UNL     1       2.001   4.568  17.814  0.00  0.00    +0.000 C 
ATOM      7  C   UNL     1       3.169   3.856  17.134  0.00  0.00    +0.000 C 
ATOM      8  C   UNL     1       4.421   3.719  18.035  0.00  0.00    +0.000 C 
BRANCH   3  10
ATOM      9  C   UNL     1       4.970   1.372  20.830  0.00  0.00    +0.000 C 
ATOM     10  O   UNL     1       5.091   2.588  20.104  0.00  0.00    +0.000 OA
ENDBRANCH   3  10
ENDBRANCH   1   8
BRANCH   1  11
ATOM     11  O   UNL     1       4.900   5.624  19.541  0.00  0.00    +0.000 OA
ATOM     12  H   UNL     1       4.833   6.597  19.445  0.00  0.00    +0.000 HD
ENDBRANCH   1  11
BRANCH   1  13
ATOM     13  C   UNL     1       6.741   4.854  18.198  0.00  0.00    +0.000 C 
BRANCH  13  14
ATOM     14  C   UNL     1       7.583   5.837  18.979  0.00  0.00    +0.000 C 
ATOM     15  O   UNL     1       8.024   6.893  18.550  0.00  0.00    +0.000 OA
BRANCH  14  16
ATOM     16  O   UNL     1       7.749   5.454  20.268  0.00  0.00    +0.000 OA
ATOM     17  H   UNL     1       8.688   5.341  20.517  0.00  0.00    +0.000 HD
ENDBRANCH  14  16
ENDBRANCH  13  14
ENDBRANCH   1  13
TORSDOF 6
ENDMDL
MODEL 9
REMARK VINA RESULT:      -5.7      2.379      4.658
REMARK  Name = 
REMARK  8 active torsions:
REMARK  status: ('A' for Active; 'I' for Inactive)
REMARK    1  A    between atoms: C_1  and  O_2
REMARK    2  A    between atoms: O_2  and  C_3
REMARK    3  A    between atoms: C_8  and  C_9
REMARK    4  A    between atoms: C_9  and  C_10
REMARK    5  A    between atoms: C_9  and  O_11
REMARK    6  A    between atoms: C_9  and  C_12
REMARK    7  A    between atoms: C_12  and  C_13
REMARK    8  A    between atoms: C_13  and  O_15
REMARK                            x       y       z     vdW  Elec       q    Type
REMARK                         _______ _______ _______ _____ _____    ______ ____
ROOT
ATOM      1  C   UNL     1       2.473   5.141  19.100  0.00  0.00    +0.000 C 
ATOM      2  C   UNL     1       2.609   6.610  18.643  0.00  0.00    +0.000 C 
ENDROOT
BRANCH   1   8
ATOM      3  C   UNL     1       4.182   3.440  17.902  0.00  0.00    +0.000 C 
ATOM      4  C   UNL     1       4.276   4.156  16.547  0.00  0.00    +0.000 C 
ATOM      5  C   UNL     1       5.355   5.238  16.560  0.00  0.00    +0.000 C 
ATOM      6  C   UNL     1       5.283   6.178  17.760  0.00  0.00    +0.000 C 
ATOM      7  C   UNL     1       5.088   5.432  19.078  0.00  0.00    +0.000 C 
ATOM      8  C   UNL     1       3.898   4.442  19.061  0.00  0.00    +0.000 C 
BRANCH   3  10
ATOM      9  C   UNL     1       3.556   1.299  18.804  0.00  0.00    +0.000 C 
ATOM     10  O   UNL     1       3.234   2.372  17.929  0.00  0.00    +0.000 OA
ENDBRANCH   3  10
ENDBRANCH   1   8
BRANCH   1  11
ATOM     11  O   UNL     1       1.584   4.496  18.182  0.00  0.00    +0.000 OA
ATOM     12  H   UNL     1       0.675   4.570  18.541  0.00  0.00    +0.000 HD
ENDBRANCH   1  11
BRANCH   1  13
ATOM     13  C   UNL     1       1.840   5.056  20.507  0.00  0.00    +0.000 C 
BRANCH  13  14
ATOM     14  C   UNL     1       1.638   3.664  21.060  0.00  0.00    +0.000 C 
ATOM     15  O   UNL     1       2.269   3.167  21.981  0.00  0.00    +0.000 OA
BRANCH  14  16
ATOM     16  O   UNL     1       0.605   3.023  20.462  0.00  0.00    +0.000 OA
ATOM     17  H   UNL     1      -0.202   2.996  21.014  0.00  0.00    +0.000 HD
ENDBRANCH  14  16
ENDBRANCH  13  14
ENDBRANCH   1  13
TORSDOF 6
ENDMDL
