MODEL 1
REMARK VINA RESULT:      -7.1      0.000      0.000
REMARK  Name = 
REMARK  4 active torsions:
REMARK  status: ('A' for Active; 'I' for Inactive)
REMARK    1  A    between atoms: N_3  and  C_4
REMARK    2  A    between atoms: C_4  and  C_5
REMARK    3  A    between atoms: C_8  and  C_9
REMARK    4  A    between atoms: N_14  and  C_15
REMARK                            x       y       z     vdW  Elec       q    Type
REMARK                         _______ _______ _______ _____ _____    ______ ____
ROOT
ATOM      1  O   UNL     1       8.500   7.226  18.592  0.00  0.00    +0.000 OA
ATOM      2  C   UNL     1       7.932   8.102  17.957  0.00  0.00    +0.000 C 
ATOM      3  N   UNL     1       6.889   7.873  17.099  0.00  0.00    +0.000 N 
ATOM      4  N   UNL     1       8.231   9.435  18.047  0.00  0.00    +0.000 N 
ATOM      5  H   UNL     1       6.585   8.621  16.497  0.00  0.00    +0.000 HD
ATOM      6  H   UNL     1       7.786  10.066  17.399  0.00  0.00    +0.000 HD
ENDROOT
BRANCH   4   7
ATOM      7  C   UNL     1       9.327   9.939  18.849  0.00  0.00    +0.000 C 
ATOM      8  C   UNL     1      10.032  11.112  18.174  0.00  0.00    +0.000 C 
ATOM      9  C   UNL     1      10.813  11.773  19.299  0.00  0.00    +0.000 C 
ATOM     10  C   UNL     1      10.005  11.514  20.569  0.00  0.00    +0.000 C 
ATOM     11  C   UNL     1       8.889  10.545  20.183  0.00  0.00    +0.000 C 
ENDBRANCH   4   7
BRANCH   3  12
ATOM     12  C   UNL     1       6.343   6.554  16.877  0.00  0.00    +0.000 C 
BRANCH  12  13
ATOM     13  C   UNL     1       5.203   6.233  17.799  0.00  0.00    +0.000 A 
ATOM     14  C   UNL     1       3.940   6.794  17.621  0.00  0.00    +0.000 A 
ATOM     15  C   UNL     1       2.904   6.468  18.499  0.00  0.00    +0.000 A 
ATOM     16  C   UNL     1       3.139   5.591  19.558  0.00  0.00    +0.000 A 
ATOM     17  N   UNL     1       4.367   5.043  19.744  0.00  0.00    +0.000 NA
ATOM     18  C   UNL     1       5.355   5.369  18.876  0.00  0.00    +0.000 A 
BRANCH  16  19
ATOM     19  C   UNL     1       2.056   5.277  20.565  0.00  0.00    +0.000 C 
ATOM     20  C   UNL     1       0.988   4.244  20.281  0.00  0.00    +0.000 C 
ATOM     21  C   UNL     1       2.064   3.944  21.281  0.00  0.00    +0.000 C 
ENDBRANCH  16  19
ENDBRANCH  12  13
ENDBRANCH   3  12
TORSDOF 4
ENDMDL
MODEL 2
REMARK VINA RESULT:      -7.0      3.619      6.340
REMARK  Name = 
REMARK  4 active torsions:
REMARK  status: ('A' for Active; 'I' for Inactive)
REMARK    1  A    between atoms: N_3  and  C_4
REMARK    2  A    between atoms: C_4  and  C_5
REMARK    3  A    between atoms: C_8  and  C_9
REMARK    4  A    between atoms: N_14  and  C_15
REMARK                            x       y       z     vdW  Elec       q    Type
REMARK                         _______ _______ _______ _____ _____    ______ ____
ROOT
ATOM      1  O   UNL     1       6.600   4.085  16.051  0.00  0.00    +0.000 OA
ATOM      2  C   UNL     1       6.232   4.997  15.323  0.00  0.00    +0.000 C 
ATOM      3  N   UNL     1       5.978   6.270  15.760  0.00  0.00    +0.000 N 
ATOM      4  N   UNL     1       6.064   4.882  13.970  0.00  0.00    +0.000 N 
ATOM      5  H   UNL     1       5.527   6.915  15.132  0.00  0.00    +0.000 HD
ATOM      6  H   UNL     1       5.648   5.654  13.476  0.00  0.00    +0.000 HD
ENDROOT
BRANCH   4   7
ATOM      7  C   UNL     1       6.222   3.625  13.265  0.00  0.00    +0.000 C 
ATOM      8  C   UNL     1       4.973   3.262  12.467  0.00  0.00    +0.000 C 
ATOM      9  C   UNL     1       5.457   2.211  11.479  0.00  0.00    +0.000 C 
ATOM     10  C   UNL     1       6.922   2.547  11.204  0.00  0.00    +0.000 C 
ATOM     11  C   UNL     1       7.304   3.654  12.185  0.00  0.00    +0.000 C 
ENDBRANCH   4   7
BRANCH   3  12
ATOM     12  C   UNL     1       6.143   6.664  17.141  0.00  0.00    +0.000 C 
BRANCH  12  13
ATOM     13  C   UNL     1       5.088   6.090  18.041  0.00  0.00    +0.000 A 
ATOM     14  C   UNL     1       3.733   6.326  17.820  0.00  0.00    +0.000 A 
ATOM     15  C   UNL     1       2.782   5.773  18.679  0.00  0.00    +0.000 A 
ATOM     16  C   UNL     1       3.191   4.994  19.762  0.00  0.00    +0.000 A 
ATOM     17  N   UNL     1       4.509   4.764  19.989  0.00  0.00    +0.000 NA
ATOM     18  C   UNL     1       5.413   5.306  19.139  0.00  0.00    +0.000 A 
BRANCH  16  19
ATOM     19  C   UNL     1       2.186   4.442  20.748  0.00  0.00    +0.000 C 
ATOM     20  C   UNL     1       0.804   4.013  20.312  0.00  0.00    +0.000 C 
ATOM     21  C   UNL     1       1.816   2.976  20.697  0.00  0.00    +0.000 C 
ENDBRANCH  16  19
ENDBRANCH  12  13
ENDBRANCH   3  12
TORSDOF 4
ENDMDL
MODEL 3
REMARK VINA RESULT:      -7.0      2.960      8.893
REMARK  Name = 
REMARK  4 active torsions:
REMARK  status: ('A' for Active; 'I' for Inactive)
REMARK    1  A    between atoms: N_3  and  C_4
REMARK    2  A    between atoms: C_4  and  C_5
REMARK    3  A    between atoms: C_8  and  C_9
REMARK    4  A    between atoms: N_14  and  C_15
REMARK                            x       y       z     vdW  Elec       q    Type
REMARK                         _______ _______ _______ _____ _____    ______ ____
ROOT
ATOM      1  O   UNL     1       8.167   6.859  18.872  0.00  0.00    +0.000 OA
ATOM      2  C   UNL     1       7.843   7.598  17.955  0.00  0.00    +0.000 C 
ATOM      3  N   UNL     1       8.181   8.924  17.883  0.00  0.00    +0.000 N 
ATOM      4  N   UNL     1       7.134   7.195  16.855  0.00  0.00    +0.000 N 
ATOM      5  H   UNL     1       7.742   9.497  17.181  0.00  0.00    +0.000 HD
ATOM      6  H   UNL     1       6.816   7.901  16.210  0.00  0.00    +0.000 HD
ENDROOT
BRANCH   4   7
ATOM      7  C   UNL     1       6.613   5.851  16.709  0.00  0.00    +0.000 C 
ATOM      8  C   UNL     1       5.118   5.853  16.400  0.00  0.00    +0.000 C 
ATOM      9  C   UNL     1       4.851   4.459  15.853  0.00  0.00    +0.000 C 
ATOM     10  C   UNL     1       6.150   4.027  15.174  0.00  0.00    +0.000 C 
ATOM     11  C   UNL     1       7.193   5.089  15.517  0.00  0.00    +0.000 C 
ENDBRANCH   4   7
BRANCH   3  12
ATOM     12  C   UNL     1       8.984   9.575  18.892  0.00  0.00    +0.000 C 
BRANCH  12  13
ATOM     13  C   UNL     1       9.554  10.884  18.428  0.00  0.00    +0.000 A 
ATOM     14  C   UNL     1      10.920  11.147  18.488  0.00  0.00    +0.000 A 
ATOM     15  C   UNL     1      11.412  12.376  18.044  0.00  0.00    +0.000 A 
ATOM     16  C   UNL     1      10.532  13.341  17.553  0.00  0.00    +0.000 A 
ATOM     17  N   UNL     1       9.199  13.097  17.496  0.00  0.00    +0.000 NA
ATOM     18  C   UNL     1       8.745  11.895  17.927  0.00  0.00    +0.000 A 
BRANCH  16  19
ATOM     19  C   UNL     1      11.029  14.706  17.132  0.00  0.00    +0.000 C 
ATOM     20  C   UNL     1      10.219  15.957  17.393  0.00  0.00    +0.000 C 
ATOM     21  C   UNL     1      11.465  15.700  18.186  0.00  0.00    +0.000 C 
ENDBRANCH  16  19
ENDBRANCH  12  13
ENDBRANCH   3  12
TORSDOF 4
ENDMDL
MODEL 4
REMARK VINA RESULT:      -6.9      1.979      7.854
REMARK  Name = 
REMARK  4 active torsions:
REMARK  status: ('A' for Active; 'I' for Inactive)
REMARK    1  A    between atoms: N_3  and  C_4
REMARK    2  A    between atoms: C_4  and  C_5
REMARK    3  A    between atoms: C_8  and  C_9
REMARK    4  A    between atoms: N_14  and  C_15
REMARK                            x       y       z     vdW  Elec       q    Type
REMARK                         _______ _______ _______ _____ _____    ______ ____
ROOT
ATOM      1  O   UNL     1       4.136   4.414  17.838  0.00  0.00    +0.000 OA
ATOM      2  C   UNL     1       4.932   3.864  18.584  0.00  0.00    +0.000 C 
ATOM      3  N   UNL     1       6.288   3.858  18.386  0.00  0.00    +0.000 N 
ATOM      4  N   UNL     1       4.585   3.215  19.738  0.00  0.00    +0.000 N 
ATOM      5  H   UNL     1       6.856   3.249  18.954  0.00  0.00    +0.000 HD
ATOM      6  H   UNL     1       5.298   2.695  20.224  0.00  0.00    +0.000 HD
ENDROOT
BRANCH   4   7
ATOM      7  C   UNL     1       3.207   3.037  20.152  0.00  0.00    +0.000 C 
ATOM      8  C   UNL     1       2.518   4.373  20.417  0.00  0.00    +0.000 C 
ATOM      9  C   UNL     1       1.035   4.036  20.392  0.00  0.00    +0.000 C 
ATOM     10  C   UNL     1       0.896   2.859  19.428  0.00  0.00    +0.000 C 
ATOM     11  C   UNL     1       2.315   2.416  19.076  0.00  0.00    +0.000 C 
ENDBRANCH   4   7
BRANCH   3  12
ATOM     12  C   UNL     1       6.912   4.529  17.270  0.00  0.00    +0.000 C 
BRANCH  12  13
ATOM     13  C   UNL     1       7.339   5.930  17.597  0.00  0.00    +0.000 A 
ATOM     14  C   UNL     1       8.064   6.222  18.750  0.00  0.00    +0.000 A 
ATOM     15  C   UNL     1       8.445   7.538  19.018  0.00  0.00    +0.000 A 
ATOM     16  C   UNL     1       8.087   8.559  18.137  0.00  0.00    +0.000 A 
ATOM     17  N   UNL     1       7.375   8.287  17.014  0.00  0.00    +0.000 NA
ATOM     18  C   UNL     1       7.023   7.001  16.772  0.00  0.00    +0.000 A 
BRANCH  16  19
ATOM     19  C   UNL     1       8.424  10.002  18.438  0.00  0.00    +0.000 C 
ATOM     20  C   UNL     1       9.491  10.372  19.444  0.00  0.00    +0.000 C 
ATOM     21  C   UNL     1       9.749  10.572  17.981  0.00  0.00    +0.000 C 
ENDBRANCH  16  19
ENDBRANCH  12  13
ENDBRANCH   3  12
TORSDOF 4
ENDMDL
MODEL 5
REMARK VINA RESULT:      -6.8      1.603      2.140
REMARK  Name = 
REMARK  4 active torsions:
REMARK  status: ('A' for Active; 'I' for Inactive)
REMARK    1  A    between atoms: N_3  and  C_4
REMARK    2  A    between atoms: C_4  and  C_5
REMARK    3  A    between atoms: C_8  and  C_9
REMARK    4  A    between atoms: N_14  and  C_15
REMARK                            x       y       z     vdW  Elec       q    Type
REMARK                         _______ _______ _______ _____ _____    ______ ____
ROOT
ATOM      1  O   UNL     1       7.978   9.624  17.318  0.00  0.00    +0.000 OA
ATOM      2  C   UNL     1       8.370   8.932  18.246  0.00  0.00    +0.000 C 
ATOM      3  N   UNL     1       8.200   7.575  18.314  0.00  0.00    +0.000 N 
ATOM      4  N   UNL     1       9.068   9.411  19.323  0.00  0.00    +0.000 N 
ATOM      5  H   UNL     1       8.407   7.106  19.182  0.00  0.00    +0.000 HD
ATOM      6  H   UNL     1       9.246   8.784  20.090  0.00  0.00    +0.000 HD
ENDROOT
BRANCH   4   7
ATOM      7  C   UNL     1       9.338  10.822  19.515  0.00  0.00    +0.000 C 
ATOM      8  C   UNL     1       9.340  11.202  20.993  0.00  0.00    +0.000 C 
ATOM      9  C   UNL     1      10.057  12.543  21.030  0.00  0.00    +0.000 C 
ATOM     10  C   UNL     1      11.044  12.515  19.864  0.00  0.00    +0.000 C 
ATOM     11  C   UNL     1      10.735  11.251  19.065  0.00  0.00    +0.000 C 
ENDBRANCH   4   7
BRANCH   3  12
ATOM     12  C   UNL     1       7.549   6.821  17.268  0.00  0.00    +0.000 C 
BRANCH  12  13
ATOM     13  C   UNL     1       6.247   6.219  17.709  0.00  0.00    +0.000 A 
ATOM     14  C   UNL     1       6.141   5.496  18.895  0.00  0.00    +0.000 A 
ATOM     15  C   UNL     1       4.911   4.953  19.271  0.00  0.00    +0.000 A 
ATOM     16  C   UNL     1       3.794   5.126  18.454  0.00  0.00    +0.000 A 
ATOM     17  N   UNL     1       3.888   5.824  17.293  0.00  0.00    +0.000 NA
ATOM     18  C   UNL     1       5.090   6.347  16.952  0.00  0.00    +0.000 A 
BRANCH  16  19
ATOM     19  C   UNL     1       2.467   4.489  18.801  0.00  0.00    +0.000 C 
ATOM     20  C   UNL     1       1.411   4.237  17.748  0.00  0.00    +0.000 C 
ATOM     21  C   UNL     1       2.168   3.082  18.332  0.00  0.00    +0.000 C 
ENDBRANCH  16  19
ENDBRANCH  12  13
ENDBRANCH   3  12
TORSDOF 4
ENDMDL
MODEL 6
REMARK VINA RESULT:      -6.8      4.529      8.068
REMARK  Name = 
REMARK  4 active torsions:
REMARK  status: ('A' for Active; 'I' for Inactive)
REMARK    1  A    between atoms: N_3  and  C_4
REMARK    2  A    between atoms: C_4  and  C_5
REMARK    3  A    between atoms: C_8  and  C_9
REMARK    4  A    between atoms: N_14  and  C_15
REMARK                            x       y       z     vdW  Elec       q    Type
REMARK                         _______ _______ _______ _____ _____    ______ ____
ROOT
ATOM      1  O   UNL     1       4.053   4.755  18.331  0.00  0.00    +0.000 OA
ATOM      2  C   UNL     1       4.830   3.926  18.782  0.00  0.00    +0.000 C 
ATOM      3  N   UNL     1       6.169   3.896  18.495  0.00  0.00    +0.000 N 
ATOM      4  N   UNL     1       4.479   2.942  19.666  0.00  0.00    +0.000 N 
ATOM      5  H   UNL     1       6.706   3.091  18.776  0.00  0.00    +0.000 HD
ATOM      6  H   UNL     1       5.164   2.238  19.890  0.00  0.00    +0.000 HD
ENDROOT
BRANCH   4   7
ATOM      7  C   UNL     1       3.111   2.726  20.094  0.00  0.00    +0.000 C 
ATOM      8  C   UNL     1       2.508   3.980  20.720  0.00  0.00    +0.000 C 
ATOM      9  C   UNL     1       1.010   3.726  20.690  0.00  0.00    +0.000 C 
ATOM     10  C   UNL     1       0.766   2.837  19.472  0.00  0.00    +0.000 C 
ATOM     11  C   UNL     1       2.143   2.436  18.946  0.00  0.00    +0.000 C 
ENDBRANCH   4   7
BRANCH   3  12
ATOM     12  C   UNL     1       6.800   4.870  17.633  0.00  0.00    +0.000 C 
BRANCH  12  13
ATOM     13  C   UNL     1       6.649   4.543  16.176  0.00  0.00    +0.000 A 
ATOM     14  C   UNL     1       7.289   5.291  15.191  0.00  0.00    +0.000 A 
ATOM     15  C   UNL     1       7.126   4.953  13.846  0.00  0.00    +0.000 A 
ATOM     16  C   UNL     1       6.313   3.876  13.492  0.00  0.00    +0.000 A 
ATOM     17  N   UNL     1       5.680   3.145  14.445  0.00  0.00    +0.000 NA
ATOM     18  C   UNL     1       5.859   3.487  15.743  0.00  0.00    +0.000 A 
BRANCH  16  19
ATOM     19  C   UNL     1       6.061   3.533  12.041  0.00  0.00    +0.000 C 
ATOM     20  C   UNL     1       5.526   2.180  11.630  0.00  0.00    +0.000 C 
ATOM     21  C   UNL     1       4.640   3.385  11.543  0.00  0.00    +0.000 C 
ENDBRANCH  16  19
ENDBRANCH  12  13
ENDBRANCH   3  12
TORSDOF 4
ENDMDL
MODEL 7
REMARK VINA RESULT:      -6.8      4.231      7.765
REMARK  Name = 
REMARK  4 active torsions:
REMARK  status: ('A' for Active; 'I' for Inactive)
REMARK    1  A    between atoms: N_3  and  C_4
REMARK    2  A    between atoms: C_4  and  C_5
REMARK    3  A    between atoms: C_8  and  C_9
REMARK    4  A    between atoms: N_14  and  C_15
REMARK                            x       y       z     vdW  Elec       q    Type
REMARK                         _______ _______ _______ _____ _____    ______ ____
ROOT
ATOM      1  O   UNL     1       4.599   3.500  19.372  0.00  0.00    +0.000 OA
ATOM      2  C   UNL     1       4.563   4.722  19.364  0.00  0.00    +0.000 C 
ATOM      3  N   UNL     1       5.567   5.514  18.872  0.00  0.00    +0.000 N 
ATOM      4  N   UNL     1       3.501   5.464  19.804  0.00  0.00    +0.000 N 
ATOM      5  H   UNL     1       5.530   6.505  19.048  0.00  0.00    +0.000 HD
ATOM      6  H   UNL     1       3.612   6.463  19.863  0.00  0.00    +0.000 HD
ENDROOT
BRANCH   4   7
ATOM      7  C   UNL     1       2.330   4.868  20.416  0.00  0.00    +0.000 C 
ATOM      8  C   UNL     1       1.481   4.111  19.399  0.00  0.00    +0.000 C 
ATOM      9  C   UNL     1       0.595   3.214  20.249  0.00  0.00    +0.000 C 
ATOM     10  C   UNL     1       1.408   2.902  21.504  0.00  0.00    +0.000 C 
ATOM     11  C   UNL     1       2.655   3.783  21.444  0.00  0.00    +0.000 C 
ENDBRANCH   4   7
BRANCH   3  12
ATOM     12  C   UNL     1       6.772   4.968  18.291  0.00  0.00    +0.000 C 
BRANCH  12  13
ATOM     13  C   UNL     1       6.640   4.700  16.820  0.00  0.00    +0.000 A 
ATOM     14  C   UNL     1       5.776   3.723  16.331  0.00  0.00    +0.000 A 
ATOM     15  C   UNL     1       5.680   3.505  14.956  0.00  0.00    +0.000 A 
ATOM     16  C   UNL     1       6.457   4.259  14.075  0.00  0.00    +0.000 A 
ATOM     17  N   UNL     1       7.306   5.209  14.542  0.00  0.00    +0.000 NA
ATOM     18  C   UNL     1       7.378   5.407  15.880  0.00  0.00    +0.000 A 
BRANCH  16  19
ATOM     19  C   UNL     1       6.425   3.995  12.587  0.00  0.00    +0.000 C 
ATOM     20  C   UNL     1       6.239   2.600  12.034  0.00  0.00    +0.000 C 
ATOM     21  C   UNL     1       5.125   3.596  11.925  0.00  0.00    +0.000 C 
ENDBRANCH  16  19
ENDBRANCH  12  13
ENDBRANCH   3  12
TORSDOF 4
ENDMDL
MODEL 8
REMARK VINA RESULT:      -6.8      4.381      7.995
REMARK  Name = 
REMARK  4 active torsions:
REMARK  status: ('A' for Active; 'I' for Inactive)
REMARK    1  A    between atoms: N_3  and  C_4
REMARK    2  A    between atoms: C_4  and  C_5
REMARK    3  A    between atoms: C_8  and  C_9
REMARK    4  A    between atoms: N_14  and  C_15
REMARK                            x       y       z     vdW  Elec       q    Type
REMARK                         _______ _______ _______ _____ _____    ______ ____
ROOT
ATOM      1  O   UNL     1       4.428   5.330  17.752  0.00  0.00    +0.000 OA
ATOM      2  C   UNL     1       4.996   4.479  18.421  0.00  0.00    +0.000 C 
ATOM      3  N   UNL     1       6.327   4.175  18.304  0.00  0.00    +0.000 N 
ATOM      4  N   UNL     1       4.393   3.743  19.406  0.00  0.00    +0.000 N 
ATOM      5  H   UNL     1       6.679   3.356  18.774  0.00  0.00    +0.000 HD
ATOM      6  H   UNL     1       4.913   2.987  19.821  0.00  0.00    +0.000 HD
ENDROOT
BRANCH   4   7
ATOM      7  C   UNL     1       2.976   3.839  19.697  0.00  0.00    +0.000 C 
ATOM      8  C   UNL     1       2.154   2.886  18.833  0.00  0.00    +0.000 C 
ATOM      9  C   UNL     1       0.819   2.790  19.554  0.00  0.00    +0.000 C 
ATOM     10  C   UNL     1       1.135   2.992  21.035  0.00  0.00    +0.000 C 
ATOM     11  C   UNL     1       2.606   3.398  21.114  0.00  0.00    +0.000 C 
ENDBRANCH   4   7
BRANCH   3  12
ATOM     12  C   UNL     1       7.200   4.858  17.378  0.00  0.00    +0.000 C 
BRANCH  12  13
ATOM     13  C   UNL     1       6.903   4.527  15.945  0.00  0.00    +0.000 A 
ATOM     14  C   UNL     1       7.482   5.237  14.896  0.00  0.00    +0.000 A 
ATOM     15  C   UNL     1       7.182   4.896  13.576  0.00  0.00    +0.000 A 
ATOM     16  C   UNL     1       6.295   3.852  13.311  0.00  0.00    +0.000 A 
ATOM     17  N   UNL     1       5.720   3.158  14.326  0.00  0.00    +0.000 NA
ATOM     18  C   UNL     1       6.032   3.503  15.598  0.00  0.00    +0.000 A 
BRANCH  16  19
ATOM     19  C   UNL     1       5.897   3.508  11.893  0.00  0.00    +0.000 C 
ATOM     20  C   UNL     1       5.298   2.165  11.544  0.00  0.00    +0.000 C 
ATOM     21  C   UNL     1       4.432   3.388  11.536  0.00  0.00    +0.000 C 
ENDBRANCH  16  19
ENDBRANCH  12  13
ENDBRANCH   3  12
TORSDOF 4
ENDMDL
MODEL 9
REMARK VINA RESULT:      -6.8      3.658      5.590
REMARK  Name = 
REMARK  4 active torsions:
REMARK  status: ('A' for Active; 'I' for Inactive)
REMARK    1  A    between atoms: N_3  and  C_4
REMARK    2  A    between atoms: C_4  and  C_5
REMARK    3  A    between atoms: C_8  and  C_9
REMARK    4  A    between atoms: N_14  and  C_15
REMARK                            x       y       z     vdW  Elec       q    Type
REMARK                         _______ _______ _______ _____ _____    ______ ____
ROOT
ATOM      1  O   UNL     1       5.368   5.867  16.255  0.00  0.00    +0.000 OA
ATOM      2  C   UNL     1       6.544   5.548  16.361  0.00  0.00    +0.000 C 
ATOM      3  N   UNL     1       7.239   5.571  17.541  0.00  0.00    +0.000 N 
ATOM      4  N   UNL     1       7.313   5.086  15.327  0.00  0.00    +0.000 N 
ATOM      5  H   UNL     1       8.239   5.450  17.514  0.00  0.00    +0.000 HD
ATOM      6  H   UNL     1       8.299   4.960  15.489  0.00  0.00    +0.000 HD
ENDROOT
BRANCH   4   7
ATOM      7  C   UNL     1       6.828   5.011  13.963  0.00  0.00    +0.000 C 
ATOM      8  C   UNL     1       7.968   5.085  12.952  0.00  0.00    +0.000 C 
ATOM      9  C   UNL     1       7.357   4.556  11.664  0.00  0.00    +0.000 C 
ATOM     10  C   UNL     1       6.286   3.555  12.097  0.00  0.00    +0.000 C 
ATOM     11  C   UNL     1       6.167   3.677  13.615  0.00  0.00    +0.000 C 
ENDBRANCH   4   7
BRANCH   3  12
ATOM     12  C   UNL     1       6.631   5.962  18.792  0.00  0.00    +0.000 C 
BRANCH  12  13
ATOM     13  C   UNL     1       5.406   5.160  19.120  0.00  0.00    +0.000 A 
ATOM     14  C   UNL     1       4.188   5.773  19.407  0.00  0.00    +0.000 A 
ATOM     15  C   UNL     1       3.070   4.992  19.704  0.00  0.00    +0.000 A 
ATOM     16  C   UNL     1       3.177   3.601  19.725  0.00  0.00    +0.000 A 
ATOM     17  N   UNL     1       4.360   2.994  19.453  0.00  0.00    +0.000 NA
ATOM     18  C   UNL     1       5.430   3.772  19.161  0.00  0.00    +0.000 A 
BRANCH  16  19
ATOM     19  C   UNL     1       2.001   2.734  20.114  0.00  0.00    +0.000 C 
ATOM     20  C   UNL     1       0.630   3.324  20.356  0.00  0.00    +0.000 C 
ATOM     21  C   UNL     1       0.880   2.507  19.124  0.00  0.00    +0.000 C 
ENDBRANCH  16  19
ENDBRANCH  12  13
ENDBRANCH   3  12
TORSDOF 4
ENDMDL
