MODEL 1
REMARK VINA RESULT:      -8.3      0.000      0.000
REMARK  Name = 
REMARK  14 active torsions:
REMARK  status: ('A' for Active; 'I' for Inactive)
REMARK    1  A    between atoms: C_1  and  C_2
REMARK    2  A    between atoms: C_2  and  C_3
REMARK    3  A    between atoms: C_2  and  C_4
REMARK    4  A    between atoms: C_2  and  C_5
REMARK    5  A    between atoms: C_8  and  C_9
REMARK    6  A    between atoms: C_9  and  N_10
REMARK    7  A    between atoms: N_13  and  C_14
REMARK    8  A    between atoms: C_14  and  C_15
REMARK    9  A    between atoms: C_15  and  C_16
REMARK   10  A    between atoms: C_16  and  C_17
REMARK   11  A    between atoms: C_17  and  C_18
REMARK   12  A    between atoms: N_23  and  C_24
REMARK   13  A    between atoms: C_24  and  C_25
REMARK   14  A    between atoms: C_25  and  C_26
REMARK                            x       y       z     vdW  Elec       q    Type
REMARK                         _______ _______ _______ _____ _____    ______ ____
ROOT
ATOM      1  C   UNL     1       2.280   8.010  18.083  0.00  0.00    +0.000 C 
ENDROOT
BRANCH   1   5
ATOM      2  N   UNL     1       0.374  10.087  20.390  0.00  0.00    +0.000 N 
ATOM      3  C   UNL     1       0.470   8.881  21.192  0.00  0.00    +0.000 C 
ATOM      4  C   UNL     1       1.590   8.123  20.472  0.00  0.00    +0.000 C 
ATOM      5  N   UNL     1       1.566   8.718  19.131  0.00  0.00    +0.000 N 
ATOM      6  C   UNL     1       0.987   9.968  19.166  0.00  0.00    +0.000 C 
ATOM      7  N   UNL     1       0.958  10.922  18.314  0.00  0.00    +0.000 NA
ATOM      8  H   UNL     1       1.487  10.702  17.486  0.00  0.00    +0.000 HD
BRANCH   2   9
ATOM      9  C   UNL     1      -0.661  11.070  20.645  0.00  0.00    +0.000 C 
BRANCH   9  13
ATOM     10  C   UNL     1      -2.626  13.872  22.427  0.00  0.00    +0.000 C 
ATOM     11  C   UNL     1      -1.483  14.132  21.418  0.00  0.00    +0.000 C 
ATOM     12  C   UNL     1      -0.186  13.367  21.680  0.00  0.00    +0.000 C 
ATOM     13  C   UNL     1      -0.381  11.863  21.931  0.00  0.00    +0.000 C 
ATOM     14  C   UNL     1      -1.493  11.618  22.958  0.00  0.00    +0.000 C 
ATOM     15  C   UNL     1      -2.789  12.351  22.625  0.00  0.00    +0.000 C 
BRANCH  10  17
ATOM     16  C   UNL     1      -3.187  16.158  23.440  0.00  0.00    +0.000 C 
ATOM     17  C   UNL     1      -2.629  14.748  23.745  0.00  0.00    +0.000 C 
ATOM     18  C   UNL     1      -1.263  14.930  24.424  0.00  0.00    +0.000 C 
ATOM     19  C   UNL     1      -3.575  14.115  24.795  0.00  0.00    +0.000 C 
ENDBRANCH  10  17
ENDBRANCH   9  13
ENDBRANCH   2   9
ENDBRANCH   1   5
BRANCH   1  20
ATOM     20  C   UNL     1       2.931   6.705  18.525  0.00  0.00    +0.000 C 
BRANCH  20  21
ATOM     21  C   UNL     1       4.363   6.537  18.027  0.00  0.00    +0.000 C 
BRANCH  21  22
ATOM     22  C   UNL     1       5.098   5.523  18.919  0.00  0.00    +0.000 C 
BRANCH  22  23
ATOM     23  C   UNL     1       6.014   4.612  18.111  0.00  0.00    +0.000 C 
ATOM     24  C   UNL     1       7.218   5.376  17.508  0.00  0.00    +0.000 C 
ATOM     25  N   UNL     1       7.451   4.638  16.277  0.00  0.00    +0.000 N 
ATOM     26  C   UNL     1       6.306   4.020  15.856  0.00  0.00    +0.000 C 
ATOM     27  N   UNL     1       6.143   3.561  14.675  0.00  0.00    +0.000 NA
ATOM     28  N   UNL     1       5.420   4.025  16.900  0.00  0.00    +0.000 N 
ATOM     29  H   UNL     1       8.024   5.078  15.569  0.00  0.00    +0.000 HD
ATOM     30  H   UNL     1       7.018   3.675  14.160  0.00  0.00    +0.000 HD
BRANCH  28  31
ATOM     31  C   UNL     1       4.034   3.580  16.843  0.00  0.00    +0.000 C 
BRANCH  31  32
ATOM     32  C   UNL     1       3.744   2.330  17.684  0.00  0.00    +0.000 C 
BRANCH  32  33
ATOM     33  C   UNL     1       2.909   2.666  18.893  0.00  0.00    +0.000 A 
ATOM     34  C   UNL     1       1.628   3.212  18.765  0.00  0.00    +0.000 A 
ATOM     35  C   UNL     1       0.897   3.540  19.903  0.00  0.00    +0.000 A 
ATOM     36  C   UNL     1       1.476   3.304  21.138  0.00  0.00    +0.000 A 
ATOM     37  N   UNL     1       2.713   2.784  21.305  0.00  0.00    +0.000 NA
ATOM     38  C   UNL     1       3.397   2.475  20.182  0.00  0.00    +0.000 A 
ENDBRANCH  32  33
ENDBRANCH  31  32
ENDBRANCH  28  31
ENDBRANCH  22  23
ENDBRANCH  21  22
ENDBRANCH  20  21
ENDBRANCH   1  20
TORSDOF 11
ENDMDL
MODEL 2
REMARK VINA RESULT:      -8.0      2.089      2.896
REMARK  Name = 
REMARK  14 active torsions:
REMARK  status: ('A' for Active; 'I' for Inactive)
REMARK    1  A    between atoms: C_1  and  C_2
REMARK    2  A    between atoms: C_2  and  C_3
REMARK    3  A    between atoms: C_2  and  C_4
REMARK    4  A    between atoms: C_2  and  C_5
REMARK    5  A    between atoms: C_8  and  C_9
REMARK    6  A    between atoms: C_9  and  N_10
REMARK    7  A    between atoms: N_13  and  C_14
REMARK    8  A    between atoms: C_14  and  C_15
REMARK    9  A    between atoms: C_15  and  C_16
REMARK   10  A    between atoms: C_16  and  C_17
REMARK   11  A    between atoms: C_17  and  C_18
REMARK   12  A    between atoms: N_23  and  C_24
REMARK   13  A    between atoms: C_24  and  C_25
REMARK   14  A    between atoms: C_25  and  C_26
REMARK                            x       y       z     vdW  Elec       q    Type
REMARK                         _______ _______ _______ _____ _____    ______ ____
ROOT
ATOM      1  C   UNL     1       2.570   6.948  18.838  0.00  0.00    +0.000 C 
ENDROOT
BRANCH   1   5
ATOM      2  N   UNL     1       0.685   9.937  19.727  0.00  0.00    +0.000 N 
ATOM      3  C   UNL     1       0.440   9.146  20.919  0.00  0.00    +0.000 C 
ATOM      4  C   UNL     1       1.520   8.066  20.799  0.00  0.00    +0.000 C 
ATOM      5  N   UNL     1       1.822   8.077  19.363  0.00  0.00    +0.000 N 
ATOM      6  C   UNL     1       1.464   9.284  18.802  0.00  0.00    +0.000 C 
ATOM      7  N   UNL     1       1.741   9.818  17.672  0.00  0.00    +0.000 NA
ATOM      8  H   UNL     1       2.356   9.239  17.124  0.00  0.00    +0.000 HD
BRANCH   2   9
ATOM      9  C   UNL     1      -0.197  11.029  19.363  0.00  0.00    +0.000 C 
BRANCH   9  13
ATOM     10  C   UNL     1       1.354  14.502  18.717  0.00  0.00    +0.000 C 
ATOM     11  C   UNL     1       2.142  13.303  19.296  0.00  0.00    +0.000 C 
ATOM     12  C   UNL     1       1.491  12.598  20.485  0.00  0.00    +0.000 C 
ATOM     13  C   UNL     1       0.009  12.247  20.276  0.00  0.00    +0.000 C 
ATOM     14  C   UNL     1      -0.770  13.452  19.735  0.00  0.00    +0.000 C 
ATOM     15  C   UNL     1      -0.117  14.088  18.511  0.00  0.00    +0.000 C 
BRANCH  10  17
ATOM     16  C   UNL     1       2.965  15.928  20.110  0.00  0.00    +0.000 C 
ATOM     17  C   UNL     1       1.589  15.909  19.403  0.00  0.00    +0.000 C 
ATOM     18  C   UNL     1       0.534  16.327  20.438  0.00  0.00    +0.000 C 
ATOM     19  C   UNL     1       1.630  17.019  18.324  0.00  0.00    +0.000 C 
ENDBRANCH  10  17
ENDBRANCH   9  13
ENDBRANCH   2   9
ENDBRANCH   1   5
BRANCH   1  20
ATOM     20  C   UNL     1       3.426   7.263  17.618  0.00  0.00    +0.000 C 
BRANCH  20  21
ATOM     21  C   UNL     1       4.920   7.057  17.847  0.00  0.00    +0.000 C 
BRANCH  21  22
ATOM     22  C   UNL     1       5.138   5.781  18.677  0.00  0.00    +0.000 C 
BRANCH  22  23
ATOM     23  C   UNL     1       6.024   4.775  17.953  0.00  0.00    +0.000 C 
ATOM     24  C   UNL     1       7.245   5.446  17.278  0.00  0.00    +0.000 C 
ATOM     25  N   UNL     1       7.451   4.594  16.119  0.00  0.00    +0.000 N 
ATOM     26  C   UNL     1       6.287   3.972  15.760  0.00  0.00    +0.000 C 
ATOM     27  N   UNL     1       6.105   3.412  14.626  0.00  0.00    +0.000 NA
ATOM     28  N   UNL     1       5.407   4.098  16.802  0.00  0.00    +0.000 N 
ATOM     29  H   UNL     1       8.032   4.950  15.372  0.00  0.00    +0.000 HD
ATOM     30  H   UNL     1       6.980   3.454  14.100  0.00  0.00    +0.000 HD
BRANCH  28  31
ATOM     31  C   UNL     1       4.009   3.689  16.790  0.00  0.00    +0.000 C 
BRANCH  31  32
ATOM     32  C   UNL     1       3.717   2.438  17.629  0.00  0.00    +0.000 C 
BRANCH  32  33
ATOM     33  C   UNL     1       2.908   2.778  18.855  0.00  0.00    +0.000 A 
ATOM     34  C   UNL     1       1.645   3.370  18.754  0.00  0.00    +0.000 A 
ATOM     35  C   UNL     1       0.940   3.699  19.908  0.00  0.00    +0.000 A 
ATOM     36  C   UNL     1       1.526   3.420  21.129  0.00  0.00    +0.000 A 
ATOM     37  N   UNL     1       2.747   2.856  21.271  0.00  0.00    +0.000 NA
ATOM     38  C   UNL     1       3.406   2.545  20.133  0.00  0.00    +0.000 A 
ENDBRANCH  32  33
ENDBRANCH  31  32
ENDBRANCH  28  31
ENDBRANCH  22  23
ENDBRANCH  21  22
ENDBRANCH  20  21
ENDBRANCH   1  20
TORSDOF 11
ENDMDL
MODEL 3
REMARK VINA RESULT:      -7.9      2.473      4.932
REMARK  Name = 
REMARK  14 active torsions:
REMARK  status: ('A' for Active; 'I' for Inactive)
REMARK    1  A    between atoms: C_1  and  C_2
REMARK    2  A    between atoms: C_2  and  C_3
REMARK    3  A    between atoms: C_2  and  C_4
REMARK    4  A    between atoms: C_2  and  C_5
REMARK    5  A    between atoms: C_8  and  C_9
REMARK    6  A    between atoms: C_9  and  N_10
REMARK    7  A    between atoms: N_13  and  C_14
REMARK    8  A    between atoms: C_14  and  C_15
REMARK    9  A    between atoms: C_15  and  C_16
REMARK   10  A    between atoms: C_16  and  C_17
REMARK   11  A    between atoms: C_17  and  C_18
REMARK   12  A    between atoms: N_23  and  C_24
REMARK   13  A    between atoms: C_24  and  C_25
REMARK   14  A    between atoms: C_25  and  C_26
REMARK                            x       y       z     vdW  Elec       q    Type
REMARK                         _______ _______ _______ _____ _____    ______ ____
ROOT
ATOM      1  C   UNL     1       2.293   6.979  19.460  0.00  0.00    +0.000 C 
ENDROOT
BRANCH   1   5
ATOM      2  N   UNL     1       1.204  10.436  19.092  0.00  0.00    +0.000 N 
ATOM      3  C   UNL     1       2.026  10.325  17.901  0.00  0.00    +0.000 C 
ATOM      4  C   UNL     1       2.178   8.806  17.773  0.00  0.00    +0.000 C 
ATOM      5  N   UNL     1       1.913   8.344  19.141  0.00  0.00    +0.000 N 
ATOM      6  C   UNL     1       1.176   9.279  19.834  0.00  0.00    +0.000 C 
ATOM      7  N   UNL     1       0.535   9.215  20.940  0.00  0.00    +0.000 NA
ATOM      8  H   UNL     1       0.572   8.293  21.342  0.00  0.00    +0.000 HD
BRANCH   2   9
ATOM      9  C   UNL     1       0.895  11.731  19.667  0.00  0.00    +0.000 C 
BRANCH   9  13
ATOM     10  C   UNL     1       0.532  15.563  19.936  0.00  0.00    +0.000 C 
ATOM     11  C   UNL     1      -0.636  14.611  19.588  0.00  0.00    +0.000 C 
ATOM     12  C   UNL     1      -0.362  13.614  18.463  0.00  0.00    +0.000 C 
ATOM     13  C   UNL     1       0.962  12.846  18.611  0.00  0.00    +0.000 C 
ATOM     14  C   UNL     1       2.120  13.802  18.923  0.00  0.00    +0.000 C 
ATOM     15  C   UNL     1       1.827  14.738  20.092  0.00  0.00    +0.000 C 
BRANCH  10  17
ATOM     16  C   UNL     1      -0.597  17.057  18.187  0.00  0.00    +0.000 C 
ATOM     17  C   UNL     1       0.653  16.889  19.082  0.00  0.00    +0.000 C 
ATOM     18  C   UNL     1       1.886  16.981  18.170  0.00  0.00    +0.000 C 
ATOM     19  C   UNL     1       0.693  18.119  20.022  0.00  0.00    +0.000 C 
ENDBRANCH  10  17
ENDBRANCH   9  13
ENDBRANCH   2   9
ENDBRANCH   1   5
BRANCH   1  20
ATOM     20  C   UNL     1       2.558   6.091  18.250  0.00  0.00    +0.000 C 
BRANCH  20  21
ATOM     21  C   UNL     1       1.367   5.224  17.854  0.00  0.00    +0.000 C 
BRANCH  21  22
ATOM     22  C   UNL     1       1.851   3.796  17.557  0.00  0.00    +0.000 C 
BRANCH  22  23
ATOM     23  C   UNL     1       1.593   2.852  18.725  0.00  0.00    +0.000 C 
ATOM     24  C   UNL     1       0.543   3.415  19.714  0.00  0.00    +0.000 C 
ATOM     25  N   UNL     1       1.001   2.863  20.979  0.00  0.00    +0.000 N 
ATOM     26  C   UNL     1       2.343   2.601  20.938  0.00  0.00    +0.000 C 
ATOM     27  N   UNL     1       3.056   2.398  21.978  0.00  0.00    +0.000 NA
ATOM     28  N   UNL     1       2.734   2.630  19.626  0.00  0.00    +0.000 N 
ATOM     29  H   UNL     1       0.638   3.275  21.828  0.00  0.00    +0.000 HD
ATOM     30  H   UNL     1       2.443   2.396  22.796  0.00  0.00    +0.000 HD
BRANCH  28  31
ATOM     31  C   UNL     1       4.105   2.526  19.144  0.00  0.00    +0.000 C 
BRANCH  31  32
ATOM     32  C   UNL     1       4.893   3.841  19.214  0.00  0.00    +0.000 C 
BRANCH  32  33
ATOM     33  C   UNL     1       5.612   4.118  17.918  0.00  0.00    +0.000 A 
ATOM     34  C   UNL     1       5.014   3.852  16.682  0.00  0.00    +0.000 A 
ATOM     35  C   UNL     1       5.718   4.090  15.505  0.00  0.00    +0.000 A 
ATOM     36  C   UNL     1       7.003   4.593  15.608  0.00  0.00    +0.000 A 
ATOM     37  N   UNL     1       7.619   4.858  16.782  0.00  0.00    +0.000 NA
ATOM     38  C   UNL     1       6.910   4.618  17.907  0.00  0.00    +0.000 A 
ENDBRANCH  32  33
ENDBRANCH  31  32
ENDBRANCH  28  31
ENDBRANCH  22  23
ENDBRANCH  21  22
ENDBRANCH  20  21
ENDBRANCH   1  20
TORSDOF 11
ENDMDL
MODEL 4
REMARK VINA RESULT:      -7.9      6.032     10.661
REMARK  Name = 
REMARK  14 active torsions:
REMARK  status: ('A' for Active; 'I' for Inactive)
REMARK    1  A    between atoms: C_1  and  C_2
REMARK    2  A    between atoms: C_2  and  C_3
REMARK    3  A    between atoms: C_2  and  C_4
REMARK    4  A    between atoms: C_2  and  C_5
REMARK    5  A    between atoms: C_8  and  C_9
REMARK    6  A    between atoms: C_9  and  N_10
REMARK    7  A    between atoms: N_13  and  C_14
REMARK    8  A    between atoms: C_14  and  C_15
REMARK    9  A    between atoms: C_15  and  C_16
REMARK   10  A    between atoms: C_16  and  C_17
REMARK   11  A    between atoms: C_17  and  C_18
REMARK   12  A    between atoms: N_23  and  C_24
REMARK   13  A    between atoms: C_24  and  C_25
REMARK   14  A    between atoms: C_25  and  C_26
REMARK                            x       y       z     vdW  Elec       q    Type
REMARK                         _______ _______ _______ _____ _____    ______ ____
ROOT
ATOM      1  C   UNL     1       8.644   7.989  18.906  0.00  0.00    +0.000 C 
ENDROOT
BRANCH   1   5
ATOM      2  N   UNL     1       6.482   5.576  17.239  0.00  0.00    +0.000 N 
ATOM      3  C   UNL     1       6.011   6.789  16.597  0.00  0.00    +0.000 C 
ATOM      4  C   UNL     1       7.136   7.773  16.937  0.00  0.00    +0.000 C 
ATOM      5  N   UNL     1       7.750   7.157  18.119  0.00  0.00    +0.000 N 
ATOM      6  C   UNL     1       7.475   5.807  18.160  0.00  0.00    +0.000 C 
ATOM      7  N   UNL     1       7.974   4.854  18.852  0.00  0.00    +0.000 NA
ATOM      8  H   UNL     1       8.720   5.173  19.449  0.00  0.00    +0.000 HD
BRANCH   2   9
ATOM      9  C   UNL     1       5.658   4.384  17.274  0.00  0.00    +0.000 C 
BRANCH   9  13
ATOM     10  C   UNL     1       3.054   2.923  19.718  0.00  0.00    +0.000 C 
ATOM     11  C   UNL     1       3.216   2.454  18.253  0.00  0.00    +0.000 C 
ATOM     12  C   UNL     1       3.229   3.564  17.202  0.00  0.00    +0.000 C 
ATOM     13  C   UNL     1       4.181   4.726  17.527  0.00  0.00    +0.000 C 
ATOM     14  C   UNL     1       3.989   5.207  18.971  0.00  0.00    +0.000 C 
ATOM     15  C   UNL     1       4.043   4.074  19.992  0.00  0.00    +0.000 C 
BRANCH  10  17
ATOM     16  C   UNL     1       0.574   2.433  19.298  0.00  0.00    +0.000 C 
ATOM     17  C   UNL     1       1.576   3.140  20.240  0.00  0.00    +0.000 C 
ATOM     18  C   UNL     1       1.127   4.603  20.374  0.00  0.00    +0.000 C 
ATOM     19  C   UNL     1       1.410   2.486  21.635  0.00  0.00    +0.000 C 
ENDBRANCH  10  17
ENDBRANCH   9  13
ENDBRANCH   2   9
ENDBRANCH   1   5
BRANCH   1  20
ATOM     20  C   UNL     1       8.705   9.448  18.471  0.00  0.00    +0.000 C 
BRANCH  20  21
ATOM     21  C   UNL     1       9.246  10.385  19.546  0.00  0.00    +0.000 C 
BRANCH  21  22
ATOM     22  C   UNL     1      10.386  11.233  18.958  0.00  0.00    +0.000 C 
BRANCH  22  23
ATOM     23  C   UNL     1       9.869  12.512  18.312  0.00  0.00    +0.000 C 
ATOM     24  C   UNL     1      10.691  12.912  17.062  0.00  0.00    +0.000 C 
ATOM     25  N   UNL     1      10.600  14.362  17.098  0.00  0.00    +0.000 N 
ATOM     26  C   UNL     1      10.382  14.805  18.373  0.00  0.00    +0.000 C 
ATOM     27  N   UNL     1      10.554  16.015  18.741  0.00  0.00    +0.000 NA
ATOM     28  N   UNL     1       9.991  13.730  19.127  0.00  0.00    +0.000 N 
ATOM     29  H   UNL     1      11.256  14.887  16.534  0.00  0.00    +0.000 HD
ATOM     30  H   UNL     1      10.801  16.572  17.920  0.00  0.00    +0.000 HD
BRANCH  28  31
ATOM     31  C   UNL     1       9.779  13.733  20.569  0.00  0.00    +0.000 C 
BRANCH  31  32
ATOM     32  C   UNL     1       8.308  13.867  20.984  0.00  0.00    +0.000 C 
BRANCH  32  33
ATOM     33  C   UNL     1       8.091  13.382  22.395  0.00  0.00    +0.000 A 
ATOM     34  C   UNL     1       8.353  12.057  22.758  0.00  0.00    +0.000 A 
ATOM     35  C   UNL     1       8.112  11.634  24.062  0.00  0.00    +0.000 A 
ATOM     36  C   UNL     1       7.616  12.560  24.963  0.00  0.00    +0.000 A 
ATOM     37  N   UNL     1       7.343  13.847  24.651  0.00  0.00    +0.000 NA
ATOM     38  C   UNL     1       7.589  14.227  23.378  0.00  0.00    +0.000 A 
ENDBRANCH  32  33
ENDBRANCH  31  32
ENDBRANCH  28  31
ENDBRANCH  22  23
ENDBRANCH  21  22
ENDBRANCH  20  21
ENDBRANCH   1  20
TORSDOF 11
ENDMDL
MODEL 5
REMARK VINA RESULT:      -7.7      1.385      2.526
REMARK  Name = 
REMARK  14 active torsions:
REMARK  status: ('A' for Active; 'I' for Inactive)
REMARK    1  A    between atoms: C_1  and  C_2
REMARK    2  A    between atoms: C_2  and  C_3
REMARK    3  A    between atoms: C_2  and  C_4
REMARK    4  A    between atoms: C_2  and  C_5
REMARK    5  A    between atoms: C_8  and  C_9
REMARK    6  A    between atoms: C_9  and  N_10
REMARK    7  A    between atoms: N_13  and  C_14
REMARK    8  A    between atoms: C_14  and  C_15
REMARK    9  A    between atoms: C_15  and  C_16
REMARK   10  A    between atoms: C_16  and  C_17
REMARK   11  A    between atoms: C_17  and  C_18
REMARK   12  A    between atoms: N_23  and  C_24
REMARK   13  A    between atoms: C_24  and  C_25
REMARK   14  A    between atoms: C_25  and  C_26
REMARK                            x       y       z     vdW  Elec       q    Type
REMARK                         _______ _______ _______ _____ _____    ______ ____
ROOT
ATOM      1  C   UNL     1       1.594   8.462  21.024  0.00  0.00    +0.000 C 
ENDROOT
BRANCH   1   5
ATOM      2  N   UNL     1      -0.863  11.053  21.748  0.00  0.00    +0.000 N 
ATOM      3  C   UNL     1      -0.786  11.205  20.307  0.00  0.00    +0.000 C 
ATOM      4  C   UNL     1      -0.099   9.898  19.897  0.00  0.00    +0.000 C 
ATOM      5  N   UNL     1       0.575   9.491  21.136  0.00  0.00    +0.000 N 
ATOM      6  C   UNL     1      -0.030  10.071  22.230  0.00  0.00    +0.000 C 
ATOM      7  N   UNL     1       0.061   9.835  23.484  0.00  0.00    +0.000 NA
ATOM      8  H   UNL     1       0.675   9.060  23.676  0.00  0.00    +0.000 HD
BRANCH   2   9
ATOM      9  C   UNL     1      -1.353  12.131  22.585  0.00  0.00    +0.000 C 
BRANCH   9  13
ATOM     10  C   UNL     1      -3.669  15.153  23.210  0.00  0.00    +0.000 C 
ATOM     11  C   UNL     1      -3.384  14.056  24.263  0.00  0.00    +0.000 C 
ATOM     12  C   UNL     1      -3.568  12.617  23.781  0.00  0.00    +0.000 C 
ATOM     13  C   UNL     1      -2.873  12.306  22.446  0.00  0.00    +0.000 C 
ATOM     14  C   UNL     1      -3.188  13.382  21.399  0.00  0.00    +0.000 C 
ATOM     15  C   UNL     1      -2.934  14.800  21.901  0.00  0.00    +0.000 C 
BRANCH  10  17
ATOM     16  C   UNL     1      -6.087  14.775  23.970  0.00  0.00    +0.000 C 
ATOM     17  C   UNL     1      -5.172  15.624  23.056  0.00  0.00    +0.000 C 
ATOM     18  C   UNL     1      -5.748  15.553  21.634  0.00  0.00    +0.000 C 
ATOM     19  C   UNL     1      -5.314  17.092  23.529  0.00  0.00    +0.000 C 
ENDBRANCH  10  17
ENDBRANCH   9  13
ENDBRANCH   2   9
ENDBRANCH   1   5
BRANCH   1  20
ATOM     20  C   UNL     1       1.846   7.966  19.606  0.00  0.00    +0.000 C 
BRANCH  20  21
ATOM     21  C   UNL     1       2.536   6.607  19.546  0.00  0.00    +0.000 C 
BRANCH  21  22
ATOM     22  C   UNL     1       2.977   6.321  18.102  0.00  0.00    +0.000 C 
BRANCH  22  23
ATOM     23  C   UNL     1       4.359   5.681  18.044  0.00  0.00    +0.000 C 
ATOM     24  C   UNL     1       5.413   6.615  17.400  0.00  0.00    +0.000 C 
ATOM     25  N   UNL     1       6.304   5.661  16.762  0.00  0.00    +0.000 N 
ATOM     26  C   UNL     1       5.647   4.496  16.476  0.00  0.00    +0.000 C 
ATOM     27  N   UNL     1       6.090   3.615  15.664  0.00  0.00    +0.000 NA
ATOM     28  N   UNL     1       4.474   4.494  17.183  0.00  0.00    +0.000 N 
ATOM     29  H   UNL     1       6.943   6.013  16.061  0.00  0.00    +0.000 HD
ATOM     30  H   UNL     1       7.018   3.904  15.346  0.00  0.00    +0.000 HD
BRANCH  28  31
ATOM     31  C   UNL     1       3.416   3.499  17.073  0.00  0.00    +0.000 C 
BRANCH  31  32
ATOM     32  C   UNL     1       3.561   2.323  18.047  0.00  0.00    +0.000 C 
BRANCH  32  33
ATOM     33  C   UNL     1       2.808   2.577  19.328  0.00  0.00    +0.000 A 
ATOM     34  C   UNL     1       1.466   2.972  19.318  0.00  0.00    +0.000 A 
ATOM     35  C   UNL     1       0.809   3.229  20.518  0.00  0.00    +0.000 A 
ATOM     36  C   UNL     1       1.523   3.077  21.693  0.00  0.00    +0.000 A 
ATOM     37  N   UNL     1       2.822   2.704  21.747  0.00  0.00    +0.000 NA
ATOM     38  C   UNL     1       3.431   2.460  20.566  0.00  0.00    +0.000 A 
ENDBRANCH  32  33
ENDBRANCH  31  32
ENDBRANCH  28  31
ENDBRANCH  22  23
ENDBRANCH  21  22
ENDBRANCH  20  21
ENDBRANCH   1  20
TORSDOF 11
ENDMDL
MODEL 6
REMARK VINA RESULT:      -7.7      2.243      4.767
REMARK  Name = 
REMARK  14 active torsions:
REMARK  status: ('A' for Active; 'I' for Inactive)
REMARK    1  A    between atoms: C_1  and  C_2
REMARK    2  A    between atoms: C_2  and  C_3
REMARK    3  A    between atoms: C_2  and  C_4
REMARK    4  A    between atoms: C_2  and  C_5
REMARK    5  A    between atoms: C_8  and  C_9
REMARK    6  A    between atoms: C_9  and  N_10
REMARK    7  A    between atoms: N_13  and  C_14
REMARK    8  A    between atoms: C_14  and  C_15
REMARK    9  A    between atoms: C_15  and  C_16
REMARK   10  A    between atoms: C_16  and  C_17
REMARK   11  A    between atoms: C_17  and  C_18
REMARK   12  A    between atoms: N_23  and  C_24
REMARK   13  A    between atoms: C_24  and  C_25
REMARK   14  A    between atoms: C_25  and  C_26
REMARK                            x       y       z     vdW  Elec       q    Type
REMARK                         _______ _______ _______ _____ _____    ______ ____
ROOT
ATOM      1  C   UNL     1       2.318   7.206  19.413  0.00  0.00    +0.000 C 
ENDROOT
BRANCH   1   5
ATOM      2  N   UNL     1       0.371  10.182  20.203  0.00  0.00    +0.000 N 
ATOM      3  C   UNL     1       0.279   9.501  21.481  0.00  0.00    +0.000 C 
ATOM      4  C   UNL     1       1.397   8.461  21.356  0.00  0.00    +0.000 C 
ATOM      5  N   UNL     1       1.564   8.347  19.902  0.00  0.00    +0.000 N 
ATOM      6  C   UNL     1       1.094   9.478  19.270  0.00  0.00    +0.000 C 
ATOM      7  N   UNL     1       1.237   9.912  18.075  0.00  0.00    +0.000 NA
ATOM      8  H   UNL     1       1.828   9.310  17.525  0.00  0.00    +0.000 HD
BRANCH   2   9
ATOM      9  C   UNL     1      -0.596  11.196  19.827  0.00  0.00    +0.000 C 
BRANCH   9  13
ATOM     10  C   UNL     1       1.233  14.359  18.586  0.00  0.00    +0.000 C 
ATOM     11  C   UNL     1       1.920  13.227  19.387  0.00  0.00    +0.000 C 
ATOM     12  C   UNL     1       1.211  12.806  20.674  0.00  0.00    +0.000 C 
ATOM     13  C   UNL     1      -0.294  12.541  20.506  0.00  0.00    +0.000 C 
ATOM     14  C   UNL     1      -0.972  13.684  19.741  0.00  0.00    +0.000 C 
ATOM     15  C   UNL     1      -0.266  14.031  18.433  0.00  0.00    +0.000 C 
BRANCH  10  17
ATOM     16  C   UNL     1       2.884  16.299  18.313  0.00  0.00    +0.000 C 
ATOM     17  C   UNL     1       1.579  15.844  19.008  0.00  0.00    +0.000 C 
ATOM     18  C   UNL     1       1.753  16.083  20.515  0.00  0.00    +0.000 C 
ATOM     19  C   UNL     1       0.463  16.802  18.524  0.00  0.00    +0.000 C 
ENDBRANCH  10  17
ENDBRANCH   9  13
ENDBRANCH   2   9
ENDBRANCH   1   5
BRANCH   1  20
ATOM     20  C   UNL     1       2.426   6.046  20.394  0.00  0.00    +0.000 C 
BRANCH  20  21
ATOM     21  C   UNL     1       1.175   5.175  20.453  0.00  0.00    +0.000 C 
BRANCH  21  22
ATOM     22  C   UNL     1       1.231   4.123  19.334  0.00  0.00    +0.000 C 
BRANCH  22  23
ATOM     23  C   UNL     1       1.859   2.818  19.809  0.00  0.00    +0.000 C 
ATOM     24  C   UNL     1       1.933   2.729  21.353  0.00  0.00    +0.000 C 
ATOM     25  N   UNL     1       3.137   1.939  21.548  0.00  0.00    +0.000 N 
ATOM     26  C   UNL     1       3.983   2.070  20.481  0.00  0.00    +0.000 C 
ATOM     27  N   UNL     1       5.215   1.736  20.511  0.00  0.00    +0.000 NA
ATOM     28  N   UNL     1       3.272   2.625  19.450  0.00  0.00    +0.000 N 
ATOM     29  H   UNL     1       3.554   1.941  22.469  0.00  0.00    +0.000 HD
ATOM     30  H   UNL     1       5.413   1.307  21.417  0.00  0.00    +0.000 HD
BRANCH  28  31
ATOM     31  C   UNL     1       3.822   3.051  18.170  0.00  0.00    +0.000 C 
BRANCH  31  32
ATOM     32  C   UNL     1       4.798   4.231  18.270  0.00  0.00    +0.000 C 
BRANCH  32  33
ATOM     33  C   UNL     1       5.563   4.420  16.985  0.00  0.00    +0.000 A 
ATOM     34  C   UNL     1       4.914   4.421  15.745  0.00  0.00    +0.000 A 
ATOM     35  C   UNL     1       5.654   4.566  14.576  0.00  0.00    +0.000 A 
ATOM     36  C   UNL     1       7.026   4.708  14.689  0.00  0.00    +0.000 A 
ATOM     37  N   UNL     1       7.692   4.705  15.866  0.00  0.00    +0.000 NA
ATOM     38  C   UNL     1       6.946   4.565  16.983  0.00  0.00    +0.000 A 
ENDBRANCH  32  33
ENDBRANCH  31  32
ENDBRANCH  28  31
ENDBRANCH  22  23
ENDBRANCH  21  22
ENDBRANCH  20  21
ENDBRANCH   1  20
TORSDOF 11
ENDMDL
MODEL 7
REMARK VINA RESULT:      -7.7      1.484      3.896
REMARK  Name = 
REMARK  14 active torsions:
REMARK  status: ('A' for Active; 'I' for Inactive)
REMARK    1  A    between atoms: C_1  and  C_2
REMARK    2  A    between atoms: C_2  and  C_3
REMARK    3  A    between atoms: C_2  and  C_4
REMARK    4  A    between atoms: C_2  and  C_5
REMARK    5  A    between atoms: C_8  and  C_9
REMARK    6  A    between atoms: C_9  and  N_10
REMARK    7  A    between atoms: N_13  and  C_14
REMARK    8  A    between atoms: C_14  and  C_15
REMARK    9  A    between atoms: C_15  and  C_16
REMARK   10  A    between atoms: C_16  and  C_17
REMARK   11  A    between atoms: C_17  and  C_18
REMARK   12  A    between atoms: N_23  and  C_24
REMARK   13  A    between atoms: C_24  and  C_25
REMARK   14  A    between atoms: C_25  and  C_26
REMARK                            x       y       z     vdW  Elec       q    Type
REMARK                         _______ _______ _______ _____ _____    ______ ____
ROOT
ATOM      1  C   UNL     1       1.933   7.961  19.088  0.00  0.00    +0.000 C 
ENDROOT
BRANCH   1   5
ATOM      2  N   UNL     1       0.299  10.892  20.508  0.00  0.00    +0.000 N 
ATOM      3  C   UNL     1       0.346  11.305  19.118  0.00  0.00    +0.000 C 
ATOM      4  C   UNL     1       0.638   9.977  18.412  0.00  0.00    +0.000 C 
ATOM      5  N   UNL     1       1.234   9.172  19.484  0.00  0.00    +0.000 N 
ATOM      6  C   UNL     1       0.859   9.654  20.719  0.00  0.00    +0.000 C 
ATOM      7  N   UNL     1       0.943   9.155  21.894  0.00  0.00    +0.000 NA
ATOM      8  H   UNL     1       1.334   8.228  21.881  0.00  0.00    +0.000 HD
BRANCH   2   9
ATOM      9  C   UNL     1       0.157  11.868  21.571  0.00  0.00    +0.000 C 
BRANCH   9  13
ATOM     10  C   UNL     1      -2.670  13.479  23.646  0.00  0.00    +0.000 C 
ATOM     11  C   UNL     1      -2.871  12.252  22.725  0.00  0.00    +0.000 C 
ATOM     12  C   UNL     1      -2.337  12.401  21.301  0.00  0.00    +0.000 C 
ATOM     13  C   UNL     1      -0.896  12.931  21.222  0.00  0.00    +0.000 C 
ATOM     14  C   UNL     1      -0.715  14.168  22.111  0.00  0.00    +0.000 C 
ATOM     15  C   UNL     1      -1.206  13.955  23.540  0.00  0.00    +0.000 C 
BRANCH  10  17
ATOM     16  C   UNL     1      -5.174  13.996  23.813  0.00  0.00    +0.000 C 
ATOM     17  C   UNL     1      -3.774  14.611  23.580  0.00  0.00    +0.000 C 
ATOM     18  C   UNL     1      -3.833  15.406  22.267  0.00  0.00    +0.000 C 
ATOM     19  C   UNL     1      -3.545  15.635  24.719  0.00  0.00    +0.000 C 
ENDBRANCH  10  17
ENDBRANCH   9  13
ENDBRANCH   2   9
ENDBRANCH   1   5
BRANCH   1  20
ATOM     20  C   UNL     1       2.333   7.050  20.241  0.00  0.00    +0.000 C 
BRANCH  20  21
ATOM     21  C   UNL     1       1.333   5.930  20.512  0.00  0.00    +0.000 C 
BRANCH  21  22
ATOM     22  C   UNL     1       2.083   4.595  20.645  0.00  0.00    +0.000 C 
BRANCH  22  23
ATOM     23  C   UNL     1       2.201   3.872  19.309  0.00  0.00    +0.000 C 
ATOM     24  C   UNL     1       1.160   2.735  19.163  0.00  0.00    +0.000 C 
ATOM     25  N   UNL     1       1.879   1.779  18.338  0.00  0.00    +0.000 N 
ATOM     26  C   UNL     1       3.230   1.926  18.486  0.00  0.00    +0.000 C 
ATOM     27  N   UNL     1       4.082   1.046  18.123  0.00  0.00    +0.000 NA
ATOM     28  N   UNL     1       3.454   3.131  19.096  0.00  0.00    +0.000 N 
ATOM     29  H   UNL     1       1.520   0.834  18.296  0.00  0.00    +0.000 HD
ATOM     30  H   UNL     1       3.584   0.286  17.656  0.00  0.00    +0.000 HD
BRANCH  28  31
ATOM     31  C   UNL     1       4.746   3.626  19.555  0.00  0.00    +0.000 C 
BRANCH  31  32
ATOM     32  C   UNL     1       5.116   5.010  19.005  0.00  0.00    +0.000 C 
BRANCH  32  33
ATOM     33  C   UNL     1       5.740   4.905  17.636  0.00  0.00    +0.000 A 
ATOM     34  C   UNL     1       4.973   5.037  16.474  0.00  0.00    +0.000 A 
ATOM     35  C   UNL     1       5.575   4.904  15.226  0.00  0.00    +0.000 A 
ATOM     36  C   UNL     1       6.934   4.644  15.186  0.00  0.00    +0.000 A 
ATOM     37  N   UNL     1       7.710   4.503  16.285  0.00  0.00    +0.000 NA
ATOM     38  C   UNL     1       7.096   4.640  17.481  0.00  0.00    +0.000 A 
ENDBRANCH  32  33
ENDBRANCH  31  32
ENDBRANCH  28  31
ENDBRANCH  22  23
ENDBRANCH  21  22
ENDBRANCH  20  21
ENDBRANCH   1  20
TORSDOF 11
ENDMDL
MODEL 8
REMARK VINA RESULT:      -7.6      1.445      2.016
REMARK  Name = 
REMARK  14 active torsions:
REMARK  status: ('A' for Active; 'I' for Inactive)
REMARK    1  A    between atoms: C_1  and  C_2
REMARK    2  A    between atoms: C_2  and  C_3
REMARK    3  A    between atoms: C_2  and  C_4
REMARK    4  A    between atoms: C_2  and  C_5
REMARK    5  A    between atoms: C_8  and  C_9
REMARK    6  A    between atoms: C_9  and  N_10
REMARK    7  A    between atoms: N_13  and  C_14
REMARK    8  A    between atoms: C_14  and  C_15
REMARK    9  A    between atoms: C_15  and  C_16
REMARK   10  A    between atoms: C_16  and  C_17
REMARK   11  A    between atoms: C_17  and  C_18
REMARK   12  A    between atoms: N_23  and  C_24
REMARK   13  A    between atoms: C_24  and  C_25
REMARK   14  A    between atoms: C_25  and  C_26
REMARK                            x       y       z     vdW  Elec       q    Type
REMARK                         _______ _______ _______ _____ _____    ______ ____
ROOT
ATOM      1  C   UNL     1       1.104   8.713  18.160  0.00  0.00    +0.000 C 
ENDROOT
BRANCH   1   5
ATOM      2  N   UNL     1       0.650  11.230  20.756  0.00  0.00    +0.000 N 
ATOM      3  C   UNL     1       0.688  10.042  21.590  0.00  0.00    +0.000 C 
ATOM      4  C   UNL     1       1.280   9.009  20.626  0.00  0.00    +0.000 C 
ATOM      5  N   UNL     1       0.976   9.589  19.313  0.00  0.00    +0.000 N 
ATOM      6  C   UNL     1       0.781  10.949  19.417  0.00  0.00    +0.000 C 
ATOM      7  N   UNL     1       0.724  11.875  18.536  0.00  0.00    +0.000 NA
ATOM      8  H   UNL     1       0.881  11.520  17.607  0.00  0.00    +0.000 HD
BRANCH   2   9
ATOM      9  C   UNL     1       0.043  12.457  21.233  0.00  0.00    +0.000 C 
BRANCH   9  13
ATOM     10  C   UNL     1      -2.592  14.826  22.760  0.00  0.00    +0.000 C 
ATOM     11  C   UNL     1      -1.704  13.874  23.596  0.00  0.00    +0.000 C 
ATOM     12  C   UNL     1      -1.679  12.418  23.132  0.00  0.00    +0.000 C 
ATOM     13  C   UNL     1      -1.427  12.242  21.626  0.00  0.00    +0.000 C 
ATOM     14  C   UNL     1      -2.335  13.165  20.805  0.00  0.00    +0.000 C 
ATOM     15  C   UNL     1      -2.283  14.620  21.263  0.00  0.00    +0.000 C 
BRANCH  10  17
ATOM     16  C   UNL     1      -4.975  15.180  21.888  0.00  0.00    +0.000 C 
ATOM     17  C   UNL     1      -4.124  14.902  23.149  0.00  0.00    +0.000 C 
ATOM     18  C   UNL     1      -4.492  15.964  24.196  0.00  0.00    +0.000 C 
ATOM     19  C   UNL     1      -4.593  13.535  23.706  0.00  0.00    +0.000 C 
ENDBRANCH  10  17
ENDBRANCH   9  13
ENDBRANCH   2   9
ENDBRANCH   1   5
BRANCH   1  20
ATOM     20  C   UNL     1       2.538   8.440  17.724  0.00  0.00    +0.000 C 
BRANCH  20  21
ATOM     21  C   UNL     1       3.014   7.025  18.037  0.00  0.00    +0.000 C 
BRANCH  21  22
ATOM     22  C   UNL     1       4.170   6.654  17.095  0.00  0.00    +0.000 C 
BRANCH  22  23
ATOM     23  C   UNL     1       5.481   6.465  17.848  0.00  0.00    +0.000 C 
ATOM     24  C   UNL     1       6.649   7.250  17.202  0.00  0.00    +0.000 C 
ATOM     25  N   UNL     1       7.784   6.395  17.505  0.00  0.00    +0.000 N 
ATOM     26  C   UNL     1       7.386   5.098  17.680  0.00  0.00    +0.000 C 
ATOM     27  N   UNL     1       8.186   4.104  17.659  0.00  0.00    +0.000 NA
ATOM     28  N   UNL     1       6.026   5.099  17.842  0.00  0.00    +0.000 N 
ATOM     29  H   UNL     1       8.638   6.548  16.984  0.00  0.00    +0.000 HD
ATOM     30  H   UNL     1       9.141   4.457  17.567  0.00  0.00    +0.000 HD
BRANCH  28  31
ATOM     31  C   UNL     1       5.179   3.916  17.930  0.00  0.00    +0.000 C 
BRANCH  31  32
ATOM     32  C   UNL     1       4.677   3.612  19.347  0.00  0.00    +0.000 C 
BRANCH  32  33
ATOM     33  C   UNL     1       3.187   3.380  19.362  0.00  0.00    +0.000 A 
ATOM     34  C   UNL     1       2.436   3.546  20.530  0.00  0.00    +0.000 A 
ATOM     35  C   UNL     1       1.067   3.292  20.517  0.00  0.00    +0.000 A 
ATOM     36  C   UNL     1       0.495   2.881  19.326  0.00  0.00    +0.000 A 
ATOM     37  N   UNL     1       1.186   2.702  18.177  0.00  0.00    +0.000 NA
ATOM     38  C   UNL     1       2.512   2.957  18.222  0.00  0.00    +0.000 A 
ENDBRANCH  32  33
ENDBRANCH  31  32
ENDBRANCH  28  31
ENDBRANCH  22  23
ENDBRANCH  21  22
ENDBRANCH  20  21
ENDBRANCH   1  20
TORSDOF 11
ENDMDL
MODEL 9
REMARK VINA RESULT:      -7.6      1.940      2.793
REMARK  Name = 
REMARK  14 active torsions:
REMARK  status: ('A' for Active; 'I' for Inactive)
REMARK    1  A    between atoms: C_1  and  C_2
REMARK    2  A    between atoms: C_2  and  C_3
REMARK    3  A    between atoms: C_2  and  C_4
REMARK    4  A    between atoms: C_2  and  C_5
REMARK    5  A    between atoms: C_8  and  C_9
REMARK    6  A    between atoms: C_9  and  N_10
REMARK    7  A    between atoms: N_13  and  C_14
REMARK    8  A    between atoms: C_14  and  C_15
REMARK    9  A    between atoms: C_15  and  C_16
REMARK   10  A    between atoms: C_16  and  C_17
REMARK   11  A    between atoms: C_17  and  C_18
REMARK   12  A    between atoms: N_23  and  C_24
REMARK   13  A    between atoms: C_24  and  C_25
REMARK   14  A    between atoms: C_25  and  C_26
REMARK                            x       y       z     vdW  Elec       q    Type
REMARK                         _______ _______ _______ _____ _____    ______ ____
ROOT
ATOM      1  C   UNL     1       2.241   7.253  18.240  0.00  0.00    +0.000 C 
ENDROOT
BRANCH   1   5
ATOM      2  N   UNL     1       0.901  10.307  19.708  0.00  0.00    +0.000 N 
ATOM      3  C   UNL     1       0.670   9.398  20.816  0.00  0.00    +0.000 C 
ATOM      4  C   UNL     1       1.567   8.215  20.435  0.00  0.00    +0.000 C 
ATOM      5  N   UNL     1       1.719   8.385  18.986  0.00  0.00    +0.000 N 
ATOM      6  C   UNL     1       1.482   9.694  18.623  0.00  0.00    +0.000 C 
ATOM      7  N   UNL     1       1.715  10.338  17.543  0.00  0.00    +0.000 NA
ATOM      8  H   UNL     1       2.181   9.766  16.858  0.00  0.00    +0.000 HD
BRANCH   2   9
ATOM      9  C   UNL     1       0.152  11.542  19.589  0.00  0.00    +0.000 C 
BRANCH   9  13
ATOM     10  C   UNL     1       0.605  15.322  18.957  0.00  0.00    +0.000 C 
ATOM     11  C   UNL     1       1.691  14.263  18.654  0.00  0.00    +0.000 C 
ATOM     12  C   UNL     1       2.009  13.298  19.796  0.00  0.00    +0.000 C 
ATOM     13  C   UNL     1       0.770  12.660  20.444  0.00  0.00    +0.000 C 
ATOM     14  C   UNL     1      -0.287  13.722  20.772  0.00  0.00    +0.000 C 
ATOM     15  C   UNL     1      -0.619  14.624  19.587  0.00  0.00    +0.000 C 
BRANCH  10  17
ATOM     16  C   UNL     1      -0.083  17.270  20.472  0.00  0.00    +0.000 C 
ATOM     17  C   UNL     1       1.082  16.655  19.663  0.00  0.00    +0.000 C 
ATOM     18  C   UNL     1       1.618  17.747  18.725  0.00  0.00    +0.000 C 
ATOM     19  C   UNL     1       2.208  16.338  20.679  0.00  0.00    +0.000 C 
ENDBRANCH  10  17
ENDBRANCH   9  13
ENDBRANCH   2   9
ENDBRANCH   1   5
BRANCH   1  20
ATOM     20  C   UNL     1       3.211   6.372  19.017  0.00  0.00    +0.000 C 
BRANCH  20  21
ATOM     21  C   UNL     1       4.600   6.292  18.391  0.00  0.00    +0.000 C 
BRANCH  21  22
ATOM     22  C   UNL     1       5.442   5.251  19.147  0.00  0.00    +0.000 C 
BRANCH  22  23
ATOM     23  C   UNL     1       6.258   4.381  18.200  0.00  0.00    +0.000 C 
ATOM     24  C   UNL     1       7.473   5.136  17.607  0.00  0.00    +0.000 C 
ATOM     25  N   UNL     1       7.596   4.519  16.297  0.00  0.00    +0.000 N 
ATOM     26  C   UNL     1       6.395   4.012  15.883  0.00  0.00    +0.000 C 
ATOM     27  N   UNL     1       6.143   3.688  14.674  0.00  0.00    +0.000 NA
ATOM     28  N   UNL     1       5.567   3.957  16.972  0.00  0.00    +0.000 N 
ATOM     29  H   UNL     1       8.157   4.998  15.604  0.00  0.00    +0.000 HD
ATOM     30  H   UNL     1       6.995   3.807  14.122  0.00  0.00    +0.000 HD
BRANCH  28  31
ATOM     31  C   UNL     1       4.155   3.597  16.951  0.00  0.00    +0.000 C 
BRANCH  31  32
ATOM     32  C   UNL     1       3.823   2.326  17.743  0.00  0.00    +0.000 C 
BRANCH  32  33
ATOM     33  C   UNL     1       2.933   2.631  18.921  0.00  0.00    +0.000 A 
ATOM     34  C   UNL     1       3.407   2.547  20.234  0.00  0.00    +0.000 A 
ATOM     35  C   UNL     1       2.549   2.805  21.299  0.00  0.00    +0.000 A 
ATOM     36  C   UNL     1       1.239   3.143  21.010  0.00  0.00    +0.000 A 
ATOM     37  N   UNL     1       0.739   3.228  19.757  0.00  0.00    +0.000 NA
ATOM     38  C   UNL     1       1.596   2.974  18.744  0.00  0.00    +0.000 A 
ENDBRANCH  32  33
ENDBRANCH  31  32
ENDBRANCH  28  31
ENDBRANCH  22  23
ENDBRANCH  21  22
ENDBRANCH  20  21
ENDBRANCH   1  20
TORSDOF 11
ENDMDL
