MODEL 1
REMARK VINA RESULT:      -6.8      0.000      0.000
REMARK  Name = 
REMARK  5 active torsions:
REMARK  status: ('A' for Active; 'I' for Inactive)
REMARK    1  A    between atoms: C_1  and  O_2
REMARK    2  A    between atoms: O_2  and  C_3
REMARK    3  A    between atoms: C_13  and  N_14
REMARK    4  A    between atoms: N_17  and  C_18
REMARK    5  A    between atoms: C_18  and  C_19
REMARK                            x       y       z     vdW  Elec       q    Type
REMARK                         _______ _______ _______ _____ _____    ______ ____
ROOT
ATOM      1  C   UNL     1       2.327   4.919  20.977  0.00  0.00    +0.000 A 
ATOM      2  N   UNL     1       1.584   6.017  21.047  0.00  0.00    +0.000 NA
ATOM      3  C   UNL     1       1.826   6.964  20.159  0.00  0.00    +0.000 A 
ATOM      4  N   UNL     1       1.042   8.085  20.101  0.00  0.00    +0.000 N 
ATOM      5  C   UNL     1       1.247   9.121  19.096  0.00  0.00    +0.000 C 
ATOM      6  C   UNL     1       1.765  10.390  19.765  0.00  0.00    +0.000 C 
ATOM      7  C   UNL     1       0.825  10.831  20.886  0.00  0.00    +0.000 C 
ATOM      8  C   UNL     1       0.591   9.695  21.884  0.00  0.00    +0.000 C 
ATOM      9  C   UNL     1       0.117   8.417  21.186  0.00  0.00    +0.000 C 
ATOM     10  N   UNL     1       2.782   6.833  19.251  0.00  0.00    +0.000 NA
ATOM     11  C   UNL     1       3.461   5.702  19.268  0.00  0.00    +0.000 A 
ATOM     12  N   UNL     1       3.288   4.697  20.089  0.00  0.00    +0.000 NA
ENDROOT
BRANCH  11  13
ATOM     13  N   UNL     1       4.390   5.547  18.138  0.00  0.00    +0.000 NA
ATOM     14  C   UNL     1       5.844   5.401  18.617  0.00  0.00    +0.000 C 
ATOM     15  C   UNL     1       6.777   5.195  17.379  0.00  0.00    +0.000 C 
ATOM     16  N   UNL     1       5.942   5.224  16.056  0.00  0.00    +0.000 N 
ATOM     17  C   UNL     1       5.184   6.586  15.972  0.00  0.00    +0.000 C 
ATOM     18  C   UNL     1       4.275   6.781  17.226  0.00  0.00    +0.000 C 
ATOM     19  C   UNL     1       4.869   4.078  16.149  0.00  0.00    +0.000 C 
ATOM     20  C   UNL     1       3.960   4.280  17.383  0.00  0.00    +0.000 C 
BRANCH  16  21
ATOM     21  C   UNL     1       6.798   4.938  14.792  0.00  0.00    +0.000 C 
BRANCH  21  22
ATOM     22  C   UNL     1       6.221   3.897  13.834  0.00  0.00    +0.000 C 
ATOM     23 CL   UNL     1       7.010   4.062  12.254  0.00  0.00    +0.000 Cl
ENDBRANCH  21  22
ENDBRANCH  16  21
ENDBRANCH  11  13
BRANCH   1  25
ATOM     24  C   UNL     1       1.930   2.618  21.172  0.00  0.00    +0.000 C 
ATOM     25  O   UNL     1       2.094   3.871  21.836  0.00  0.00    +0.000 OA
ENDBRANCH   1  25
TORSDOF 4
ENDMDL
MODEL 2
REMARK VINA RESULT:      -6.7      0.256      1.245
REMARK  Name = 
REMARK  5 active torsions:
REMARK  status: ('A' for Active; 'I' for Inactive)
REMARK    1  A    between atoms: C_1  and  O_2
REMARK    2  A    between atoms: O_2  and  C_3
REMARK    3  A    between atoms: C_13  and  N_14
REMARK    4  A    between atoms: N_17  and  C_18
REMARK    5  A    between atoms: C_18  and  C_19
REMARK                            x       y       z     vdW  Elec       q    Type
REMARK                         _______ _______ _______ _____ _____    ______ ____
ROOT
ATOM      1  C   UNL     1       2.336   4.838  21.074  0.00  0.00    +0.000 A 
ATOM      2  N   UNL     1       1.591   5.931  21.176  0.00  0.00    +0.000 NA
ATOM      3  C   UNL     1       1.793   6.883  20.284  0.00  0.00    +0.000 A 
ATOM      4  N   UNL     1       1.001   7.999  20.260  0.00  0.00    +0.000 N 
ATOM      5  C   UNL     1       1.161   9.041  19.253  0.00  0.00    +0.000 C 
ATOM      6  C   UNL     1       1.697  10.310  19.908  0.00  0.00    +0.000 C 
ATOM      7  C   UNL     1       0.797  10.740  21.065  0.00  0.00    +0.000 C 
ATOM      8  C   UNL     1       0.607   9.599  22.066  0.00  0.00    +0.000 C 
ATOM      9  C   UNL     1       0.115   8.321  21.381  0.00  0.00    +0.000 C 
ATOM     10  N   UNL     1       2.715   6.761  19.340  0.00  0.00    +0.000 NA
ATOM     11  C   UNL     1       3.401   5.635  19.326  0.00  0.00    +0.000 A 
ATOM     12  N   UNL     1       3.265   4.625  20.149  0.00  0.00    +0.000 NA
ENDROOT
BRANCH  11  13
ATOM     13  N   UNL     1       4.288   5.490  18.162  0.00  0.00    +0.000 NA
ATOM     14  C   UNL     1       4.254   6.739  17.266  0.00  0.00    +0.000 C 
ATOM     15  C   UNL     1       5.246   6.545  16.073  0.00  0.00    +0.000 C 
ATOM     16  N   UNL     1       5.936   5.144  16.159  0.00  0.00    +0.000 N 
ATOM     17  C   UNL     1       4.830   4.041  16.160  0.00  0.00    +0.000 C 
ATOM     18  C   UNL     1       3.840   4.265  17.345  0.00  0.00    +0.000 C 
ATOM     19  C   UNL     1       6.692   5.072  17.536  0.00  0.00    +0.000 C 
ATOM     20  C   UNL     1       5.707   5.279  18.710  0.00  0.00    +0.000 C 
BRANCH  16  21
ATOM     21  C   UNL     1       7.000   4.922  15.049  0.00  0.00    +0.000 C 
BRANCH  21  22
ATOM     22  C   UNL     1       6.511   4.159  13.819  0.00  0.00    +0.000 C 
ATOM     23 CL   UNL     1       7.436   4.691  12.402  0.00  0.00    +0.000 Cl
ENDBRANCH  21  22
ENDBRANCH  16  21
ENDBRANCH  11  13
BRANCH   1  25
ATOM     24  C   UNL     1       1.454   2.684  21.344  0.00  0.00    +0.000 C 
ATOM     25  O   UNL     1       2.143   3.785  21.936  0.00  0.00    +0.000 OA
ENDBRANCH   1  25
TORSDOF 4
ENDMDL
MODEL 3
REMARK VINA RESULT:      -6.6      0.889      1.523
REMARK  Name = 
REMARK  5 active torsions:
REMARK  status: ('A' for Active; 'I' for Inactive)
REMARK    1  A    between atoms: C_1  and  O_2
REMARK    2  A    between atoms: O_2  and  C_3
REMARK    3  A    between atoms: C_13  and  N_14
REMARK    4  A    between atoms: N_17  and  C_18
REMARK    5  A    between atoms: C_18  and  C_19
REMARK                            x       y       z     vdW  Elec       q    Type
REMARK                         _______ _______ _______ _____ _____    ______ ____
ROOT
ATOM      1  C   UNL     1       2.427   5.708  20.543  0.00  0.00    +0.000 A 
ATOM      2  N   UNL     1       1.757   6.844  20.390  0.00  0.00    +0.000 NA
ATOM      3  C   UNL     1       2.067   7.589  19.345  0.00  0.00    +0.000 A 
ATOM      4  N   UNL     1       1.359   8.725  19.061  0.00  0.00    +0.000 N 
ATOM      5  C   UNL     1       1.638   9.538  17.884  0.00  0.00    +0.000 C 
ATOM      6  C   UNL     1       2.233  10.876  18.313  0.00  0.00    +0.000 C 
ATOM      7  C   UNL     1       1.316  11.578  19.311  0.00  0.00    +0.000 C 
ATOM      8  C   UNL     1       0.999  10.668  20.501  0.00  0.00    +0.000 C 
ATOM      9  C   UNL     1       0.449   9.314  20.046  0.00  0.00    +0.000 C 
ATOM     10  N   UNL     1       3.020   7.229  18.498  0.00  0.00    +0.000 NA
ATOM     11  C   UNL     1       3.624   6.082  18.740  0.00  0.00    +0.000 A 
ATOM     12  N   UNL     1       3.379   5.263  19.732  0.00  0.00    +0.000 NA
ENDROOT
BRANCH  11  13
ATOM     13  N   UNL     1       4.550   5.658  17.678  0.00  0.00    +0.000 NA
ATOM     14  C   UNL     1       4.241   4.231  17.195  0.00  0.00    +0.000 C 
ATOM     15  C   UNL     1       5.225   3.853  16.040  0.00  0.00    +0.000 C 
ATOM     16  N   UNL     1       6.216   5.031  15.761  0.00  0.00    +0.000 N 
ATOM     17  C   UNL     1       6.989   5.357  17.078  0.00  0.00    +0.000 C 
ATOM     18  C   UNL     1       5.988   5.711  18.222  0.00  0.00    +0.000 C 
ATOM     19  C   UNL     1       5.358   6.292  15.379  0.00  0.00    +0.000 C 
ATOM     20  C   UNL     1       4.377   6.650  16.519  0.00  0.00    +0.000 C 
BRANCH  16  21
ATOM     21  C   UNL     1       7.167   4.753  14.564  0.00  0.00    +0.000 C 
BRANCH  21  22
ATOM     22  C   UNL     1       6.531   4.029  13.380  0.00  0.00    +0.000 C 
ATOM     23 CL   UNL     1       7.396   4.473  11.895  0.00  0.00    +0.000 Cl
ENDBRANCH  21  22
ENDBRANCH  16  21
ENDBRANCH  11  13
BRANCH   1  25
ATOM     24  C   UNL     1       1.680   3.571  21.146  0.00  0.00    +0.000 C 
ATOM     25  O   UNL     1       2.120   4.858  21.578  0.00  0.00    +0.000 OA
ENDBRANCH   1  25
TORSDOF 4
ENDMDL
MODEL 4
REMARK VINA RESULT:      -6.5      0.267      1.291
REMARK  Name = 
REMARK  5 active torsions:
REMARK  status: ('A' for Active; 'I' for Inactive)
REMARK    1  A    between atoms: C_1  and  O_2
REMARK    2  A    between atoms: O_2  and  C_3
REMARK    3  A    between atoms: C_13  and  N_14
REMARK    4  A    between atoms: N_17  and  C_18
REMARK    5  A    between atoms: C_18  and  C_19
REMARK                            x       y       z     vdW  Elec       q    Type
REMARK                         _______ _______ _______ _____ _____    ______ ____
ROOT
ATOM      1  C   UNL     1       2.370   4.754  21.059  0.00  0.00    +0.000 A 
ATOM      2  N   UNL     1       1.645   5.864  21.108  0.00  0.00    +0.000 NA
ATOM      3  C   UNL     1       1.859   6.765  20.166  0.00  0.00    +0.000 A 
ATOM      4  N   UNL     1       1.087   7.893  20.089  0.00  0.00    +0.000 N 
ATOM      5  C   UNL     1       1.260   8.878  19.029  0.00  0.00    +0.000 C 
ATOM      6  C   UNL     1       1.822  10.170  19.614  0.00  0.00    +0.000 C 
ATOM      7  C   UNL     1       0.938  10.675  20.752  0.00  0.00    +0.000 C 
ATOM      8  C   UNL     1       0.733   9.590  21.812  0.00  0.00    +0.000 C 
ATOM      9  C   UNL     1       0.214   8.289  21.197  0.00  0.00    +0.000 C 
ATOM     10  N   UNL     1       2.773   6.578  19.226  0.00  0.00    +0.000 NA
ATOM     11  C   UNL     1       3.438   5.440  19.267  0.00  0.00    +0.000 A 
ATOM     12  N   UNL     1       3.288   4.477  20.141  0.00  0.00    +0.000 NA
ENDROOT
BRANCH  11  13
ATOM     13  N   UNL     1       4.315   5.218  18.106  0.00  0.00    +0.000 NA
ATOM     14  C   UNL     1       3.843   4.024  17.260  0.00  0.00    +0.000 C 
ATOM     15  C   UNL     1       4.783   3.866  16.021  0.00  0.00    +0.000 C 
ATOM     16  N   UNL     1       5.909   4.952  16.048  0.00  0.00    +0.000 N 
ATOM     17  C   UNL     1       6.705   4.813  17.385  0.00  0.00    +0.000 C 
ATOM     18  C   UNL     1       5.745   4.954  18.607  0.00  0.00    +0.000 C 
ATOM     19  C   UNL     1       5.209   6.360  16.047  0.00  0.00    +0.000 C 
ATOM     20  C   UNL     1       4.269   6.504  17.266  0.00  0.00    +0.000 C 
BRANCH  16  21
ATOM     21  C   UNL     1       6.829   4.904  14.797  0.00  0.00    +0.000 C 
BRANCH  21  22
ATOM     22  C   UNL     1       6.341   4.007  13.663  0.00  0.00    +0.000 C 
ATOM     23 CL   UNL     1       7.265   4.375  12.193  0.00  0.00    +0.000 Cl
ENDBRANCH  21  22
ENDBRANCH  16  21
ENDBRANCH  11  13
BRANCH   1  25
ATOM     24  C   UNL     1       2.014   2.460  21.382  0.00  0.00    +0.000 C 
ATOM     25  O   UNL     1       2.162   3.750  21.975  0.00  0.00    +0.000 OA
ENDBRANCH   1  25
TORSDOF 4
ENDMDL
MODEL 5
REMARK VINA RESULT:      -6.3      0.866      1.547
REMARK  Name = 
REMARK  5 active torsions:
REMARK  status: ('A' for Active; 'I' for Inactive)
REMARK    1  A    between atoms: C_1  and  O_2
REMARK    2  A    between atoms: O_2  and  C_3
REMARK    3  A    between atoms: C_13  and  N_14
REMARK    4  A    between atoms: N_17  and  C_18
REMARK    5  A    between atoms: C_18  and  C_19
REMARK                            x       y       z     vdW  Elec       q    Type
REMARK                         _______ _______ _______ _____ _____    ______ ____
ROOT
ATOM      1  C   UNL     1       2.339   5.705  20.654  0.00  0.00    +0.000 A 
ATOM      2  N   UNL     1       1.662   6.838  20.516  0.00  0.00    +0.000 NA
ATOM      3  C   UNL     1       1.956   7.589  19.470  0.00  0.00    +0.000 A 
ATOM      4  N   UNL     1       1.239   8.724  19.201  0.00  0.00    +0.000 N 
ATOM      5  C   UNL     1       1.500   9.544  18.025  0.00  0.00    +0.000 C 
ATOM      6  C   UNL     1       2.095  10.883  18.453  0.00  0.00    +0.000 C 
ATOM      7  C   UNL     1       1.186  11.576  19.466  0.00  0.00    +0.000 C 
ATOM      8  C   UNL     1       0.888  10.658  20.655  0.00  0.00    +0.000 C 
ATOM      9  C   UNL     1       0.339   9.304  20.200  0.00  0.00    +0.000 C 
ATOM     10  N   UNL     1       2.900   7.238  18.609  0.00  0.00    +0.000 NA
ATOM     11  C   UNL     1       3.512   6.092  18.839  0.00  0.00    +0.000 A 
ATOM     12  N   UNL     1       3.282   5.267  19.829  0.00  0.00    +0.000 NA
ENDROOT
BRANCH  11  13
ATOM     13  N   UNL     1       4.426   5.678  17.764  0.00  0.00    +0.000 NA
ATOM     14  C   UNL     1       4.510   6.737  16.653  0.00  0.00    +0.000 C 
ATOM     15  C   UNL     1       5.527   6.264  15.564  0.00  0.00    +0.000 C 
ATOM     16  N   UNL     1       6.115   4.863  15.938  0.00  0.00    +0.000 N 
ATOM     17  C   UNL     1       4.935   3.851  16.090  0.00  0.00    +0.000 C 
ATOM     18  C   UNL     1       3.922   4.353  17.166  0.00  0.00    +0.000 C 
ATOM     19  C   UNL     1       6.815   5.003  17.340  0.00  0.00    +0.000 C 
ATOM     20  C   UNL     1       5.807   5.486  18.408  0.00  0.00    +0.000 C 
BRANCH  16  21
ATOM     21  C   UNL     1       7.199   4.372  14.940  0.00  0.00    +0.000 C 
BRANCH  21  22
ATOM     22  C   UNL     1       7.034   4.865  13.504  0.00  0.00    +0.000 C 
ATOM     23 CL   UNL     1       6.335   3.564  12.520  0.00  0.00    +0.000 Cl
ENDBRANCH  21  22
ENDBRANCH  16  21
ENDBRANCH  11  13
BRANCH   1  25
ATOM     24  C   UNL     1       2.278   3.475  21.373  0.00  0.00    +0.000 C 
ATOM     25  O   UNL     1       2.048   4.847  21.689  0.00  0.00    +0.000 OA
ENDBRANCH   1  25
TORSDOF 4
ENDMDL
MODEL 6
REMARK VINA RESULT:      -6.1      3.855      7.377
REMARK  Name = 
REMARK  5 active torsions:
REMARK  status: ('A' for Active; 'I' for Inactive)
REMARK    1  A    between atoms: C_1  and  O_2
REMARK    2  A    between atoms: O_2  and  C_3
REMARK    3  A    between atoms: C_13  and  N_14
REMARK    4  A    between atoms: N_17  and  C_18
REMARK    5  A    between atoms: C_18  and  C_19
REMARK                            x       y       z     vdW  Elec       q    Type
REMARK                         _______ _______ _______ _____ _____    ______ ____
ROOT
ATOM      1  C   UNL     1       4.217   6.811  17.097  0.00  0.00    +0.000 A 
ATOM      2  N   UNL     1       3.928   5.624  17.614  0.00  0.00    +0.000 NA
ATOM      3  C   UNL     1       2.920   5.568  18.465  0.00  0.00    +0.000 A 
ATOM      4  N   UNL     1       2.496   4.367  18.968  0.00  0.00    +0.000 N 
ATOM      5  C   UNL     1       1.350   4.265  19.864  0.00  0.00    +0.000 C 
ATOM      6  C   UNL     1       1.823   3.869  21.259  0.00  0.00    +0.000 C 
ATOM      7  C   UNL     1       2.647   2.584  21.204  0.00  0.00    +0.000 C 
ATOM      8  C   UNL     1       3.801   2.714  20.208  0.00  0.00    +0.000 C 
ATOM      9  C   UNL     1       3.311   3.159  18.828  0.00  0.00    +0.000 C 
ATOM     10  N   UNL     1       2.240   6.653  18.804  0.00  0.00    +0.000 NA
ATOM     11  C   UNL     1       2.608   7.783  18.232  0.00  0.00    +0.000 A 
ATOM     12  N   UNL     1       3.576   7.942  17.365  0.00  0.00    +0.000 NA
ENDROOT
BRANCH  11  13
ATOM     13  N   UNL     1       1.715   8.916  18.518  0.00  0.00    +0.000 NA
ATOM     14  C   UNL     1       0.443   8.865  17.656  0.00  0.00    +0.000 C 
ATOM     15  C   UNL     1      -0.486  10.065  18.034  0.00  0.00    +0.000 C 
ATOM     16  N   UNL     1       0.180  10.940  19.147  0.00  0.00    +0.000 N 
ATOM     17  C   UNL     1       1.566  11.439  18.629  0.00  0.00    +0.000 C 
ATOM     18  C   UNL     1       2.469  10.227  18.237  0.00  0.00    +0.000 C 
ATOM     19  C   UNL     1       0.435  10.011  20.391  0.00  0.00    +0.000 C 
ATOM     20  C   UNL     1       1.341   8.820  20.005  0.00  0.00    +0.000 C 
BRANCH  16  21
ATOM     21  C   UNL     1      -0.730  12.102  19.631  0.00  0.00    +0.000 C 
BRANCH  21  22
ATOM     22  C   UNL     1      -2.156  12.085  19.086  0.00  0.00    +0.000 C 
ATOM     23 CL   UNL     1      -3.271  12.618  20.360  0.00  0.00    +0.000 Cl
ENDBRANCH  21  22
ENDBRANCH  16  21
ENDBRANCH  11  13
BRANCH   1  25
ATOM     24  C   UNL     1       5.488   5.726  15.454  0.00  0.00    +0.000 C 
ATOM     25  O   UNL     1       5.220   6.935  16.164  0.00  0.00    +0.000 OA
ENDBRANCH   1  25
TORSDOF 4
ENDMDL
MODEL 7
REMARK VINA RESULT:      -6.0      3.717      7.236
REMARK  Name = 
REMARK  5 active torsions:
REMARK  status: ('A' for Active; 'I' for Inactive)
REMARK    1  A    between atoms: C_1  and  O_2
REMARK    2  A    between atoms: O_2  and  C_3
REMARK    3  A    between atoms: C_13  and  N_14
REMARK    4  A    between atoms: N_17  and  C_18
REMARK    5  A    between atoms: C_18  and  C_19
REMARK                            x       y       z     vdW  Elec       q    Type
REMARK                         _______ _______ _______ _____ _____    ______ ____
ROOT
ATOM      1  C   UNL     1       4.213   6.779  17.074  0.00  0.00    +0.000 A 
ATOM      2  N   UNL     1       3.927   5.592  17.594  0.00  0.00    +0.000 NA
ATOM      3  C   UNL     1       2.938   5.540  18.467  0.00  0.00    +0.000 A 
ATOM      4  N   UNL     1       2.517   4.341  18.976  0.00  0.00    +0.000 N 
ATOM      5  C   UNL     1       1.391   4.244  19.897  0.00  0.00    +0.000 C 
ATOM      6  C   UNL     1       1.892   3.840  21.280  0.00  0.00    +0.000 C 
ATOM      7  C   UNL     1       2.705   2.550  21.203  0.00  0.00    +0.000 C 
ATOM      8  C   UNL     1       3.838   2.675  20.181  0.00  0.00    +0.000 C 
ATOM      9  C   UNL     1       3.320   3.127  18.814  0.00  0.00    +0.000 C 
ATOM     10  N   UNL     1       2.274   6.629  18.825  0.00  0.00    +0.000 NA
ATOM     11  C   UNL     1       2.637   7.759  18.248  0.00  0.00    +0.000 A 
ATOM     12  N   UNL     1       3.586   7.914  17.359  0.00  0.00    +0.000 NA
ENDROOT
BRANCH  11  13
ATOM     13  N   UNL     1       1.758   8.897  18.558  0.00  0.00    +0.000 NA
ATOM     14  C   UNL     1       2.464  10.240  18.311  0.00  0.00    +0.000 C 
ATOM     15  C   UNL     1       1.471  11.409  18.613  0.00  0.00    +0.000 C 
ATOM     16  N   UNL     1       0.091  10.843  19.087  0.00  0.00    +0.000 N 
ATOM     17  C   UNL     1       0.323   9.956  20.352  0.00  0.00    +0.000 C 
ATOM     18  C   UNL     1       1.333   8.810  20.034  0.00  0.00    +0.000 C 
ATOM     19  C   UNL     1      -0.460   9.918  17.942  0.00  0.00    +0.000 C 
ATOM     20  C   UNL     1       0.534   8.773  17.639  0.00  0.00    +0.000 C 
BRANCH  16  21
ATOM     21  C   UNL     1      -0.971  11.952  19.322  0.00  0.00    +0.000 C 
BRANCH  21  22
ATOM     22  C   UNL     1      -1.969  12.151  18.183  0.00  0.00    +0.000 C 
ATOM     23 CL   UNL     1      -3.598  11.755  18.763  0.00  0.00    +0.000 Cl
ENDBRANCH  21  22
ENDBRANCH  16  21
ENDBRANCH  11  13
BRANCH   1  25
ATOM     24  C   UNL     1       5.624   5.646  15.584  0.00  0.00    +0.000 C 
ATOM     25  O   UNL     1       5.195   6.898  16.119  0.00  0.00    +0.000 OA
ENDBRANCH   1  25
TORSDOF 4
ENDMDL
MODEL 8
REMARK VINA RESULT:      -6.0      3.673      7.248
REMARK  Name = 
REMARK  5 active torsions:
REMARK  status: ('A' for Active; 'I' for Inactive)
REMARK    1  A    between atoms: C_1  and  O_2
REMARK    2  A    between atoms: O_2  and  C_3
REMARK    3  A    between atoms: C_13  and  N_14
REMARK    4  A    between atoms: N_17  and  C_18
REMARK    5  A    between atoms: C_18  and  C_19
REMARK                            x       y       z     vdW  Elec       q    Type
REMARK                         _______ _______ _______ _____ _____    ______ ____
ROOT
ATOM      1  C   UNL     1       4.137   6.822  17.083  0.00  0.00    +0.000 A 
ATOM      2  N   UNL     1       3.863   5.631  17.600  0.00  0.00    +0.000 NA
ATOM      3  C   UNL     1       2.888   5.570  18.488  0.00  0.00    +0.000 A 
ATOM      4  N   UNL     1       2.479   4.367  18.997  0.00  0.00    +0.000 N 
ATOM      5  C   UNL     1       1.369   4.260  19.936  0.00  0.00    +0.000 C 
ATOM      6  C   UNL     1       1.894   3.850  21.308  0.00  0.00    +0.000 C 
ATOM      7  C   UNL     1       2.710   2.563  21.210  0.00  0.00    +0.000 C 
ATOM      8  C   UNL     1       3.826   2.699  20.171  0.00  0.00    +0.000 C 
ATOM      9  C   UNL     1       3.284   3.157  18.815  0.00  0.00    +0.000 C 
ATOM     10  N   UNL     1       2.226   6.655  18.863  0.00  0.00    +0.000 NA
ATOM     11  C   UNL     1       2.576   7.789  18.287  0.00  0.00    +0.000 A 
ATOM     12  N   UNL     1       3.510   7.952  17.385  0.00  0.00    +0.000 NA
ENDROOT
BRANCH  11  13
ATOM     13  N   UNL     1       1.698   8.922  18.618  0.00  0.00    +0.000 NA
ATOM     14  C   UNL     1       1.303   8.917  20.103  0.00  0.00    +0.000 C 
ATOM     15  C   UNL     1       0.410  10.165  20.404  0.00  0.00    +0.000 C 
ATOM     16  N   UNL     1       0.187  11.003  19.102  0.00  0.00    +0.000 N 
ATOM     17  C   UNL     1      -0.469  10.085  18.022  0.00  0.00    +0.000 C 
ATOM     18  C   UNL     1       0.428   8.836  17.753  0.00  0.00    +0.000 C 
ATOM     19  C   UNL     1       1.602  11.439  18.572  0.00  0.00    +0.000 C 
ATOM     20  C   UNL     1       2.484  10.200  18.291  0.00  0.00    +0.000 C 
BRANCH  16  21
ATOM     21  C   UNL     1      -0.622  12.306  19.349  0.00  0.00    +0.000 C 
BRANCH  21  22
ATOM     22  C   UNL     1      -0.413  13.410  18.315  0.00  0.00    +0.000 C 
ATOM     23 CL   UNL     1       0.262  14.839  19.122  0.00  0.00    +0.000 Cl
ENDBRANCH  21  22
ENDBRANCH  16  21
ENDBRANCH  11  13
BRANCH   1  25
ATOM     24  C   UNL     1       5.560   5.701  15.596  0.00  0.00    +0.000 C 
ATOM     25  O   UNL     1       5.103   6.950  16.113  0.00  0.00    +0.000 OA
ENDBRANCH   1  25
TORSDOF 4
ENDMDL
MODEL 9
REMARK VINA RESULT:      -5.9      3.632      7.268
REMARK  Name = 
REMARK  5 active torsions:
REMARK  status: ('A' for Active; 'I' for Inactive)
REMARK    1  A    between atoms: C_1  and  O_2
REMARK    2  A    between atoms: O_2  and  C_3
REMARK    3  A    between atoms: C_13  and  N_14
REMARK    4  A    between atoms: N_17  and  C_18
REMARK    5  A    between atoms: C_18  and  C_19
REMARK                            x       y       z     vdW  Elec       q    Type
REMARK                         _______ _______ _______ _____ _____    ______ ____
ROOT
ATOM      1  C   UNL     1       4.127   6.819  17.018  0.00  0.00    +0.000 A 
ATOM      2  N   UNL     1       3.841   5.638  17.552  0.00  0.00    +0.000 NA
ATOM      3  C   UNL     1       2.878   5.605  18.455  0.00  0.00    +0.000 A 
ATOM      4  N   UNL     1       2.456   4.414  18.983  0.00  0.00    +0.000 N 
ATOM      5  C   UNL     1       1.358   4.337  19.939  0.00  0.00    +0.000 C 
ATOM      6  C   UNL     1       1.896   3.933  21.308  0.00  0.00    +0.000 C 
ATOM      7  C   UNL     1       2.688   2.631  21.213  0.00  0.00    +0.000 C 
ATOM      8  C   UNL     1       3.791   2.736  20.157  0.00  0.00    +0.000 C 
ATOM      9  C   UNL     1       3.237   3.189  18.803  0.00  0.00    +0.000 C 
ATOM     10  N   UNL     1       2.240   6.704  18.827  0.00  0.00    +0.000 NA
ATOM     11  C   UNL     1       2.601   7.826  18.234  0.00  0.00    +0.000 A 
ATOM     12  N   UNL     1       3.524   7.963  17.316  0.00  0.00    +0.000 NA
ENDROOT
BRANCH  11  13
ATOM     13  N   UNL     1       1.747   8.978  18.564  0.00  0.00    +0.000 NA
ATOM     14  C   UNL     1       2.474  10.310  18.316  0.00  0.00    +0.000 C 
ATOM     15  C   UNL     1       1.506  11.494  18.640  0.00  0.00    +0.000 C 
ATOM     16  N   UNL     1       0.123  10.950  19.131  0.00  0.00    +0.000 N 
ATOM     17  C   UNL     1       0.357  10.050  20.386  0.00  0.00    +0.000 C 
ATOM     18  C   UNL     1       1.341   8.887  20.046  0.00  0.00    +0.000 C 
ATOM     19  C   UNL     1      -0.461  10.043  17.987  0.00  0.00    +0.000 C 
ATOM     20  C   UNL     1       0.508   8.883  17.661  0.00  0.00    +0.000 C 
BRANCH  16  21
ATOM     21  C   UNL     1      -0.915  12.076  19.389  0.00  0.00    +0.000 C 
BRANCH  21  22
ATOM     22  C   UNL     1      -0.348  13.365  19.978  0.00  0.00    +0.000 C 
ATOM     23 CL   UNL     1      -0.298  14.608  18.713  0.00  0.00    +0.000 Cl
ENDBRANCH  21  22
ENDBRANCH  16  21
ENDBRANCH  11  13
BRANCH   1  25
ATOM     24  C   UNL     1       5.565   5.657  15.578  0.00  0.00    +0.000 C 
ATOM     25  O   UNL     1       5.081   6.920  16.033  0.00  0.00    +0.000 OA
ENDBRANCH   1  25
TORSDOF 4
ENDMDL
