MODEL 1
REMARK VINA RESULT:      -6.8      0.000      0.000
REMARK  Name = 
REMARK  9 active torsions:
REMARK  status: ('A' for Active; 'I' for Inactive)
REMARK    1  A    between atoms: C_1  and  O_2
REMARK    2  A    between atoms: O_2  and  C_3
REMARK    3  A    between atoms: C_6  and  C_7
REMARK    4  A    between atoms: C_7  and  N_8
REMARK    5  A    between atoms: N_8  and  C_21
REMARK    6  A    between atoms: C_9  and  C_11
REMARK    7  A    between atoms: C_19  and  C_20
REMARK    8  A    between atoms: C_29  and  O_30
REMARK    9  A    between atoms: O_30  and  C_31
REMARK                            x       y       z     vdW  Elec       q    Type
REMARK                         _______ _______ _______ _____ _____    ______ ____
ROOT
ATOM      1  N   UNL     1      -0.652  12.400  20.892  0.00  0.00    +0.000 N 
ATOM      2  C   UNL     1       0.692  11.928  20.800  0.00  0.00    +0.000 C 
ATOM      3  O   UNL     1       1.635  12.717  20.871  0.00  0.00    +0.000 OA
ENDROOT
BRANCH   2   4
ATOM      4  C   UNL     1       0.912  10.503  20.584  0.00  0.00    +0.000 A 
ATOM      5  O   UNL     1       1.246  10.115  19.325  0.00  0.00    +0.000 OA
ATOM      6  C   UNL     1       1.628   8.830  19.366  0.00  0.00    +0.000 A 
ATOM      7  C   UNL     1       2.254   8.184  18.309  0.00  0.00    +0.000 A 
ATOM      8  C   UNL     1       2.591   6.852  18.516  0.00  0.00    +0.000 A 
ATOM      9  C   UNL     1       2.254   6.214  19.715  0.00  0.00    +0.000 A 
ATOM     10  C   UNL     1       1.628   6.909  20.773  0.00  0.00    +0.000 A 
ATOM     11  C   UNL     1       1.347   8.282  20.609  0.00  0.00    +0.000 A 
ATOM     12  C   UNL     1       0.872   9.384  21.413  0.00  0.00    +0.000 A 
ATOM     13  C   UNL     1       0.519   9.380  22.864  0.00  0.00    +0.000 C 
ENDBRANCH   2   4
BRANCH   1  14
ATOM     14  C   UNL     1      -0.863  13.844  21.134  0.00  0.00    +0.000 C 
ATOM     15  C   UNL     1      -0.883  14.713  19.864  0.00  0.00    +0.000 C 
ATOM     16  C   UNL     1      -1.308  16.096  20.305  0.00  0.00    +0.000 C 
ATOM     17  S   UNL     1      -2.627  15.793  21.445  0.00  0.00    +0.000 S 
ATOM     18  O   UNL     1      -3.861  15.701  20.690  0.00  0.00    +0.000 OA
ATOM     19  O   UNL     1      -2.490  16.695  22.565  0.00  0.00    +0.000 OA
ATOM     20  C   UNL     1      -2.137  14.144  21.932  0.00  0.00    +0.000 C 
ENDBRANCH   1  14
BRANCH   1  21
ATOM     21  C   UNL     1      -1.815  11.568  20.529  0.00  0.00    +0.000 C 
BRANCH  21  25
ATOM     22  C   UNL     1      -3.496  11.174  16.595  0.00  0.00    +0.000 A 
ATOM     23  C   UNL     1      -2.112  11.252  16.775  0.00  0.00    +0.000 A 
ATOM     24  C   UNL     1      -1.578  11.506  18.037  0.00  0.00    +0.000 A 
ATOM     25  C   UNL     1      -2.411  11.725  19.144  0.00  0.00    +0.000 A 
ATOM     26  C   UNL     1      -3.790  11.834  18.910  0.00  0.00    +0.000 A 
ATOM     27  C   UNL     1      -4.342  11.546  17.649  0.00  0.00    +0.000 A 
BRANCH  22  29
ATOM     28  C   UNL     1      -3.057  10.061  14.583  0.00  0.00    +0.000 C 
ATOM     29  O   UNL     1      -4.014  10.745  15.401  0.00  0.00    +0.000 OA
ENDBRANCH  22  29
BRANCH  27  30
ATOM     30  O   UNL     1      -5.707  11.659  17.601  0.00  0.00    +0.000 OA
ATOM     31  C   UNL     1      -6.221  12.981  17.491  0.00  0.00    +0.000 C 
ENDBRANCH  27  30
ENDBRANCH  21  25
ENDBRANCH   1  21
TORSDOF 6
ENDMDL
MODEL 2
REMARK VINA RESULT:      -6.6      1.296      1.884
REMARK  Name = 
REMARK  9 active torsions:
REMARK  status: ('A' for Active; 'I' for Inactive)
REMARK    1  A    between atoms: C_1  and  O_2
REMARK    2  A    between atoms: O_2  and  C_3
REMARK    3  A    between atoms: C_6  and  C_7
REMARK    4  A    between atoms: C_7  and  N_8
REMARK    5  A    between atoms: N_8  and  C_21
REMARK    6  A    between atoms: C_9  and  C_11
REMARK    7  A    between atoms: C_19  and  C_20
REMARK    8  A    between atoms: C_29  and  O_30
REMARK    9  A    between atoms: O_30  and  C_31
REMARK                            x       y       z     vdW  Elec       q    Type
REMARK                         _______ _______ _______ _____ _____    ______ ____
ROOT
ATOM      1  N   UNL     1      -0.585  11.254  20.617  0.00  0.00    +0.000 N 
ATOM      2  C   UNL     1       0.831  11.079  20.588  0.00  0.00    +0.000 C 
ATOM      3  O   UNL     1       1.579  11.993  20.936  0.00  0.00    +0.000 OA
ENDROOT
BRANCH   2   4
ATOM      4  C   UNL     1       1.362   9.810  20.104  0.00  0.00    +0.000 A 
ATOM      5  O   UNL     1       1.375   8.773  20.981  0.00  0.00    +0.000 OA
ATOM      6  C   UNL     1       1.674   7.652  20.308  0.00  0.00    +0.000 A 
ATOM      7  C   UNL     1       1.543   6.379  20.845  0.00  0.00    +0.000 A 
ATOM      8  C   UNL     1       1.889   5.322  20.011  0.00  0.00    +0.000 A 
ATOM      9  C   UNL     1       2.389   5.567  18.728  0.00  0.00    +0.000 A 
ATOM     10  C   UNL     1       2.495   6.877  18.211  0.00  0.00    +0.000 A 
ATOM     11  C   UNL     1       2.076   7.958  19.016  0.00  0.00    +0.000 A 
ATOM     12  C   UNL     1       1.874   9.382  18.880  0.00  0.00    +0.000 A 
ATOM     13  C   UNL     1       2.053  10.225  17.662  0.00  0.00    +0.000 C 
ENDBRANCH   2   4
BRANCH   1  14
ATOM     14  C   UNL     1      -1.113  12.537  21.130  0.00  0.00    +0.000 C 
ATOM     15  C   UNL     1      -1.210  13.659  20.083  0.00  0.00    +0.000 C 
ATOM     16  C   UNL     1      -1.950  14.798  20.749  0.00  0.00    +0.000 C 
ATOM     17  S   UNL     1      -3.266  13.997  21.621  0.00  0.00    +0.000 S 
ATOM     18  O   UNL     1      -4.387  13.857  20.714  0.00  0.00    +0.000 OA
ATOM     19  O   UNL     1      -3.413  14.622  22.916  0.00  0.00    +0.000 OA
ATOM     20  C   UNL     1      -2.482  12.400  21.806  0.00  0.00    +0.000 C 
ENDBRANCH   1  14
BRANCH   1  21
ATOM     21  C   UNL     1      -1.516  10.324  19.950  0.00  0.00    +0.000 C 
BRANCH  21  25
ATOM     22  C   UNL     1      -3.319  10.570  16.058  0.00  0.00    +0.000 A 
ATOM     23  C   UNL     1      -2.054   9.998  16.224  0.00  0.00    +0.000 A 
ATOM     24  C   UNL     1      -1.421  10.033  17.465  0.00  0.00    +0.000 A 
ATOM     25  C   UNL     1      -2.016  10.674  18.562  0.00  0.00    +0.000 A 
ATOM     26  C   UNL     1      -3.190  11.406  18.331  0.00  0.00    +0.000 A 
ATOM     27  C   UNL     1      -3.855  11.348  17.093  0.00  0.00    +0.000 A 
BRANCH  22  29
ATOM     28  C   UNL     1      -3.204   9.890  13.821  0.00  0.00    +0.000 C 
ATOM     29  O   UNL     1      -4.018  10.376  14.895  0.00  0.00    +0.000 OA
ENDBRANCH  22  29
BRANCH  27  30
ATOM     30  O   UNL     1      -5.009  12.087  17.047  0.00  0.00    +0.000 OA
ATOM     31  C   UNL     1      -5.877  11.958  18.168  0.00  0.00    +0.000 C 
ENDBRANCH  27  30
ENDBRANCH  21  25
ENDBRANCH   1  21
TORSDOF 6
ENDMDL
MODEL 3
REMARK VINA RESULT:      -6.6      2.984      5.855
REMARK  Name = 
REMARK  9 active torsions:
REMARK  status: ('A' for Active; 'I' for Inactive)
REMARK    1  A    between atoms: C_1  and  O_2
REMARK    2  A    between atoms: O_2  and  C_3
REMARK    3  A    between atoms: C_6  and  C_7
REMARK    4  A    between atoms: C_7  and  N_8
REMARK    5  A    between atoms: N_8  and  C_21
REMARK    6  A    between atoms: C_9  and  C_11
REMARK    7  A    between atoms: C_19  and  C_20
REMARK    8  A    between atoms: C_29  and  O_30
REMARK    9  A    between atoms: O_30  and  C_31
REMARK                            x       y       z     vdW  Elec       q    Type
REMARK                         _______ _______ _______ _____ _____    ______ ____
ROOT
ATOM      1  N   UNL     1       0.888  14.607  20.271  0.00  0.00    +0.000 N 
ATOM      2  C   UNL     1       0.897  14.258  21.655  0.00  0.00    +0.000 C 
ATOM      3  O   UNL     1       1.957  14.221  22.281  0.00  0.00    +0.000 OA
ENDROOT
BRANCH   2   4
ATOM      4  C   UNL     1      -0.370  13.915  22.290  0.00  0.00    +0.000 A 
ATOM      5  O   UNL     1      -1.187  14.945  22.631  0.00  0.00    +0.000 OA
ATOM      6  C   UNL     1      -2.379  14.441  22.983  0.00  0.00    +0.000 A 
ATOM      7  C   UNL     1      -3.515  15.217  23.161  0.00  0.00    +0.000 A 
ATOM      8  C   UNL     1      -4.673  14.537  23.520  0.00  0.00    +0.000 A 
ATOM      9  C   UNL     1      -4.646  13.155  23.734  0.00  0.00    +0.000 A 
ATOM     10  C   UNL     1      -3.473  12.397  23.529  0.00  0.00    +0.000 A 
ATOM     11  C   UNL     1      -2.306  13.060  23.090  0.00  0.00    +0.000 A 
ATOM     12  C   UNL     1      -0.980  12.711  22.636  0.00  0.00    +0.000 A 
ATOM     13  C   UNL     1      -0.399  11.348  22.452  0.00  0.00    +0.000 C 
ENDBRANCH   2   4
BRANCH   1  14
ATOM     14  C   UNL     1       2.176  14.976  19.642  0.00  0.00    +0.000 C 
ATOM     15  C   UNL     1       2.423  14.343  18.261  0.00  0.00    +0.000 C 
ATOM     16  C   UNL     1       3.672  14.996  17.714  0.00  0.00    +0.000 C 
ATOM     17  S   UNL     1       3.466  16.708  18.113  0.00  0.00    +0.000 S 
ATOM     18  O   UNL     1       2.721  17.334  17.039  0.00  0.00    +0.000 OA
ATOM     19  O   UNL     1       4.734  17.236  18.561  0.00  0.00    +0.000 OA
ATOM     20  C   UNL     1       2.373  16.490  19.510  0.00  0.00    +0.000 C 
ENDBRANCH   1  14
BRANCH   1  21
ATOM     21  C   UNL     1      -0.285  14.392  19.403  0.00  0.00    +0.000 C 
BRANCH  21  25
ATOM     22  C   UNL     1      -2.067  10.657  18.248  0.00  0.00    +0.000 A 
ATOM     23  C   UNL     1      -2.831  11.650  18.870  0.00  0.00    +0.000 A 
ATOM     24  C   UNL     1      -2.223  12.806  19.356  0.00  0.00    +0.000 A 
ATOM     25  C   UNL     1      -0.834  12.985  19.266  0.00  0.00    +0.000 A 
ATOM     26  C   UNL     1      -0.065  11.901  18.816  0.00  0.00    +0.000 A 
ATOM     27  C   UNL     1      -0.670  10.745  18.292  0.00  0.00    +0.000 A 
BRANCH  22  29
ATOM     28  C   UNL     1      -3.006   9.895  16.243  0.00  0.00    +0.000 C 
ATOM     29  O   UNL     1      -2.683   9.612  17.610  0.00  0.00    +0.000 OA
ENDBRANCH  22  29
BRANCH  27  30
ATOM     30  O   UNL     1       0.223   9.800  17.856  0.00  0.00    +0.000 OA
ATOM     31  C   UNL     1       1.573   9.982  18.265  0.00  0.00    +0.000 C 
ENDBRANCH  27  30
ENDBRANCH  21  25
ENDBRANCH   1  21
TORSDOF 6
ENDMDL
MODEL 4
REMARK VINA RESULT:      -6.5      2.603      6.327
REMARK  Name = 
REMARK  9 active torsions:
REMARK  status: ('A' for Active; 'I' for Inactive)
REMARK    1  A    between atoms: C_1  and  O_2
REMARK    2  A    between atoms: O_2  and  C_3
REMARK    3  A    between atoms: C_6  and  C_7
REMARK    4  A    between atoms: C_7  and  N_8
REMARK    5  A    between atoms: N_8  and  C_21
REMARK    6  A    between atoms: C_9  and  C_11
REMARK    7  A    between atoms: C_19  and  C_20
REMARK    8  A    between atoms: C_29  and  O_30
REMARK    9  A    between atoms: O_30  and  C_31
REMARK                            x       y       z     vdW  Elec       q    Type
REMARK                         _______ _______ _______ _____ _____    ______ ____
ROOT
ATOM      1  N   UNL     1       0.302  12.907  20.524  0.00  0.00    +0.000 N 
ATOM      2  C   UNL     1       0.376  14.199  21.127  0.00  0.00    +0.000 C 
ATOM      3  O   UNL     1       0.586  14.311  22.335  0.00  0.00    +0.000 OA
ENDROOT
BRANCH   2   4
ATOM      4  C   UNL     1       0.161  15.370  20.283  0.00  0.00    +0.000 A 
ATOM      5  O   UNL     1       1.238  15.846  19.606  0.00  0.00    +0.000 OA
ATOM      6  C   UNL     1       0.811  16.761  18.723  0.00  0.00    +0.000 A 
ATOM      7  C   UNL     1       1.607  17.277  17.710  0.00  0.00    +0.000 A 
ATOM      8  C   UNL     1       1.009  18.214  16.875  0.00  0.00    +0.000 A 
ATOM      9  C   UNL     1      -0.306  18.631  17.106  0.00  0.00    +0.000 A 
ATOM     10  C   UNL     1      -1.089  18.073  18.140  0.00  0.00    +0.000 A 
ATOM     11  C   UNL     1      -0.523  17.064  18.950  0.00  0.00    +0.000 A 
ATOM     12  C   UNL     1      -0.953  16.149  19.981  0.00  0.00    +0.000 A 
ATOM     13  C   UNL     1      -2.326  15.972  20.540  0.00  0.00    +0.000 C 
ENDBRANCH   2   4
BRANCH   1  14
ATOM     14  C   UNL     1       0.543  11.728  21.384  0.00  0.00    +0.000 C 
ATOM     15  C   UNL     1      -0.605  11.391  22.351  0.00  0.00    +0.000 C 
ATOM     16  C   UNL     1      -0.252  10.060  22.979  0.00  0.00    +0.000 C 
ATOM     17  S   UNL     1       0.356   9.099  21.623  0.00  0.00    +0.000 S 
ATOM     18  O   UNL     1      -0.775   8.451  20.989  0.00  0.00    +0.000 OA
ATOM     19  O   UNL     1       1.508   8.348  22.066  0.00  0.00    +0.000 OA
ATOM     20  C   UNL     1       0.882  10.460  20.591  0.00  0.00    +0.000 C 
ENDBRANCH   1  14
BRANCH   1  21
ATOM     21  C   UNL     1      -0.227  12.693  19.164  0.00  0.00    +0.000 C 
BRANCH  21  25
ATOM     22  C   UNL     1      -4.215  11.398  18.229  0.00  0.00    +0.000 A 
ATOM     23  C   UNL     1      -3.974  12.228  19.328  0.00  0.00    +0.000 A 
ATOM     24  C   UNL     1      -2.668  12.542  19.701  0.00  0.00    +0.000 A 
ATOM     25  C   UNL     1      -1.571  12.007  19.010  0.00  0.00    +0.000 A 
ATOM     26  C   UNL     1      -1.826  11.029  18.037  0.00  0.00    +0.000 A 
ATOM     27  C   UNL     1      -3.139  10.731  17.630  0.00  0.00    +0.000 A 
BRANCH  22  29
ATOM     28  C   UNL     1      -6.051  12.446  17.221  0.00  0.00    +0.000 C 
ATOM     29  O   UNL     1      -5.490  11.238  17.752  0.00  0.00    +0.000 OA
ENDBRANCH  22  29
BRANCH  27  30
ATOM     30  O   UNL     1      -3.212   9.784  16.641  0.00  0.00    +0.000 OA
ATOM     31  C   UNL     1      -2.877  10.225  15.330  0.00  0.00    +0.000 C 
ENDBRANCH  27  30
ENDBRANCH  21  25
ENDBRANCH   1  21
TORSDOF 6
ENDMDL
MODEL 5
REMARK VINA RESULT:      -6.5      1.404      2.289
REMARK  Name = 
REMARK  9 active torsions:
REMARK  status: ('A' for Active; 'I' for Inactive)
REMARK    1  A    between atoms: C_1  and  O_2
REMARK    2  A    between atoms: O_2  and  C_3
REMARK    3  A    between atoms: C_6  and  C_7
REMARK    4  A    between atoms: C_7  and  N_8
REMARK    5  A    between atoms: N_8  and  C_21
REMARK    6  A    between atoms: C_9  and  C_11
REMARK    7  A    between atoms: C_19  and  C_20
REMARK    8  A    between atoms: C_29  and  O_30
REMARK    9  A    between atoms: O_30  and  C_31
REMARK                            x       y       z     vdW  Elec       q    Type
REMARK                         _______ _______ _______ _____ _____    ______ ____
ROOT
ATOM      1  N   UNL     1      -0.671  10.849  20.723  0.00  0.00    +0.000 N 
ATOM      2  C   UNL     1       0.749  10.706  20.762  0.00  0.00    +0.000 C 
ATOM      3  O   UNL     1       1.453  11.602  21.227  0.00  0.00    +0.000 OA
ENDROOT
BRANCH   2   4
ATOM      4  C   UNL     1       1.337   9.493  20.204  0.00  0.00    +0.000 A 
ATOM      5  O   UNL     1       1.395   8.407  21.018  0.00  0.00    +0.000 OA
ATOM      6  C   UNL     1       1.745   7.343  20.280  0.00  0.00    +0.000 A 
ATOM      7  C   UNL     1       1.671   6.036  20.739  0.00  0.00    +0.000 A 
ATOM      8  C   UNL     1       2.066   5.047  19.844  0.00  0.00    +0.000 A 
ATOM      9  C   UNL     1       2.557   5.391  18.581  0.00  0.00    +0.000 A 
ATOM     10  C   UNL     1       2.604   6.733  18.144  0.00  0.00    +0.000 A 
ATOM     11  C   UNL     1       2.136   7.744  19.011  0.00  0.00    +0.000 A 
ATOM     12  C   UNL     1       1.870   9.163  18.960  0.00  0.00    +0.000 A 
ATOM     13  C   UNL     1       2.013  10.085  17.795  0.00  0.00    +0.000 C 
ENDBRANCH   2   4
BRANCH   1  14
ATOM     14  C   UNL     1      -1.258  12.073  21.311  0.00  0.00    +0.000 C 
ATOM     15  C   UNL     1      -1.087  12.202  22.835  0.00  0.00    +0.000 C 
ATOM     16  C   UNL     1      -1.565  13.590  23.199  0.00  0.00    +0.000 C 
ATOM     17  S   UNL     1      -0.885  14.620  21.930  0.00  0.00    +0.000 S 
ATOM     18  O   UNL     1       0.447  15.018  22.340  0.00  0.00    +0.000 OA
ATOM     19  O   UNL     1      -1.879  15.593  21.539  0.00  0.00    +0.000 OA
ATOM     20  C   UNL     1      -0.738  13.364  20.666  0.00  0.00    +0.000 C 
ENDBRANCH   1  14
BRANCH   1  21
ATOM     21  C   UNL     1      -1.540   9.961  19.929  0.00  0.00    +0.000 C 
BRANCH  21  25
ATOM     22  C   UNL     1      -3.396  10.635  16.113  0.00  0.00    +0.000 A 
ATOM     23  C   UNL     1      -2.151  10.005  16.200  0.00  0.00    +0.000 A 
ATOM     24  C   UNL     1      -1.496   9.901  17.426  0.00  0.00    +0.000 A 
ATOM     25  C   UNL     1      -2.050  10.456  18.589  0.00  0.00    +0.000 A 
ATOM     26  C   UNL     1      -3.199  11.248  18.451  0.00  0.00    +0.000 A 
ATOM     27  C   UNL     1      -3.885  11.331  17.226  0.00  0.00    +0.000 A 
BRANCH  22  29
ATOM     28  C   UNL     1      -3.379  10.037  13.849  0.00  0.00    +0.000 C 
ATOM     29  O   UNL     1      -4.120  10.575  14.951  0.00  0.00    +0.000 OA
ENDBRANCH  22  29
BRANCH  27  30
ATOM     30  O   UNL     1      -5.012  12.110  17.272  0.00  0.00    +0.000 OA
ATOM     31  C   UNL     1      -5.529  12.384  18.569  0.00  0.00    +0.000 C 
ENDBRANCH  27  30
ENDBRANCH  21  25
ENDBRANCH   1  21
TORSDOF 6
ENDMDL
MODEL 6
REMARK VINA RESULT:      -6.4      1.220      1.531
REMARK  Name = 
REMARK  9 active torsions:
REMARK  status: ('A' for Active; 'I' for Inactive)
REMARK    1  A    between atoms: C_1  and  O_2
REMARK    2  A    between atoms: O_2  and  C_3
REMARK    3  A    between atoms: C_6  and  C_7
REMARK    4  A    between atoms: C_7  and  N_8
REMARK    5  A    between atoms: N_8  and  C_21
REMARK    6  A    between atoms: C_9  and  C_11
REMARK    7  A    between atoms: C_19  and  C_20
REMARK    8  A    between atoms: C_29  and  O_30
REMARK    9  A    between atoms: O_30  and  C_31
REMARK                            x       y       z     vdW  Elec       q    Type
REMARK                         _______ _______ _______ _____ _____    ______ ____
ROOT
ATOM      1  N   UNL     1      -0.639  12.365  20.566  0.00  0.00    +0.000 N 
ATOM      2  C   UNL     1       0.710  11.909  20.476  0.00  0.00    +0.000 C 
ATOM      3  O   UNL     1       1.643  12.713  20.507  0.00  0.00    +0.000 OA
ENDROOT
BRANCH   2   4
ATOM      4  C   UNL     1       0.949  10.479  20.311  0.00  0.00    +0.000 A 
ATOM      5  O   UNL     1       1.258  10.046  19.061  0.00  0.00    +0.000 OA
ATOM      6  C   UNL     1       1.662   8.770  19.143  0.00  0.00    +0.000 A 
ATOM      7  C   UNL     1       2.272   8.092  18.097  0.00  0.00    +0.000 A 
ATOM      8  C   UNL     1       2.636   6.775  18.349  0.00  0.00    +0.000 A 
ATOM      9  C   UNL     1       2.340   6.181  19.579  0.00  0.00    +0.000 A 
ATOM     10  C   UNL     1       1.729   6.907  20.625  0.00  0.00    +0.000 A 
ATOM     11  C   UNL     1       1.421   8.269  20.414  0.00  0.00    +0.000 A 
ATOM     12  C   UNL     1       0.949   9.394  21.185  0.00  0.00    +0.000 A 
ATOM     13  C   UNL     1       0.632   9.443  22.643  0.00  0.00    +0.000 C 
ENDBRANCH   2   4
BRANCH   1  14
ATOM     14  C   UNL     1      -0.868  13.814  20.755  0.00  0.00    +0.000 C 
ATOM     15  C   UNL     1      -0.249  14.402  22.035  0.00  0.00    +0.000 C 
ATOM     16  C   UNL     1      -0.417  15.902  21.936  0.00  0.00    +0.000 C 
ATOM     17  S   UNL     1      -0.006  16.266  20.254  0.00  0.00    +0.000 S 
ATOM     18  O   UNL     1       1.427  16.466  20.174  0.00  0.00    +0.000 OA
ATOM     19  O   UNL     1      -0.937  17.251  19.751  0.00  0.00    +0.000 OA
ATOM     20  C   UNL     1      -0.395  14.661  19.568  0.00  0.00    +0.000 C 
ENDBRANCH   1  14
BRANCH   1  21
ATOM     21  C   UNL     1      -1.793  11.503  20.248  0.00  0.00    +0.000 C 
BRANCH  21  25
ATOM     22  C   UNL     1      -3.610  11.053  16.381  0.00  0.00    +0.000 A 
ATOM     23  C   UNL     1      -2.222  11.160  16.509  0.00  0.00    +0.000 A 
ATOM     24  C   UNL     1      -1.647  11.432  17.749  0.00  0.00    +0.000 A 
ATOM     25  C   UNL     1      -2.444  11.640  18.885  0.00  0.00    +0.000 A 
ATOM     26  C   UNL     1      -3.832  11.720  18.702  0.00  0.00    +0.000 A 
ATOM     27  C   UNL     1      -4.424  11.414  17.463  0.00  0.00    +0.000 A 
BRANCH  22  29
ATOM     28  C   UNL     1      -3.205  10.022  14.318  0.00  0.00    +0.000 C 
ATOM     29  O   UNL     1      -4.163  10.607  15.208  0.00  0.00    +0.000 OA
ENDBRANCH  22  29
BRANCH  27  30
ATOM     30  O   UNL     1      -5.792  11.499  17.465  0.00  0.00    +0.000 OA
ATOM     31  C   UNL     1      -6.448  10.967  18.610  0.00  0.00    +0.000 C 
ENDBRANCH  27  30
ENDBRANCH  21  25
ENDBRANCH   1  21
TORSDOF 6
ENDMDL
MODEL 7
REMARK VINA RESULT:      -6.3      3.193      6.829
REMARK  Name = 
REMARK  9 active torsions:
REMARK  status: ('A' for Active; 'I' for Inactive)
REMARK    1  A    between atoms: C_1  and  O_2
REMARK    2  A    between atoms: O_2  and  C_3
REMARK    3  A    between atoms: C_6  and  C_7
REMARK    4  A    between atoms: C_7  and  N_8
REMARK    5  A    between atoms: N_8  and  C_21
REMARK    6  A    between atoms: C_9  and  C_11
REMARK    7  A    between atoms: C_19  and  C_20
REMARK    8  A    between atoms: C_29  and  O_30
REMARK    9  A    between atoms: O_30  and  C_31
REMARK                            x       y       z     vdW  Elec       q    Type
REMARK                         _______ _______ _______ _____ _____    ______ ____
ROOT
ATOM      1  N   UNL     1      -3.833  14.363  23.466  0.00  0.00    +0.000 N 
ATOM      2  C   UNL     1      -5.065  14.689  22.824  0.00  0.00    +0.000 C 
ATOM      3  O   UNL     1      -5.594  15.785  23.012  0.00  0.00    +0.000 OA
ENDROOT
BRANCH   2   4
ATOM      4  C   UNL     1      -5.692  13.681  21.976  0.00  0.00    +0.000 A 
ATOM      5  O   UNL     1      -5.285  13.627  20.681  0.00  0.00    +0.000 OA
ATOM      6  C   UNL     1      -5.789  12.515  20.125  0.00  0.00    +0.000 A 
ATOM      7  C   UNL     1      -5.385  12.026  18.891  0.00  0.00    +0.000 A 
ATOM      8  C   UNL     1      -6.002  10.857  18.461  0.00  0.00    +0.000 A 
ATOM      9  C   UNL     1      -7.008  10.263  19.231  0.00  0.00    +0.000 A 
ATOM     10  C   UNL     1      -7.382  10.783  20.489  0.00  0.00    +0.000 A 
ATOM     11  C   UNL     1      -6.712  11.927  20.976  0.00  0.00    +0.000 A 
ATOM     12  C   UNL     1      -6.652  12.696  22.197  0.00  0.00    +0.000 A 
ATOM     13  C   UNL     1      -7.368  12.442  23.482  0.00  0.00    +0.000 C 
ENDBRANCH   2   4
BRANCH   1  14
ATOM     14  C   UNL     1      -3.195  15.400  24.306  0.00  0.00    +0.000 C 
ATOM     15  C   UNL     1      -2.448  14.861  25.538  0.00  0.00    +0.000 C 
ATOM     16  C   UNL     1      -1.710  16.039  26.134  0.00  0.00    +0.000 C 
ATOM     17  S   UNL     1      -1.039  16.877  24.727  0.00  0.00    +0.000 S 
ATOM     18  O   UNL     1       0.247  16.282  24.420  0.00  0.00    +0.000 OA
ATOM     19  O   UNL     1      -1.187  18.301  24.920  0.00  0.00    +0.000 OA
ATOM     20  C   UNL     1      -2.231  16.302  23.525  0.00  0.00    +0.000 C 
ENDBRANCH   1  14
BRANCH   1  21
ATOM     21  C   UNL     1      -3.301  12.987  23.517  0.00  0.00    +0.000 C 
BRANCH  21  25
ATOM     22  C   UNL     1       0.151  12.363  21.037  0.00  0.00    +0.000 A 
ATOM     23  C   UNL     1      -0.780  13.359  20.727  0.00  0.00    +0.000 A 
ATOM     24  C   UNL     1      -1.960  13.475  21.460  0.00  0.00    +0.000 A 
ATOM     25  C   UNL     1      -2.257  12.577  22.496  0.00  0.00    +0.000 A 
ATOM     26  C   UNL     1      -1.409  11.473  22.667  0.00  0.00    +0.000 A 
ATOM     27  C   UNL     1      -0.200  11.366  21.957  0.00  0.00    +0.000 A 
BRANCH  22  29
ATOM     28  C   UNL     1       1.382  11.784  19.132  0.00  0.00    +0.000 C 
ATOM     29  O   UNL     1       1.386  12.362  20.442  0.00  0.00    +0.000 OA
ENDBRANCH  22  29
BRANCH  27  30
ATOM     30  O   UNL     1       0.532  10.250  22.272  0.00  0.00    +0.000 OA
ATOM     31  C   UNL     1       0.052   9.479  23.367  0.00  0.00    +0.000 C 
ENDBRANCH  27  30
ENDBRANCH  21  25
ENDBRANCH   1  21
TORSDOF 6
ENDMDL
MODEL 8
REMARK VINA RESULT:      -6.3      5.612      9.365
REMARK  Name = 
REMARK  9 active torsions:
REMARK  status: ('A' for Active; 'I' for Inactive)
REMARK    1  A    between atoms: C_1  and  O_2
REMARK    2  A    between atoms: O_2  and  C_3
REMARK    3  A    between atoms: C_6  and  C_7
REMARK    4  A    between atoms: C_7  and  N_8
REMARK    5  A    between atoms: N_8  and  C_21
REMARK    6  A    between atoms: C_9  and  C_11
REMARK    7  A    between atoms: C_19  and  C_20
REMARK    8  A    between atoms: C_29  and  O_30
REMARK    9  A    between atoms: O_30  and  C_31
REMARK                            x       y       z     vdW  Elec       q    Type
REMARK                         _______ _______ _______ _____ _____    ______ ____
ROOT
ATOM      1  N   UNL     1       3.739   4.965  17.964  0.00  0.00    +0.000 N 
ATOM      2  C   UNL     1       4.765   4.014  17.676  0.00  0.00    +0.000 C 
ATOM      3  O   UNL     1       4.930   3.036  18.406  0.00  0.00    +0.000 OA
ENDROOT
BRANCH   2   4
ATOM      4  C   UNL     1       5.627   4.254  16.524  0.00  0.00    +0.000 A 
ATOM      5  O   UNL     1       5.431   3.466  15.435  0.00  0.00    +0.000 OA
ATOM      6  C   UNL     1       6.140   3.971  14.414  0.00  0.00    +0.000 A 
ATOM      7  C   UNL     1       5.990   3.557  13.099  0.00  0.00    +0.000 A 
ATOM      8  C   UNL     1       6.797   4.187  12.160  0.00  0.00    +0.000 A 
ATOM      9  C   UNL     1       7.736   5.143  12.561  0.00  0.00    +0.000 A 
ATOM     10  C   UNL     1       7.850   5.549  13.908  0.00  0.00    +0.000 A 
ATOM     11  C   UNL     1       6.986   4.974  14.865  0.00  0.00    +0.000 A 
ATOM     12  C   UNL     1       6.650   5.161  16.257  0.00  0.00    +0.000 A 
ATOM     13  C   UNL     1       7.186   6.182  17.205  0.00  0.00    +0.000 C 
ENDBRANCH   2   4
BRANCH   1  14
ATOM     14  C   UNL     1       2.857   4.700  19.122  0.00  0.00    +0.000 C 
ATOM     15  C   UNL     1       1.478   4.122  18.761  0.00  0.00    +0.000 C 
ATOM     16  C   UNL     1       0.824   3.739  20.070  0.00  0.00    +0.000 C 
ATOM     17  S   UNL     1       2.127   2.971  20.988  0.00  0.00    +0.000 S 
ATOM     18  O   UNL     1       2.154   1.564  20.640  0.00  0.00    +0.000 OA
ATOM     19  O   UNL     1       2.048   3.410  22.363  0.00  0.00    +0.000 OA
ATOM     20  C   UNL     1       3.495   3.783  20.172  0.00  0.00    +0.000 C 
ENDBRANCH   1  14
BRANCH   1  21
ATOM     21  C   UNL     1       3.675   6.288  17.314  0.00  0.00    +0.000 C 
BRANCH  21  25
ATOM     22  C   UNL     1       1.211   9.323  19.096  0.00  0.00    +0.000 A 
ATOM     23  C   UNL     1       1.877   9.561  17.890  0.00  0.00    +0.000 A 
ATOM     24  C   UNL     1       2.773   8.622  17.381  0.00  0.00    +0.000 A 
ATOM     25  C   UNL     1       3.055   7.440  18.081  0.00  0.00    +0.000 A 
ATOM     26  C   UNL     1       2.529   7.306  19.375  0.00  0.00    +0.000 A 
ATOM     27  C   UNL     1       1.598   8.230  19.883  0.00  0.00    +0.000 A 
BRANCH  22  29
ATOM     28  C   UNL     1      -0.838  10.300  18.526  0.00  0.00    +0.000 C 
ATOM     29  O   UNL     1       0.200  10.154  19.502  0.00  0.00    +0.000 OA
ENDBRANCH  22  29
BRANCH  27  30
ATOM     30  O   UNL     1       1.150   7.930  21.144  0.00  0.00    +0.000 OA
ATOM     31  C   UNL     1       1.422   8.900  22.149  0.00  0.00    +0.000 C 
ENDBRANCH  27  30
ENDBRANCH  21  25
ENDBRANCH   1  21
TORSDOF 6
ENDMDL
MODEL 9
REMARK VINA RESULT:      -6.3      0.839      1.998
REMARK  Name = 
REMARK  9 active torsions:
REMARK  status: ('A' for Active; 'I' for Inactive)
REMARK    1  A    between atoms: C_1  and  O_2
REMARK    2  A    between atoms: O_2  and  C_3
REMARK    3  A    between atoms: C_6  and  C_7
REMARK    4  A    between atoms: C_7  and  N_8
REMARK    5  A    between atoms: N_8  and  C_21
REMARK    6  A    between atoms: C_9  and  C_11
REMARK    7  A    between atoms: C_19  and  C_20
REMARK    8  A    between atoms: C_29  and  O_30
REMARK    9  A    between atoms: O_30  and  C_31
REMARK                            x       y       z     vdW  Elec       q    Type
REMARK                         _______ _______ _______ _____ _____    ______ ____
ROOT
ATOM      1  N   UNL     1      -0.091  13.078  19.766  0.00  0.00    +0.000 N 
ATOM      2  C   UNL     1       0.724  12.300  20.642  0.00  0.00    +0.000 C 
ATOM      3  O   UNL     1       1.263  12.822  21.618  0.00  0.00    +0.000 OA
ENDROOT
BRANCH   2   4
ATOM      4  C   UNL     1       0.929  10.891  20.328  0.00  0.00    +0.000 A 
ATOM      5  O   UNL     1       1.304  10.591  19.057  0.00  0.00    +0.000 OA
ATOM      6  C   UNL     1       1.663   9.299  19.015  0.00  0.00    +0.000 A 
ATOM      7  C   UNL     1       2.317   8.722  17.936  0.00  0.00    +0.000 A 
ATOM      8  C   UNL     1       2.624   7.372  18.055  0.00  0.00    +0.000 A 
ATOM      9  C   UNL     1       2.232   6.653  19.189  0.00  0.00    +0.000 A 
ATOM     10  C   UNL     1       1.579   7.280  20.273  0.00  0.00    +0.000 A 
ATOM     11  C   UNL     1       1.327   8.667  20.203  0.00  0.00    +0.000 A 
ATOM     12  C   UNL     1       0.840   9.714  21.069  0.00  0.00    +0.000 A 
ATOM     13  C   UNL     1       0.433   9.610  22.501  0.00  0.00    +0.000 C 
ENDBRANCH   2   4
BRANCH   1  14
ATOM     14  C   UNL     1      -0.310  14.501  20.106  0.00  0.00    +0.000 C 
ATOM     15  C   UNL     1      -0.598  15.414  18.902  0.00  0.00    +0.000 C 
ATOM     16  C   UNL     1      -0.988  16.759  19.474  0.00  0.00    +0.000 C 
ATOM     17  S   UNL     1      -2.062  16.352  20.822  0.00  0.00    +0.000 S 
ATOM     18  O   UNL     1      -3.409  16.231  20.302  0.00  0.00    +0.000 OA
ATOM     19  O   UNL     1      -1.755  17.218  21.937  0.00  0.00    +0.000 OA
ATOM     20  C   UNL     1      -1.426  14.712  21.137  0.00  0.00    +0.000 C 
ENDBRANCH   1  14
BRANCH   1  21
ATOM     21  C   UNL     1      -0.522  12.595  18.440  0.00  0.00    +0.000 C 
BRANCH  21  25
ATOM     22  C   UNL     1      -4.649  11.528  17.905  0.00  0.00    +0.000 A 
ATOM     23  C   UNL     1      -4.169  11.915  19.160  0.00  0.00    +0.000 A 
ATOM     24  C   UNL     1      -2.807  12.138  19.356  0.00  0.00    +0.000 A 
ATOM     25  C   UNL     1      -1.886  11.945  18.315  0.00  0.00    +0.000 A 
ATOM     26  C   UNL     1      -2.358  11.373  17.124  0.00  0.00    +0.000 A 
ATOM     27  C   UNL     1      -3.733  11.177  16.904  0.00  0.00    +0.000 A 
BRANCH  22  29
ATOM     28  C   UNL     1      -6.788  11.630  18.851  0.00  0.00    +0.000 C 
ATOM     29  O   UNL     1      -5.998  11.488  17.664  0.00  0.00    +0.000 OA
ENDBRANCH  22  29
BRANCH  27  30
ATOM     30  O   UNL     1      -4.029  10.651  15.673  0.00  0.00    +0.000 OA
ATOM     31  C   UNL     1      -2.915  10.282  14.868  0.00  0.00    +0.000 C 
ENDBRANCH  27  30
ENDBRANCH  21  25
ENDBRANCH   1  21
TORSDOF 6
ENDMDL
