MODEL 1
REMARK VINA RESULT:      -8.1      0.000      0.000
REMARK  Name = 
REMARK  7 active torsions:
REMARK  status: ('A' for Active; 'I' for Inactive)
REMARK    1  A    between atoms: C_1  and  C_2
REMARK    2  A    between atoms: C_2  and  C_3
REMARK    3  A    between atoms: C_2  and  C_4
REMARK    4  A    between atoms: C_4  and  N_5
REMARK    5  A    between atoms: C_6  and  C_7
REMARK    6  A    between atoms: C_7  and  N_8
REMARK    7  A    between atoms: C_9  and  C_11
REMARK                            x       y       z     vdW  Elec       q    Type
REMARK                         _______ _______ _______ _____ _____    ______ ____
ROOT
ATOM      1  N   UNL     1       2.990   5.495  19.524  0.00  0.00    +0.000 N 
ATOM      2  C   UNL     1       3.589   5.326  18.289  0.00  0.00    +0.000 A 
ATOM      3  N   UNL     1       3.381   6.384  17.523  0.00  0.00    +0.000 NA
ATOM      4  C   UNL     1       2.677   7.274  18.288  0.00  0.00    +0.000 A 
ATOM      5  C   UNL     1       2.232   8.566  17.964  0.00  0.00    +0.000 A 
ATOM      6  C   UNL     1       1.509   9.290  18.915  0.00  0.00    +0.000 A 
ATOM      7  C   UNL     1       1.239   8.742  20.169  0.00  0.00    +0.000 A 
ATOM      8  C   UNL     1       1.681   7.458  20.514  0.00  0.00    +0.000 A 
ATOM      9  C   UNL     1       2.405   6.746  19.545  0.00  0.00    +0.000 A 
ENDROOT
BRANCH   1  10
ATOM     10  C   UNL     1       2.907   4.521  20.601  0.00  0.00    +0.000 C 
BRANCH  10  12
ATOM     11  C   UNL     1       0.929   3.360  19.486  0.00  0.00    +0.000 C 
ATOM     12  C   UNL     1       1.539   3.849  20.800  0.00  0.00    +0.000 C 
ATOM     13  C   UNL     1       1.675   2.676  21.776  0.00  0.00    +0.000 C 
ENDBRANCH  10  12
ENDBRANCH   1  10
BRANCH   2  14
ATOM     14  C   UNL     1       4.388   4.125  17.886  0.00  0.00    +0.000 C 
BRANCH  14  15
ATOM     15  N   UNL     1       4.746   4.246  16.492  0.00  0.00    +0.000 N 
ATOM     16  C   UNL     1       6.043   4.467  16.093  0.00  0.00    +0.000 C 
ATOM     17  O   UNL     1       6.960   4.653  16.886  0.00  0.00    +0.000 OA
ATOM     18  H   UNL     1       4.010   4.057  15.827  0.00  0.00    +0.000 HD
BRANCH  16  19
ATOM     19  C   UNL     1       6.314   4.387  14.626  0.00  0.00    +0.000 A 
ATOM     20  C   UNL     1       5.597   3.543  13.767  0.00  0.00    +0.000 A 
ATOM     21  C   UNL     1       5.976   3.423  12.426  0.00  0.00    +0.000 A 
ATOM     22  C   UNL     1       7.054   4.156  11.933  0.00  0.00    +0.000 A 
ATOM     23  C   UNL     1       7.738   5.036  12.769  0.00  0.00    +0.000 A 
ATOM     24  C   UNL     1       7.365   5.157  14.110  0.00  0.00    +0.000 A 
ENDBRANCH  16  19
ENDBRANCH  14  15
ENDBRANCH   2  14
TORSDOF 5
ENDMDL
MODEL 2
REMARK VINA RESULT:      -8.1      1.415      3.772
REMARK  Name = 
REMARK  7 active torsions:
REMARK  status: ('A' for Active; 'I' for Inactive)
REMARK    1  A    between atoms: C_1  and  C_2
REMARK    2  A    between atoms: C_2  and  C_3
REMARK    3  A    between atoms: C_2  and  C_4
REMARK    4  A    between atoms: C_4  and  N_5
REMARK    5  A    between atoms: C_6  and  C_7
REMARK    6  A    between atoms: C_7  and  N_8
REMARK    7  A    between atoms: C_9  and  C_11
REMARK                            x       y       z     vdW  Elec       q    Type
REMARK                         _______ _______ _______ _____ _____    ______ ____
ROOT
ATOM      1  N   UNL     1       4.195   5.184  19.159  0.00  0.00    +0.000 N 
ATOM      2  C   UNL     1       5.230   4.277  19.022  0.00  0.00    +0.000 A 
ATOM      3  N   UNL     1       4.889   3.104  19.530  0.00  0.00    +0.000 NA
ATOM      4  C   UNL     1       3.596   3.237  19.959  0.00  0.00    +0.000 A 
ATOM      5  C   UNL     1       2.752   2.280  20.544  0.00  0.00    +0.000 A 
ATOM      6  C   UNL     1       1.460   2.657  20.919  0.00  0.00    +0.000 A 
ATOM      7  C   UNL     1       1.013   3.961  20.710  0.00  0.00    +0.000 A 
ATOM      8  C   UNL     1       1.838   4.929  20.121  0.00  0.00    +0.000 A 
ATOM      9  C   UNL     1       3.132   4.531  19.751  0.00  0.00    +0.000 A 
ENDROOT
BRANCH   1  10
ATOM     10  C   UNL     1       4.215   6.598  18.818  0.00  0.00    +0.000 C 
BRANCH  10  12
ATOM     11  C   UNL     1       2.503   8.247  17.892  0.00  0.00    +0.000 C 
ATOM     12  C   UNL     1       3.361   7.012  17.609  0.00  0.00    +0.000 C 
ATOM     13  C   UNL     1       4.266   7.276  16.402  0.00  0.00    +0.000 C 
ENDBRANCH  10  12
ENDBRANCH   1  10
BRANCH   2  14
ATOM     14  C   UNL     1       6.542   4.572  18.364  0.00  0.00    +0.000 C 
BRANCH  14  15
ATOM     15  N   UNL     1       6.419   4.338  16.945  0.00  0.00    +0.000 N 
ATOM     16  C   UNL     1       6.982   5.185  16.020  0.00  0.00    +0.000 C 
ATOM     17  O   UNL     1       7.552   6.225  16.331  0.00  0.00    +0.000 OA
ATOM     18  H   UNL     1       5.987   3.466  16.674  0.00  0.00    +0.000 HD
BRANCH  16  19
ATOM     19  C   UNL     1       6.945   4.737  14.595  0.00  0.00    +0.000 A 
ATOM     20  C   UNL     1       7.799   5.258  13.613  0.00  0.00    +0.000 A 
ATOM     21  C   UNL     1       7.636   4.888  12.275  0.00  0.00    +0.000 A 
ATOM     22  C   UNL     1       6.638   3.985  11.913  0.00  0.00    +0.000 A 
ATOM     23  C   UNL     1       5.818   3.424  12.890  0.00  0.00    +0.000 A 
ATOM     24  C   UNL     1       5.975   3.793  14.228  0.00  0.00    +0.000 A 
ENDBRANCH  16  19
ENDBRANCH  14  15
ENDBRANCH   2  14
TORSDOF 5
ENDMDL
MODEL 3
REMARK VINA RESULT:      -8.0      1.166      3.667
REMARK  Name = 
REMARK  7 active torsions:
REMARK  status: ('A' for Active; 'I' for Inactive)
REMARK    1  A    between atoms: C_1  and  C_2
REMARK    2  A    between atoms: C_2  and  C_3
REMARK    3  A    between atoms: C_2  and  C_4
REMARK    4  A    between atoms: C_4  and  N_5
REMARK    5  A    between atoms: C_6  and  C_7
REMARK    6  A    between atoms: C_7  and  N_8
REMARK    7  A    between atoms: C_9  and  C_11
REMARK                            x       y       z     vdW  Elec       q    Type
REMARK                         _______ _______ _______ _____ _____    ______ ____
ROOT
ATOM      1  N   UNL     1       3.042   5.464  18.643  0.00  0.00    +0.000 N 
ATOM      2  C   UNL     1       4.409   5.254  18.611  0.00  0.00    +0.000 A 
ATOM      3  N   UNL     1       4.739   4.228  19.377  0.00  0.00    +0.000 NA
ATOM      4  C   UNL     1       3.565   3.733  19.876  0.00  0.00    +0.000 A 
ATOM      5  C   UNL     1       3.352   2.626  20.714  0.00  0.00    +0.000 A 
ATOM      6  C   UNL     1       2.048   2.318  21.109  0.00  0.00    +0.000 A 
ATOM      7  C   UNL     1       0.973   3.092  20.673  0.00  0.00    +0.000 A 
ATOM      8  C   UNL     1       1.164   4.196  19.830  0.00  0.00    +0.000 A 
ATOM      9  C   UNL     1       2.481   4.489  19.444  0.00  0.00    +0.000 A 
ENDROOT
BRANCH   1  10
ATOM     10  C   UNL     1       2.305   6.550  18.017  0.00  0.00    +0.000 C 
BRANCH  10  12
ATOM     11  C   UNL     1       1.860   9.054  17.820  0.00  0.00    +0.000 C 
ATOM     12  C   UNL     1       2.448   7.931  18.676  0.00  0.00    +0.000 C 
ATOM     13  C   UNL     1       1.773   7.920  20.051  0.00  0.00    +0.000 C 
ENDBRANCH  10  12
ENDBRANCH   1  10
BRANCH   2  14
ATOM     14  C   UNL     1       5.377   6.058  17.800  0.00  0.00    +0.000 C 
BRANCH  14  15
ATOM     15  N   UNL     1       5.421   5.525  16.458  0.00  0.00    +0.000 N 
ATOM     16  C   UNL     1       6.564   5.578  15.696  0.00  0.00    +0.000 C 
ATOM     17  O   UNL     1       7.586   6.144  16.067  0.00  0.00    +0.000 OA
ATOM     18  H   UNL     1       4.601   5.022  16.153  0.00  0.00    +0.000 HD
BRANCH  16  19
ATOM     19  C   UNL     1       6.539   4.830  14.402  0.00  0.00    +0.000 A 
ATOM     20  C   UNL     1       7.529   4.977  13.421  0.00  0.00    +0.000 A 
ATOM     21  C   UNL     1       7.388   4.342  12.183  0.00  0.00    +0.000 A 
ATOM     22  C   UNL     1       6.273   3.546  11.926  0.00  0.00    +0.000 A 
ATOM     23  C   UNL     1       5.311   3.355  12.915  0.00  0.00    +0.000 A 
ATOM     24  C   UNL     1       5.446   3.989  14.152  0.00  0.00    +0.000 A 
ENDBRANCH  16  19
ENDBRANCH  14  15
ENDBRANCH   2  14
TORSDOF 5
ENDMDL
MODEL 4
REMARK VINA RESULT:      -8.0      0.385      1.077
REMARK  Name = 
REMARK  7 active torsions:
REMARK  status: ('A' for Active; 'I' for Inactive)
REMARK    1  A    between atoms: C_1  and  C_2
REMARK    2  A    between atoms: C_2  and  C_3
REMARK    3  A    between atoms: C_2  and  C_4
REMARK    4  A    between atoms: C_4  and  N_5
REMARK    5  A    between atoms: C_6  and  C_7
REMARK    6  A    between atoms: C_7  and  N_8
REMARK    7  A    between atoms: C_9  and  C_11
REMARK                            x       y       z     vdW  Elec       q    Type
REMARK                         _______ _______ _______ _____ _____    ______ ____
ROOT
ATOM      1  N   UNL     1       3.148   5.397  19.353  0.00  0.00    +0.000 N 
ATOM      2  C   UNL     1       3.879   5.303  18.182  0.00  0.00    +0.000 A 
ATOM      3  N   UNL     1       3.733   6.398  17.455  0.00  0.00    +0.000 NA
ATOM      4  C   UNL     1       2.935   7.236  18.184  0.00  0.00    +0.000 A 
ATOM      5  C   UNL     1       2.503   8.538  17.882  0.00  0.00    +0.000 A 
ATOM      6  C   UNL     1       1.670   9.200  18.787  0.00  0.00    +0.000 A 
ATOM      7  C   UNL     1       1.278   8.583  19.974  0.00  0.00    +0.000 A 
ATOM      8  C   UNL     1       1.705   7.287  20.297  0.00  0.00    +0.000 A 
ATOM      9  C   UNL     1       2.541   6.638  19.376  0.00  0.00    +0.000 A 
ENDROOT
BRANCH   1  10
ATOM     10  C   UNL     1       2.969   4.366  20.363  0.00  0.00    +0.000 C 
BRANCH  10  12
ATOM     11  C   UNL     1       1.586   2.622  19.118  0.00  0.00    +0.000 C 
ATOM     12  C   UNL     1       1.647   3.586  20.304  0.00  0.00    +0.000 C 
ATOM     13  C   UNL     1       1.443   2.813  21.611  0.00  0.00    +0.000 C 
ENDBRANCH  10  12
ENDBRANCH   1  10
BRANCH   2  14
ATOM     14  C   UNL     1       4.738   4.136  17.805  0.00  0.00    +0.000 C 
BRANCH  14  15
ATOM     15  N   UNL     1       5.114   4.261  16.416  0.00  0.00    +0.000 N 
ATOM     16  C   UNL     1       6.417   4.482  16.036  0.00  0.00    +0.000 C 
ATOM     17  O   UNL     1       7.323   4.664  16.841  0.00  0.00    +0.000 OA
ATOM     18  H   UNL     1       4.387   4.073  15.741  0.00  0.00    +0.000 HD
BRANCH  16  19
ATOM     19  C   UNL     1       6.707   4.405  14.572  0.00  0.00    +0.000 A 
ATOM     20  C   UNL     1       7.714   5.163  13.957  0.00  0.00    +0.000 A 
ATOM     21  C   UNL     1       7.858   5.138  12.567  0.00  0.00    +0.000 A 
ATOM     22  C   UNL     1       7.017   4.345  11.787  0.00  0.00    +0.000 A 
ATOM     23  C   UNL     1       6.048   3.551  12.396  0.00  0.00    +0.000 A 
ATOM     24  C   UNL     1       5.898   3.574  13.785  0.00  0.00    +0.000 A 
ENDBRANCH  16  19
ENDBRANCH  14  15
ENDBRANCH   2  14
TORSDOF 5
ENDMDL
MODEL 5
REMARK VINA RESULT:      -7.9      1.401      3.736
REMARK  Name = 
REMARK  7 active torsions:
REMARK  status: ('A' for Active; 'I' for Inactive)
REMARK    1  A    between atoms: C_1  and  C_2
REMARK    2  A    between atoms: C_2  and  C_3
REMARK    3  A    between atoms: C_2  and  C_4
REMARK    4  A    between atoms: C_4  and  N_5
REMARK    5  A    between atoms: C_6  and  C_7
REMARK    6  A    between atoms: C_7  and  N_8
REMARK    7  A    between atoms: C_9  and  C_11
REMARK                            x       y       z     vdW  Elec       q    Type
REMARK                         _______ _______ _______ _____ _____    ______ ____
ROOT
ATOM      1  N   UNL     1       3.825   4.576  18.498  0.00  0.00    +0.000 N 
ATOM      2  C   UNL     1       5.059   4.069  18.863  0.00  0.00    +0.000 A 
ATOM      3  N   UNL     1       4.940   3.260  19.901  0.00  0.00    +0.000 NA
ATOM      4  C   UNL     1       3.603   3.201  20.186  0.00  0.00    +0.000 A 
ATOM      5  C   UNL     1       2.937   2.457  21.173  0.00  0.00    +0.000 A 
ATOM      6  C   UNL     1       1.548   2.572  21.284  0.00  0.00    +0.000 A 
ATOM      7  C   UNL     1       0.834   3.405  20.424  0.00  0.00    +0.000 A 
ATOM      8  C   UNL     1       1.480   4.150  19.428  0.00  0.00    +0.000 A 
ATOM      9  C   UNL     1       2.874   4.021  19.332  0.00  0.00    +0.000 A 
ENDROOT
BRANCH   1  10
ATOM     10  C   UNL     1       3.552   5.572  17.473  0.00  0.00    +0.000 C 
BRANCH  10  12
ATOM     11  C   UNL     1       4.753   7.776  17.019  0.00  0.00    +0.000 C 
ATOM     12  C   UNL     1       3.735   7.039  17.892  0.00  0.00    +0.000 C 
ATOM     13  C   UNL     1       2.387   7.764  17.841  0.00  0.00    +0.000 C 
ENDBRANCH  10  12
ENDBRANCH   1  10
BRANCH   2  14
ATOM     14  C   UNL     1       6.347   4.372  18.161  0.00  0.00    +0.000 C 
BRANCH  14  15
ATOM     15  N   UNL     1       6.162   4.191  16.741  0.00  0.00    +0.000 N 
ATOM     16  C   UNL     1       6.788   4.998  15.820  0.00  0.00    +0.000 C 
ATOM     17  O   UNL     1       7.476   5.962  16.139  0.00  0.00    +0.000 OA
ATOM     18  H   UNL     1       5.631   3.378  16.462  0.00  0.00    +0.000 HD
BRANCH  16  19
ATOM     19  C   UNL     1       6.666   4.595  14.387  0.00  0.00    +0.000 A 
ATOM     20  C   UNL     1       5.689   3.699  13.931  0.00  0.00    +0.000 A 
ATOM     21  C   UNL     1       5.700   3.269  12.600  0.00  0.00    +0.000 A 
ATOM     22  C   UNL     1       6.669   3.743  11.717  0.00  0.00    +0.000 A 
ATOM     23  C   UNL     1       7.611   4.674  12.151  0.00  0.00    +0.000 A 
ATOM     24  C   UNL     1       7.605   5.105  13.479  0.00  0.00    +0.000 A 
ENDBRANCH  16  19
ENDBRANCH  14  15
ENDBRANCH   2  14
TORSDOF 5
ENDMDL
MODEL 6
REMARK VINA RESULT:      -7.9      1.268      3.547
REMARK  Name = 
REMARK  7 active torsions:
REMARK  status: ('A' for Active; 'I' for Inactive)
REMARK    1  A    between atoms: C_1  and  C_2
REMARK    2  A    between atoms: C_2  and  C_3
REMARK    3  A    between atoms: C_2  and  C_4
REMARK    4  A    between atoms: C_4  and  N_5
REMARK    5  A    between atoms: C_6  and  C_7
REMARK    6  A    between atoms: C_7  and  N_8
REMARK    7  A    between atoms: C_9  and  C_11
REMARK                            x       y       z     vdW  Elec       q    Type
REMARK                         _______ _______ _______ _____ _____    ______ ____
ROOT
ATOM      1  N   UNL     1       3.330   5.716  18.275  0.00  0.00    +0.000 N 
ATOM      2  C   UNL     1       4.706   5.582  18.316  0.00  0.00    +0.000 A 
ATOM      3  N   UNL     1       5.047   4.503  19.001  0.00  0.00    +0.000 NA
ATOM      4  C   UNL     1       3.875   3.900  19.368  0.00  0.00    +0.000 A 
ATOM      5  C   UNL     1       3.675   2.706  20.080  0.00  0.00    +0.000 A 
ATOM      6  C   UNL     1       2.369   2.292  20.353  0.00  0.00    +0.000 A 
ATOM      7  C   UNL     1       1.280   3.048  19.921  0.00  0.00    +0.000 A 
ATOM      8  C   UNL     1       1.458   4.238  19.203  0.00  0.00    +0.000 A 
ATOM      9  C   UNL     1       2.778   4.637  18.938  0.00  0.00    +0.000 A 
ENDROOT
BRANCH   1  10
ATOM     10  C   UNL     1       2.571   6.818  17.706  0.00  0.00    +0.000 C 
BRANCH  10  12
ATOM     11  C   UNL     1       1.768   9.236  17.839  0.00  0.00    +0.000 C 
ATOM     12  C   UNL     1       2.535   8.111  18.536  0.00  0.00    +0.000 C 
ATOM     13  C   UNL     1       1.909   7.830  19.906  0.00  0.00    +0.000 C 
ENDBRANCH  10  12
ENDBRANCH   1  10
BRANCH   2  14
ATOM     14  C   UNL     1       5.674   6.513  17.654  0.00  0.00    +0.000 C 
BRANCH  14  15
ATOM     15  N   UNL     1       5.818   6.132  16.269  0.00  0.00    +0.000 N 
ATOM     16  C   UNL     1       6.792   5.255  15.856  0.00  0.00    +0.000 C 
ATOM     17  O   UNL     1       7.644   4.803  16.613  0.00  0.00    +0.000 OA
ATOM     18  H   UNL     1       5.100   6.465  15.640  0.00  0.00    +0.000 HD
BRANCH  16  19
ATOM     19  C   UNL     1       6.721   4.798  14.435  0.00  0.00    +0.000 A 
ATOM     20  C   UNL     1       5.800   3.839  13.992  0.00  0.00    +0.000 A 
ATOM     21  C   UNL     1       5.861   3.364  12.678  0.00  0.00    +0.000 A 
ATOM     22  C   UNL     1       6.825   3.855  11.798  0.00  0.00    +0.000 A 
ATOM     23  C   UNL     1       7.710   4.845  12.217  0.00  0.00    +0.000 A 
ATOM     24  C   UNL     1       7.655   5.321  13.530  0.00  0.00    +0.000 A 
ENDBRANCH  16  19
ENDBRANCH  14  15
ENDBRANCH   2  14
TORSDOF 5
ENDMDL
MODEL 7
REMARK VINA RESULT:      -7.8      1.182      3.567
REMARK  Name = 
REMARK  7 active torsions:
REMARK  status: ('A' for Active; 'I' for Inactive)
REMARK    1  A    between atoms: C_1  and  C_2
REMARK    2  A    between atoms: C_2  and  C_3
REMARK    3  A    between atoms: C_2  and  C_4
REMARK    4  A    between atoms: C_4  and  N_5
REMARK    5  A    between atoms: C_6  and  C_7
REMARK    6  A    between atoms: C_7  and  N_8
REMARK    7  A    between atoms: C_9  and  C_11
REMARK                            x       y       z     vdW  Elec       q    Type
REMARK                         _______ _______ _______ _____ _____    ______ ____
ROOT
ATOM      1  N   UNL     1       3.437   5.442  19.121  0.00  0.00    +0.000 N 
ATOM      2  C   UNL     1       4.566   4.956  18.487  0.00  0.00    +0.000 A 
ATOM      3  N   UNL     1       4.485   3.644  18.336  0.00  0.00    +0.000 NA
ATOM      4  C   UNL     1       3.264   3.279  18.834  0.00  0.00    +0.000 A 
ATOM      5  C   UNL     1       2.669   2.008  18.883  0.00  0.00    +0.000 A 
ATOM      6  C   UNL     1       1.404   1.876  19.461  0.00  0.00    +0.000 A 
ATOM      7  C   UNL     1       0.739   2.988  19.974  0.00  0.00    +0.000 A 
ATOM      8  C   UNL     1       1.313   4.266  19.928  0.00  0.00    +0.000 A 
ATOM      9  C   UNL     1       2.584   4.379  19.344  0.00  0.00    +0.000 A 
ENDROOT
BRANCH   1  10
ATOM     10  C   UNL     1       3.193   6.808  19.556  0.00  0.00    +0.000 C 
BRANCH  10  12
ATOM     11  C   UNL     1       1.523   8.736  19.495  0.00  0.00    +0.000 C 
ATOM     12  C   UNL     1       2.207   7.621  18.702  0.00  0.00    +0.000 C 
ATOM     13  C   UNL     1       2.938   8.218  17.495  0.00  0.00    +0.000 C 
ENDBRANCH  10  12
ENDBRANCH   1  10
BRANCH   2  14
ATOM     14  C   UNL     1       5.708   5.800  18.012  0.00  0.00    +0.000 C 
BRANCH  14  15
ATOM     15  N   UNL     1       5.849   5.638  16.585  0.00  0.00    +0.000 N 
ATOM     16  C   UNL     1       6.908   4.957  16.034  0.00  0.00    +0.000 C 
ATOM     17  O   UNL     1       7.835   4.513  16.704  0.00  0.00    +0.000 OA
ATOM     18  H   UNL     1       5.075   5.963  16.023  0.00  0.00    +0.000 HD
BRANCH  16  19
ATOM     19  C   UNL     1       6.844   4.697  14.564  0.00  0.00    +0.000 A 
ATOM     20  C   UNL     1       5.978   3.753  13.997  0.00  0.00    +0.000 A 
ATOM     21  C   UNL     1       6.049   3.470  12.629  0.00  0.00    +0.000 A 
ATOM     22  C   UNL     1       6.966   4.139  11.820  0.00  0.00    +0.000 A 
ATOM     23  C   UNL     1       7.795   5.115  12.368  0.00  0.00    +0.000 A 
ATOM     24  C   UNL     1       7.730   5.400  13.734  0.00  0.00    +0.000 A 
ENDBRANCH  16  19
ENDBRANCH  14  15
ENDBRANCH   2  14
TORSDOF 5
ENDMDL
MODEL 8
REMARK VINA RESULT:      -7.8      1.145      3.620
REMARK  Name = 
REMARK  7 active torsions:
REMARK  status: ('A' for Active; 'I' for Inactive)
REMARK    1  A    between atoms: C_1  and  C_2
REMARK    2  A    between atoms: C_2  and  C_3
REMARK    3  A    between atoms: C_2  and  C_4
REMARK    4  A    between atoms: C_4  and  N_5
REMARK    5  A    between atoms: C_6  and  C_7
REMARK    6  A    between atoms: C_7  and  N_8
REMARK    7  A    between atoms: C_9  and  C_11
REMARK                            x       y       z     vdW  Elec       q    Type
REMARK                         _______ _______ _______ _____ _____    ______ ____
ROOT
ATOM      1  N   UNL     1       3.023   5.752  18.828  0.00  0.00    +0.000 N 
ATOM      2  C   UNL     1       3.911   5.458  17.809  0.00  0.00    +0.000 A 
ATOM      3  N   UNL     1       3.790   4.194  17.439  0.00  0.00    +0.000 NA
ATOM      4  C   UNL     1       2.777   3.672  18.194  0.00  0.00    +0.000 A 
ATOM      5  C   UNL     1       2.226   2.380  18.170  0.00  0.00    +0.000 A 
ATOM      6  C   UNL     1       1.193   2.069  19.058  0.00  0.00    +0.000 A 
ATOM      7  C   UNL     1       0.710   3.027  19.949  0.00  0.00    +0.000 A 
ATOM      8  C   UNL     1       1.241   4.324  19.982  0.00  0.00    +0.000 A 
ATOM      9  C   UNL     1       2.278   4.617  19.083  0.00  0.00    +0.000 A 
ENDROOT
BRANCH   1  10
ATOM     10  C   UNL     1       2.917   6.999  19.569  0.00  0.00    +0.000 C 
BRANCH  10  12
ATOM     11  C   UNL     1       1.229   8.727  20.388  0.00  0.00    +0.000 C 
ATOM     12  C   UNL     1       1.732   7.905  19.200  0.00  0.00    +0.000 C 
ATOM     13  C   UNL     1       2.132   8.840  18.055  0.00  0.00    +0.000 C 
ENDBRANCH  10  12
ENDBRANCH   1  10
BRANCH   2  14
ATOM     14  C   UNL     1       4.856   6.442  17.191  0.00  0.00    +0.000 C 
BRANCH  14  15
ATOM     15  N   UNL     1       5.222   5.976  15.874  0.00  0.00    +0.000 N 
ATOM     16  C   UNL     1       6.461   5.441  15.613  0.00  0.00    +0.000 C 
ATOM     17  O   UNL     1       7.355   5.396  16.452  0.00  0.00    +0.000 OA
ATOM     18  H   UNL     1       4.485   5.970  15.184  0.00  0.00    +0.000 HD
BRANCH  16  19
ATOM     19  C   UNL     1       6.654   4.827  14.265  0.00  0.00    +0.000 A 
ATOM     20  C   UNL     1       7.644   5.256  13.370  0.00  0.00    +0.000 A 
ATOM     21  C   UNL     1       7.697   4.724  12.078  0.00  0.00    +0.000 A 
ATOM     22  C   UNL     1       6.781   3.752  11.680  0.00  0.00    +0.000 A 
ATOM     23  C   UNL     1       5.827   3.284  12.581  0.00  0.00    +0.000 A 
ATOM     24  C   UNL     1       5.768   3.814  13.873  0.00  0.00    +0.000 A 
ENDBRANCH  16  19
ENDBRANCH  14  15
ENDBRANCH   2  14
TORSDOF 5
ENDMDL
MODEL 9
REMARK VINA RESULT:      -7.5      2.730      8.041
REMARK  Name = 
REMARK  7 active torsions:
REMARK  status: ('A' for Active; 'I' for Inactive)
REMARK    1  A    between atoms: C_1  and  C_2
REMARK    2  A    between atoms: C_2  and  C_3
REMARK    3  A    between atoms: C_2  and  C_4
REMARK    4  A    between atoms: C_4  and  N_5
REMARK    5  A    between atoms: C_6  and  C_7
REMARK    6  A    between atoms: C_7  and  N_8
REMARK    7  A    between atoms: C_9  and  C_11
REMARK                            x       y       z     vdW  Elec       q    Type
REMARK                         _______ _______ _______ _____ _____    ______ ____
ROOT
ATOM      1  N   UNL     1       3.639   5.490  17.551  0.00  0.00    +0.000 N 
ATOM      2  C   UNL     1       2.729   6.336  18.159  0.00  0.00    +0.000 A 
ATOM      3  N   UNL     1       1.823   5.642  18.827  0.00  0.00    +0.000 NA
ATOM      4  C   UNL     1       2.177   4.327  18.692  0.00  0.00    +0.000 A 
ATOM      5  C   UNL     1       1.569   3.183  19.235  0.00  0.00    +0.000 A 
ATOM      6  C   UNL     1       2.109   1.928  18.942  0.00  0.00    +0.000 A 
ATOM      7  C   UNL     1       3.236   1.812  18.130  0.00  0.00    +0.000 A 
ATOM      8  C   UNL     1       3.862   2.942  17.585  0.00  0.00    +0.000 A 
ATOM      9  C   UNL     1       3.306   4.193  17.891  0.00  0.00    +0.000 A 
ENDROOT
BRANCH   1  10
ATOM     10  C   UNL     1       4.719   5.861  16.651  0.00  0.00    +0.000 C 
BRANCH  10  12
ATOM     11  C   UNL     1       7.028   4.816  16.362  0.00  0.00    +0.000 C 
ATOM     12  C   UNL     1       6.143   5.726  17.215  0.00  0.00    +0.000 C 
ATOM     13  C   UNL     1       6.787   7.111  17.333  0.00  0.00    +0.000 C 
ENDBRANCH  10  12
ENDBRANCH   1  10
BRANCH   2  14
ATOM     14  C   UNL     1       2.779   7.831  18.094  0.00  0.00    +0.000 C 
BRANCH  14  15
ATOM     15  N   UNL     1       2.120   8.374  19.258  0.00  0.00    +0.000 N 
ATOM     16  C   UNL     1       1.162   9.355  19.157  0.00  0.00    +0.000 C 
ATOM     17  O   UNL     1       0.862   9.884  18.092  0.00  0.00    +0.000 OA
ATOM     18  H   UNL     1       2.327   7.922  20.137  0.00  0.00    +0.000 HD
BRANCH  16  19
ATOM     19  C   UNL     1       0.423   9.699  20.410  0.00  0.00    +0.000 A 
ATOM     20  C   UNL     1      -0.145  10.961  20.633  0.00  0.00    +0.000 A 
ATOM     21  C   UNL     1      -0.718  11.261  21.873  0.00  0.00    +0.000 A 
ATOM     22  C   UNL     1      -0.746  10.302  22.884  0.00  0.00    +0.000 A 
ATOM     23  C   UNL     1      -0.229   9.029  22.651  0.00  0.00    +0.000 A 
ATOM     24  C   UNL     1       0.348   8.726  21.416  0.00  0.00    +0.000 A 
ENDBRANCH  16  19
ENDBRANCH  14  15
ENDBRANCH   2  14
TORSDOF 5
ENDMDL
