MODEL 1
REMARK VINA RESULT:      -8.4      0.000      0.000
REMARK  Name = 
REMARK  7 active torsions:
REMARK  status: ('A' for Active; 'I' for Inactive)
REMARK    1  A    between atoms: C_1  and  C_2
REMARK    2  A    between atoms: C_2  and  C_3
REMARK    3  A    between atoms: C_3  and  N_4
REMARK    4  A    between atoms: C_6  and  O_7
REMARK    5  A    between atoms: O_7  and  C_8
REMARK    6  A    between atoms: C_8  and  C_9
REMARK    7  A    between atoms: C_21  and  N_22
REMARK                            x       y       z     vdW  Elec       q    Type
REMARK                         _______ _______ _______ _____ _____    ______ ____
ROOT
ATOM      1  N   UNL     1       7.009   5.955  17.900  0.00  0.00    +0.000 N 
ATOM      2  N   UNL     1       6.219   5.327  18.819  0.00  0.00    +0.000 NA
ATOM      3  C   UNL     1       5.595   4.401  18.096  0.00  0.00    +0.000 A 
ATOM      4  C   UNL     1       5.960   4.413  16.741  0.00  0.00    +0.000 A 
ATOM      5  C   UNL     1       5.621   3.650  15.609  0.00  0.00    +0.000 A 
ATOM      6  C   UNL     1       6.189   3.954  14.376  0.00  0.00    +0.000 A 
ATOM      7  C   UNL     1       7.150   4.966  14.298  0.00  0.00    +0.000 A 
ATOM      8  C   UNL     1       7.505   5.748  15.412  0.00  0.00    +0.000 A 
ATOM      9  C   UNL     1       6.887   5.445  16.630  0.00  0.00    +0.000 A 
ENDROOT
BRANCH   6  10
ATOM     10  N   UNL     1       5.960   3.104  13.287  0.00  0.00    +0.000 N 
ATOM     11  H   UNL     1       5.245   3.446  12.650  0.00  0.00    +0.000 HD
ATOM     12  H   UNL     1       6.803   2.815  12.803  0.00  0.00    +0.000 HD
ENDBRANCH   6  10
BRANCH   1  13
ATOM     13  C   UNL     1       7.946   6.968  18.351  0.00  0.00    +0.000 C 
BRANCH  13  15
ATOM     14  C   UNL     1       8.587   9.435  18.355  0.00  0.00    +0.000 C 
ATOM     15  C   UNL     1       7.791   8.331  17.676  0.00  0.00    +0.000 C 
ENDBRANCH  13  15
ENDBRANCH   1  13
BRANCH   3  16
ATOM     16  O   UNL     1       4.704   3.530  18.633  0.00  0.00    +0.000 OA
BRANCH  16  17
ATOM     17  C   UNL     1       3.354   3.786  18.280  0.00  0.00    +0.000 C 
BRANCH  17  18
ATOM     18  C   UNL     1       2.859   5.124  18.806  0.00  0.00    +0.000 A 
ATOM     19  C   UNL     1       2.303   5.128  20.092  0.00  0.00    +0.000 A 
ATOM     20  C   UNL     1       1.840   6.310  20.670  0.00  0.00    +0.000 A 
ATOM     21  C   UNL     1       1.815   7.491  19.933  0.00  0.00    +0.000 A 
ATOM     22  C   UNL     1       1.271   8.649  20.504  0.00  0.00    +0.000 A 
ATOM     23  C   UNL     1       0.946   9.739  19.706  0.00  0.00    +0.000 A 
ATOM     24  C   UNL     1       1.284   9.725  18.357  0.00  0.00    +0.000 A 
ATOM     25  C   UNL     1       2.003   8.646  17.823  0.00  0.00    +0.000 A 
ATOM     26  C   UNL     1       2.250   7.493  18.591  0.00  0.00    +0.000 A 
ATOM     27  C   UNL     1       2.847   6.319  18.065  0.00  0.00    +0.000 A 
ENDBRANCH  17  18
ENDBRANCH  16  17
ENDBRANCH   3  16
TORSDOF 6
ENDMDL
MODEL 2
REMARK VINA RESULT:      -8.3      2.529      5.065
REMARK  Name = 
REMARK  7 active torsions:
REMARK  status: ('A' for Active; 'I' for Inactive)
REMARK    1  A    between atoms: C_1  and  C_2
REMARK    2  A    between atoms: C_2  and  C_3
REMARK    3  A    between atoms: C_3  and  N_4
REMARK    4  A    between atoms: C_6  and  O_7
REMARK    5  A    between atoms: O_7  and  C_8
REMARK    6  A    between atoms: C_8  and  C_9
REMARK    7  A    between atoms: C_21  and  N_22
REMARK                            x       y       z     vdW  Elec       q    Type
REMARK                         _______ _______ _______ _____ _____    ______ ____
ROOT
ATOM      1  N   UNL     1       4.140   4.405  16.863  0.00  0.00    +0.000 N 
ATOM      2  N   UNL     1       4.297   5.738  17.111  0.00  0.00    +0.000 NA
ATOM      3  C   UNL     1       3.469   5.952  18.131  0.00  0.00    +0.000 A 
ATOM      4  C   UNL     1       2.788   4.799  18.547  0.00  0.00    +0.000 A 
ATOM      5  C   UNL     1       1.859   4.499  19.560  0.00  0.00    +0.000 A 
ATOM      6  C   UNL     1       1.367   3.204  19.685  0.00  0.00    +0.000 A 
ATOM      7  C   UNL     1       1.867   2.200  18.850  0.00  0.00    +0.000 A 
ATOM      8  C   UNL     1       2.793   2.472  17.827  0.00  0.00    +0.000 A 
ATOM      9  C   UNL     1       3.238   3.792  17.699  0.00  0.00    +0.000 A 
ENDROOT
BRANCH   6  10
ATOM     10  N   UNL     1       0.558   2.881  20.781  0.00  0.00    +0.000 N 
ATOM     11  H   UNL     1       0.416   3.657  21.422  0.00  0.00    +0.000 HD
ATOM     12  H   UNL     1      -0.312   2.422  20.532  0.00  0.00    +0.000 HD
ENDBRANCH   6  10
BRANCH   1  13
ATOM     13  C   UNL     1       4.990   3.767  15.873  0.00  0.00    +0.000 C 
BRANCH  13  15
ATOM     14  C   UNL     1       6.360   4.120  13.754  0.00  0.00    +0.000 C 
ATOM     15  C   UNL     1       5.847   4.729  15.050  0.00  0.00    +0.000 C 
ENDBRANCH  13  15
ENDBRANCH   1  13
BRANCH   3  16
ATOM     16  O   UNL     1       3.320   7.171  18.709  0.00  0.00    +0.000 OA
BRANCH  16  17
ATOM     17  C   UNL     1       2.490   8.062  17.982  0.00  0.00    +0.000 C 
BRANCH  17  18
ATOM     18  C   UNL     1       1.549   8.847  18.883  0.00  0.00    +0.000 A 
ATOM     19  C   UNL     1       1.061  10.060  18.378  0.00  0.00    +0.000 A 
ATOM     20  C   UNL     1       0.176  10.842  19.121  0.00  0.00    +0.000 A 
ATOM     21  C   UNL     1      -0.149  10.487  20.428  0.00  0.00    +0.000 A 
ATOM     22  C   UNL     1      -0.975  11.329  21.185  0.00  0.00    +0.000 A 
ATOM     23  C   UNL     1      -1.060  11.173  22.563  0.00  0.00    +0.000 A 
ATOM     24  C   UNL     1      -0.423  10.097  23.172  0.00  0.00    +0.000 A 
ATOM     25  C   UNL     1       0.246   9.142  22.392  0.00  0.00    +0.000 A 
ATOM     26  C   UNL     1       0.427   9.338  21.011  0.00  0.00    +0.000 A 
ATOM     27  C   UNL     1       1.211   8.481  20.197  0.00  0.00    +0.000 A 
ENDBRANCH  17  18
ENDBRANCH  16  17
ENDBRANCH   3  16
TORSDOF 6
ENDMDL
MODEL 3
REMARK VINA RESULT:      -8.3      2.409      4.841
REMARK  Name = 
REMARK  7 active torsions:
REMARK  status: ('A' for Active; 'I' for Inactive)
REMARK    1  A    between atoms: C_1  and  C_2
REMARK    2  A    between atoms: C_2  and  C_3
REMARK    3  A    between atoms: C_3  and  N_4
REMARK    4  A    between atoms: C_6  and  O_7
REMARK    5  A    between atoms: O_7  and  C_8
REMARK    6  A    between atoms: C_8  and  C_9
REMARK    7  A    between atoms: C_21  and  N_22
REMARK                            x       y       z     vdW  Elec       q    Type
REMARK                         _______ _______ _______ _____ _____    ______ ____
ROOT
ATOM      1  N   UNL     1       4.448   5.191  16.641  0.00  0.00    +0.000 N 
ATOM      2  N   UNL     1       4.478   6.507  17.002  0.00  0.00    +0.000 NA
ATOM      3  C   UNL     1       3.531   6.585  17.932  0.00  0.00    +0.000 A 
ATOM      4  C   UNL     1       2.893   5.360  18.182  0.00  0.00    +0.000 A 
ATOM      5  C   UNL     1       1.882   4.921  19.056  0.00  0.00    +0.000 A 
ATOM      6  C   UNL     1       1.476   3.591  19.029  0.00  0.00    +0.000 A 
ATOM      7  C   UNL     1       2.137   2.692  18.186  0.00  0.00    +0.000 A 
ATOM      8  C   UNL     1       3.146   3.104  17.299  0.00  0.00    +0.000 A 
ATOM      9  C   UNL     1       3.506   4.456  17.320  0.00  0.00    +0.000 A 
ENDROOT
BRANCH   6  10
ATOM     10  N   UNL     1       0.576   3.129  19.997  0.00  0.00    +0.000 N 
ATOM     11  H   UNL     1       0.916   3.236  20.950  0.00  0.00    +0.000 HD
ATOM     12  H   UNL     1      -0.369   3.478  19.884  0.00  0.00    +0.000 HD
ENDBRANCH   6  10
BRANCH   1  13
ATOM     13  C   UNL     1       5.445   4.691  15.711  0.00  0.00    +0.000 C 
BRANCH  13  15
ATOM     14  C   UNL     1       7.436   4.593  17.300  0.00  0.00    +0.000 C 
ATOM     15  C   UNL     1       6.876   5.148  15.999  0.00  0.00    +0.000 C 
ENDBRANCH  13  15
ENDBRANCH   1  13
BRANCH   3  16
ATOM     16  O   UNL     1       3.230   7.741  18.576  0.00  0.00    +0.000 OA
BRANCH  16  17
ATOM     17  C   UNL     1       2.265   8.542  17.915  0.00  0.00    +0.000 C 
BRANCH  17  18
ATOM     18  C   UNL     1       1.357   9.281  18.886  0.00  0.00    +0.000 A 
ATOM     19  C   UNL     1       0.981  10.583  18.529  0.00  0.00    +0.000 A 
ATOM     20  C   UNL     1       0.134  11.334  19.344  0.00  0.00    +0.000 A 
ATOM     21  C   UNL     1      -0.261  10.846  20.587  0.00  0.00    +0.000 A 
ATOM     22  C   UNL     1      -1.044  11.650  21.426  0.00  0.00    +0.000 A 
ATOM     23  C   UNL     1      -1.187  11.330  22.771  0.00  0.00    +0.000 A 
ATOM     24  C   UNL     1      -0.655  10.139  23.252  0.00  0.00    +0.000 A 
ATOM     25  C   UNL     1      -0.036   9.239  22.373  0.00  0.00    +0.000 A 
ATOM     26  C   UNL     1       0.206   9.591  21.032  0.00  0.00    +0.000 A 
ATOM     27  C   UNL     1       0.949   8.782  20.135  0.00  0.00    +0.000 A 
ENDBRANCH  17  18
ENDBRANCH  16  17
ENDBRANCH   3  16
TORSDOF 6
ENDMDL
MODEL 4
REMARK VINA RESULT:      -8.2      2.339      4.780
REMARK  Name = 
REMARK  7 active torsions:
REMARK  status: ('A' for Active; 'I' for Inactive)
REMARK    1  A    between atoms: C_1  and  C_2
REMARK    2  A    between atoms: C_2  and  C_3
REMARK    3  A    between atoms: C_3  and  N_4
REMARK    4  A    between atoms: C_6  and  O_7
REMARK    5  A    between atoms: O_7  and  C_8
REMARK    6  A    between atoms: C_8  and  C_9
REMARK    7  A    between atoms: C_21  and  N_22
REMARK                            x       y       z     vdW  Elec       q    Type
REMARK                         _______ _______ _______ _____ _____    ______ ____
ROOT
ATOM      1  N   UNL     1       4.962   5.249  18.163  0.00  0.00    +0.000 N 
ATOM      2  N   UNL     1       4.342   6.342  17.628  0.00  0.00    +0.000 NA
ATOM      3  C   UNL     1       3.090   6.217  18.058  0.00  0.00    +0.000 A 
ATOM      4  C   UNL     1       2.885   5.080  18.854  0.00  0.00    +0.000 A 
ATOM      5  C   UNL     1       1.792   4.530  19.547  0.00  0.00    +0.000 A 
ATOM      6  C   UNL     1       1.948   3.342  20.254  0.00  0.00    +0.000 A 
ATOM      7  C   UNL     1       3.215   2.754  20.329  0.00  0.00    +0.000 A 
ATOM      8  C   UNL     1       4.324   3.279  19.643  0.00  0.00    +0.000 A 
ATOM      9  C   UNL     1       4.126   4.453  18.907  0.00  0.00    +0.000 A 
ENDROOT
BRANCH   6  10
ATOM     10  N   UNL     1       0.899   2.879  21.057  0.00  0.00    +0.000 N 
ATOM     11  H   UNL     1      -0.018   3.003  20.637  0.00  0.00    +0.000 HD
ATOM     12  H   UNL     1       1.035   1.940  21.415  0.00  0.00    +0.000 HD
ENDBRANCH   6  10
BRANCH   1  13
ATOM     13  C   UNL     1       6.398   5.105  18.005  0.00  0.00    +0.000 C 
BRANCH  13  15
ATOM     14  C   UNL     1       7.783   7.245  17.980  0.00  0.00    +0.000 C 
ATOM     15  C   UNL     1       7.062   6.190  17.155  0.00  0.00    +0.000 C 
ENDBRANCH  13  15
ENDBRANCH   1  13
BRANCH   3  16
ATOM     16  O   UNL     1       2.120   7.117  17.759  0.00  0.00    +0.000 OA
BRANCH  16  17
ATOM     17  C   UNL     1       2.486   8.467  17.990  0.00  0.00    +0.000 C 
BRANCH  17  18
ATOM     18  C   UNL     1       1.532   9.175  18.939  0.00  0.00    +0.000 A 
ATOM     19  C   UNL     1       1.070  10.437  18.541  0.00  0.00    +0.000 A 
ATOM     20  C   UNL     1       0.175  11.156  19.334  0.00  0.00    +0.000 A 
ATOM     21  C   UNL     1      -0.187  10.683  20.592  0.00  0.00    +0.000 A 
ATOM     22  C   UNL     1      -1.023  11.459  21.406  0.00  0.00    +0.000 A 
ATOM     23  C   UNL     1      -1.145  11.174  22.761  0.00  0.00    +0.000 A 
ATOM     24  C   UNL     1      -0.536  10.036  23.279  0.00  0.00    +0.000 A 
ATOM     25  C   UNL     1       0.142   9.151  22.427  0.00  0.00    +0.000 A 
ATOM     26  C   UNL     1       0.361   9.476  21.076  0.00  0.00    +0.000 A 
ATOM     27  C   UNL     1       1.156   8.690  20.204  0.00  0.00    +0.000 A 
ENDBRANCH  17  18
ENDBRANCH  16  17
ENDBRANCH   3  16
TORSDOF 6
ENDMDL
MODEL 5
REMARK VINA RESULT:      -8.2      2.438      4.639
REMARK  Name = 
REMARK  7 active torsions:
REMARK  status: ('A' for Active; 'I' for Inactive)
REMARK    1  A    between atoms: C_1  and  C_2
REMARK    2  A    between atoms: C_2  and  C_3
REMARK    3  A    between atoms: C_3  and  N_4
REMARK    4  A    between atoms: C_6  and  O_7
REMARK    5  A    between atoms: O_7  and  C_8
REMARK    6  A    between atoms: C_8  and  C_9
REMARK    7  A    between atoms: C_21  and  N_22
REMARK                            x       y       z     vdW  Elec       q    Type
REMARK                         _______ _______ _______ _____ _____    ______ ____
ROOT
ATOM      1  N   UNL     1       5.106   5.072  17.267  0.00  0.00    +0.000 N 
ATOM      2  N   UNL     1       4.769   6.367  17.537  0.00  0.00    +0.000 NA
ATOM      3  C   UNL     1       3.514   6.266  17.969  0.00  0.00    +0.000 A 
ATOM      4  C   UNL     1       3.035   4.948  17.986  0.00  0.00    +0.000 A 
ATOM      5  C   UNL     1       1.831   4.328  18.367  0.00  0.00    +0.000 A 
ATOM      6  C   UNL     1       1.693   2.949  18.238  0.00  0.00    +0.000 A 
ATOM      7  C   UNL     1       2.785   2.191  17.806  0.00  0.00    +0.000 A 
ATOM      8  C   UNL     1       3.998   2.784  17.414  0.00  0.00    +0.000 A 
ATOM      9  C   UNL     1       4.093   4.177  17.516  0.00  0.00    +0.000 A 
ENDROOT
BRANCH   6  10
ATOM     10  N   UNL     1       0.551   2.324  18.752  0.00  0.00    +0.000 N 
ATOM     11  H   UNL     1       0.418   2.478  19.749  0.00  0.00    +0.000 HD
ATOM     12  H   UNL     1      -0.293   2.501  18.219  0.00  0.00    +0.000 HD
ENDBRANCH   6  10
BRANCH   1  13
ATOM     13  C   UNL     1       6.471   4.765  16.879  0.00  0.00    +0.000 C 
BRANCH  13  15
ATOM     14  C   UNL     1       5.969   4.108  14.468  0.00  0.00    +0.000 C 
ATOM     15  C   UNL     1       6.784   4.992  15.400  0.00  0.00    +0.000 C 
ENDBRANCH  13  15
ENDBRANCH   1  13
BRANCH   3  16
ATOM     16  O   UNL     1       2.787   7.342  18.362  0.00  0.00    +0.000 OA
BRANCH  16  17
ATOM     17  C   UNL     1       2.391   7.310  19.724  0.00  0.00    +0.000 C 
BRANCH  17  18
ATOM     18  C   UNL     1       1.392   8.405  20.065  0.00  0.00    +0.000 A 
ATOM     19  C   UNL     1       1.195   9.401  19.099  0.00  0.00    +0.000 A 
ATOM     20  C   UNL     1       0.285  10.436  19.311  0.00  0.00    +0.000 A 
ATOM     21  C   UNL     1      -0.362  10.564  20.536  0.00  0.00    +0.000 A 
ATOM     22  C   UNL     1      -1.210  11.657  20.758  0.00  0.00    +0.000 A 
ATOM     23  C   UNL     1      -1.614  11.983  22.047  0.00  0.00    +0.000 A 
ATOM     24  C   UNL     1      -1.277  11.143  23.103  0.00  0.00    +0.000 A 
ATOM     25  C   UNL     1      -0.591   9.944  22.857  0.00  0.00    +0.000 A 
ATOM     26  C   UNL     1      -0.088   9.651  21.577  0.00  0.00    +0.000 A 
ATOM     27  C   UNL     1       0.730   8.526  21.299  0.00  0.00    +0.000 A 
ENDBRANCH  17  18
ENDBRANCH  16  17
ENDBRANCH   3  16
TORSDOF 6
ENDMDL
MODEL 6
REMARK VINA RESULT:      -8.2      2.409      4.658
REMARK  Name = 
REMARK  7 active torsions:
REMARK  status: ('A' for Active; 'I' for Inactive)
REMARK    1  A    between atoms: C_1  and  C_2
REMARK    2  A    between atoms: C_2  and  C_3
REMARK    3  A    between atoms: C_3  and  N_4
REMARK    4  A    between atoms: C_6  and  O_7
REMARK    5  A    between atoms: O_7  and  C_8
REMARK    6  A    between atoms: C_8  and  C_9
REMARK    7  A    between atoms: C_21  and  N_22
REMARK                            x       y       z     vdW  Elec       q    Type
REMARK                         _______ _______ _______ _____ _____    ______ ____
ROOT
ATOM      1  N   UNL     1       2.711   4.511  17.960  0.00  0.00    +0.000 N 
ATOM      2  N   UNL     1       2.279   5.739  18.372  0.00  0.00    +0.000 NA
ATOM      3  C   UNL     1       3.242   6.553  17.947  0.00  0.00    +0.000 A 
ATOM      4  C   UNL     1       4.277   5.888  17.274  0.00  0.00    +0.000 A 
ATOM      5  C   UNL     1       5.467   6.281  16.634  0.00  0.00    +0.000 A 
ATOM      6  C   UNL     1       6.291   5.320  16.058  0.00  0.00    +0.000 A 
ATOM      7  C   UNL     1       5.883   3.983  16.055  0.00  0.00    +0.000 A 
ATOM      8  C   UNL     1       4.702   3.561  16.691  0.00  0.00    +0.000 A 
ATOM      9  C   UNL     1       3.914   4.545  17.297  0.00  0.00    +0.000 A 
ENDROOT
BRANCH   6  10
ATOM     10  N   UNL     1       7.395   5.730  15.300  0.00  0.00    +0.000 N 
ATOM     11  H   UNL     1       7.620   5.096  14.537  0.00  0.00    +0.000 HD
ATOM     12  H   UNL     1       7.353   6.697  14.998  0.00  0.00    +0.000 HD
ENDBRANCH   6  10
BRANCH   1  13
ATOM     13  C   UNL     1       1.844   3.361  18.144  0.00  0.00    +0.000 C 
BRANCH  13  15
ATOM     14  C   UNL     1       1.593   2.783  20.613  0.00  0.00    +0.000 C 
ATOM     15  C   UNL     1       0.956   3.419  19.387  0.00  0.00    +0.000 C 
ENDBRANCH  13  15
ENDBRANCH   1  13
BRANCH   3  16
ATOM     16  O   UNL     1       3.205   7.896  18.143  0.00  0.00    +0.000 OA
BRANCH  16  17
ATOM     17  C   UNL     1       1.924   8.476  17.955  0.00  0.00    +0.000 C 
BRANCH  17  18
ATOM     18  C   UNL     1       1.335   9.017  19.249  0.00  0.00    +0.000 A 
ATOM     19  C   UNL     1       1.471   8.211  20.387  0.00  0.00    +0.000 A 
ATOM     20  C   UNL     1       0.981   8.630  21.625  0.00  0.00    +0.000 A 
ATOM     21  C   UNL     1       0.245   9.806  21.728  0.00  0.00    +0.000 A 
ATOM     22  C   UNL     1      -0.307  10.168  22.964  0.00  0.00    +0.000 A 
ATOM     23  C   UNL     1      -1.291  11.146  23.035  0.00  0.00    +0.000 A 
ATOM     24  C   UNL     1      -1.633  11.857  21.889  0.00  0.00    +0.000 A 
ATOM     25  C   UNL     1      -0.945  11.630  20.688  0.00  0.00    +0.000 A 
ATOM     26  C   UNL     1      -0.019  10.577  20.576  0.00  0.00    +0.000 A 
ATOM     27  C   UNL     1       0.603  10.212  19.355  0.00  0.00    +0.000 A 
ENDBRANCH  17  18
ENDBRANCH  16  17
ENDBRANCH   3  16
TORSDOF 6
ENDMDL
MODEL 7
REMARK VINA RESULT:      -8.1      2.349      4.766
REMARK  Name = 
REMARK  7 active torsions:
REMARK  status: ('A' for Active; 'I' for Inactive)
REMARK    1  A    between atoms: C_1  and  C_2
REMARK    2  A    between atoms: C_2  and  C_3
REMARK    3  A    between atoms: C_3  and  N_4
REMARK    4  A    between atoms: C_6  and  O_7
REMARK    5  A    between atoms: O_7  and  C_8
REMARK    6  A    between atoms: C_8  and  C_9
REMARK    7  A    between atoms: C_21  and  N_22
REMARK                            x       y       z     vdW  Elec       q    Type
REMARK                         _______ _______ _______ _____ _____    ______ ____
ROOT
ATOM      1  N   UNL     1       3.013   4.473  18.495  0.00  0.00    +0.000 N 
ATOM      2  N   UNL     1       2.603   5.717  18.879  0.00  0.00    +0.000 NA
ATOM      3  C   UNL     1       3.379   6.524  18.160  0.00  0.00    +0.000 A 
ATOM      4  C   UNL     1       4.273   5.838  17.325  0.00  0.00    +0.000 A 
ATOM      5  C   UNL     1       5.249   6.214  16.384  0.00  0.00    +0.000 A 
ATOM      6  C   UNL     1       5.983   5.236  15.722  0.00  0.00    +0.000 A 
ATOM      7  C   UNL     1       5.683   3.889  15.944  0.00  0.00    +0.000 A 
ATOM      8  C   UNL     1       4.716   3.484  16.882  0.00  0.00    +0.000 A 
ATOM      9  C   UNL     1       4.023   4.490  17.563  0.00  0.00    +0.000 A 
ENDROOT
BRANCH   6  10
ATOM     10  N   UNL     1       6.847   5.611  14.685  0.00  0.00    +0.000 N 
ATOM     11  H   UNL     1       7.576   4.928  14.498  0.00  0.00    +0.000 HD
ATOM     12  H   UNL     1       6.373   5.911  13.840  0.00  0.00    +0.000 HD
ENDBRANCH   6  10
BRANCH   1  13
ATOM     13  C   UNL     1       2.298   3.310  18.989  0.00  0.00    +0.000 C 
BRANCH  13  15
ATOM     14  C   UNL     1       1.284   2.981  21.305  0.00  0.00    +0.000 C 
ATOM     15  C   UNL     1       1.138   3.625  19.935  0.00  0.00    +0.000 C 
ENDBRANCH  13  15
ENDBRANCH   1  13
BRANCH   3  16
ATOM     16  O   UNL     1       3.292   7.876  18.230  0.00  0.00    +0.000 OA
BRANCH  16  17
ATOM     17  C   UNL     1       2.082   8.409  17.715  0.00  0.00    +0.000 C 
BRANCH  17  18
ATOM     18  C   UNL     1       1.318   9.223  18.748  0.00  0.00    +0.000 A 
ATOM     19  C   UNL     1       1.277  10.610  18.552  0.00  0.00    +0.000 A 
ATOM     20  C   UNL     1       0.584  11.439  19.434  0.00  0.00    +0.000 A 
ATOM     21  C   UNL     1       0.015  10.915  20.591  0.00  0.00    +0.000 A 
ATOM     22  C   UNL     1      -0.606  11.777  21.505  0.00  0.00    +0.000 A 
ATOM     23  C   UNL     1      -0.897  11.343  22.793  0.00  0.00    +0.000 A 
ATOM     24  C   UNL     1      -0.686  10.011  23.131  0.00  0.00    +0.000 A 
ATOM     25  C   UNL     1      -0.244   9.100  22.160  0.00  0.00    +0.000 A 
ATOM     26  C   UNL     1       0.150   9.541  20.884  0.00  0.00    +0.000 A 
ATOM     27  C   UNL     1       0.733   8.691  19.910  0.00  0.00    +0.000 A 
ENDBRANCH  17  18
ENDBRANCH  16  17
ENDBRANCH   3  16
TORSDOF 6
ENDMDL
MODEL 8
REMARK VINA RESULT:      -8.0      2.414      4.719
REMARK  Name = 
REMARK  7 active torsions:
REMARK  status: ('A' for Active; 'I' for Inactive)
REMARK    1  A    between atoms: C_1  and  C_2
REMARK    2  A    between atoms: C_2  and  C_3
REMARK    3  A    between atoms: C_3  and  N_4
REMARK    4  A    between atoms: C_6  and  O_7
REMARK    5  A    between atoms: O_7  and  C_8
REMARK    6  A    between atoms: C_8  and  C_9
REMARK    7  A    between atoms: C_21  and  N_22
REMARK                            x       y       z     vdW  Elec       q    Type
REMARK                         _______ _______ _______ _____ _____    ______ ____
ROOT
ATOM      1  N   UNL     1       4.570   4.218  16.857  0.00  0.00    +0.000 N 
ATOM      2  N   UNL     1       4.742   5.561  17.030  0.00  0.00    +0.000 NA
ATOM      3  C   UNL     1       3.785   5.876  17.898  0.00  0.00    +0.000 A 
ATOM      4  C   UNL     1       3.005   4.779  18.290  0.00  0.00    +0.000 A 
ATOM      5  C   UNL     1       1.927   4.585  19.173  0.00  0.00    +0.000 A 
ATOM      6  C   UNL     1       1.371   3.317  19.316  0.00  0.00    +0.000 A 
ATOM      7  C   UNL     1       1.946   2.239  18.638  0.00  0.00    +0.000 A 
ATOM      8  C   UNL     1       3.020   2.404  17.746  0.00  0.00    +0.000 A 
ATOM      9  C   UNL     1       3.532   3.697  17.591  0.00  0.00    +0.000 A 
ENDROOT
BRANCH   6  10
ATOM     10  N   UNL     1       0.399   3.103  20.301  0.00  0.00    +0.000 N 
ATOM     11  H   UNL     1      -0.291   3.848  20.358  0.00  0.00    +0.000 HD
ATOM     12  H   UNL     1      -0.029   2.184  20.267  0.00  0.00    +0.000 HD
ENDBRANCH   6  10
BRANCH   1  13
ATOM     13  C   UNL     1       5.528   3.482  16.051  0.00  0.00    +0.000 C 
BRANCH  13  15
ATOM     14  C   UNL     1       6.083   3.871  13.594  0.00  0.00    +0.000 C 
ATOM     15  C   UNL     1       6.291   4.327  15.030  0.00  0.00    +0.000 C 
ENDBRANCH  13  15
ENDBRANCH   1  13
BRANCH   3  16
ATOM     16  O   UNL     1       3.603   7.140  18.359  0.00  0.00    +0.000 OA
BRANCH  16  17
ATOM     17  C   UNL     1       2.432   7.774  17.871  0.00  0.00    +0.000 C 
BRANCH  17  18
ATOM     18  C   UNL     1       1.736   8.610  18.933  0.00  0.00    +0.000 A 
ATOM     19  C   UNL     1       1.708   8.082  20.231  0.00  0.00    +0.000 A 
ATOM     20  C   UNL     1       1.112   8.784  21.279  0.00  0.00    +0.000 A 
ATOM     21  C   UNL     1       0.431   9.972  21.031  0.00  0.00    +0.000 A 
ATOM     22  C   UNL     1      -0.231  10.620  22.083  0.00  0.00    +0.000 A 
ATOM     23  C   UNL     1      -1.166  11.614  21.818  0.00  0.00    +0.000 A 
ATOM     24  C   UNL     1      -1.347  12.053  20.511  0.00  0.00    +0.000 A 
ATOM     25  C   UNL     1      -0.546  11.541  19.479  0.00  0.00    +0.000 A 
ATOM     26  C   UNL     1       0.331  10.466  19.713  0.00  0.00    +0.000 A 
ATOM     27  C   UNL     1       1.060   9.817  18.684  0.00  0.00    +0.000 A 
ENDBRANCH  17  18
ENDBRANCH  16  17
ENDBRANCH   3  16
TORSDOF 6
ENDMDL
MODEL 9
REMARK VINA RESULT:      -8.0      2.569      4.584
REMARK  Name = 
REMARK  7 active torsions:
REMARK  status: ('A' for Active; 'I' for Inactive)
REMARK    1  A    between atoms: C_1  and  C_2
REMARK    2  A    between atoms: C_2  and  C_3
REMARK    3  A    between atoms: C_3  and  N_4
REMARK    4  A    between atoms: C_6  and  O_7
REMARK    5  A    between atoms: O_7  and  C_8
REMARK    6  A    between atoms: C_8  and  C_9
REMARK    7  A    between atoms: C_21  and  N_22
REMARK                            x       y       z     vdW  Elec       q    Type
REMARK                         _______ _______ _______ _____ _____    ______ ____
ROOT
ATOM      1  N   UNL     1       4.809   5.964  17.212  0.00  0.00    +0.000 N 
ATOM      2  N   UNL     1       4.236   7.078  17.754  0.00  0.00    +0.000 NA
ATOM      3  C   UNL     1       3.122   6.603  18.305  0.00  0.00    +0.000 A 
ATOM      4  C   UNL     1       2.962   5.220  18.135  0.00  0.00    +0.000 A 
ATOM      5  C   UNL     1       2.005   4.269  18.535  0.00  0.00    +0.000 A 
ATOM      6  C   UNL     1       2.163   2.936  18.172  0.00  0.00    +0.000 A 
ATOM      7  C   UNL     1       3.315   2.548  17.481  0.00  0.00    +0.000 A 
ATOM      8  C   UNL     1       4.285   3.477  17.064  0.00  0.00    +0.000 A 
ATOM      9  C   UNL     1       4.078   4.818  17.409  0.00  0.00    +0.000 A 
ENDROOT
BRANCH   6  10
ATOM     10  N   UNL     1       1.288   1.975  18.693  0.00  0.00    +0.000 N 
ATOM     11  H   UNL     1       1.575   1.617  19.601  0.00  0.00    +0.000 HD
ATOM     12  H   UNL     1       0.313   2.252  18.678  0.00  0.00    +0.000 HD
ENDBRANCH   6  10
BRANCH   1  13
ATOM     13  C   UNL     1       6.129   6.069  16.615  0.00  0.00    +0.000 C 
BRANCH  13  15
ATOM     14  C   UNL     1       7.662   6.061  18.651  0.00  0.00    +0.000 C 
ATOM     15  C   UNL     1       7.150   6.842  17.451  0.00  0.00    +0.000 C 
ENDBRANCH  13  15
ENDBRANCH   1  13
BRANCH   3  16
ATOM     16  O   UNL     1       2.242   7.392  18.973  0.00  0.00    +0.000 OA
BRANCH  16  17
ATOM     17  C   UNL     1       2.011   8.652  18.364  0.00  0.00    +0.000 C 
BRANCH  17  18
ATOM     18  C   UNL     1       1.019   9.501  19.143  0.00  0.00    +0.000 A 
ATOM     19  C   UNL     1       0.601  10.695  18.538  0.00  0.00    +0.000 A 
ATOM     20  C   UNL     1      -0.322  11.531  19.165  0.00  0.00    +0.000 A 
ATOM     21  C   UNL     1      -0.760  11.253  20.457  0.00  0.00    +0.000 A 
ATOM     22  C   UNL     1      -1.624  12.149  21.100  0.00  0.00    +0.000 A 
ATOM     23  C   UNL     1      -1.824  12.069  22.473  0.00  0.00    +0.000 A 
ATOM     24  C   UNL     1      -1.264  11.015  23.186  0.00  0.00    +0.000 A 
ATOM     25  C   UNL     1      -0.556  10.008  22.514  0.00  0.00    +0.000 A 
ATOM     26  C   UNL     1      -0.260  10.127  21.144  0.00  0.00    +0.000 A 
ATOM     27  C   UNL     1       0.567   9.213  20.443  0.00  0.00    +0.000 A 
ENDBRANCH  17  18
ENDBRANCH  16  17
ENDBRANCH   3  16
TORSDOF 6
ENDMDL
