MODEL 1
REMARK VINA RESULT:      -7.5      0.000      0.000
REMARK  Name = 
REMARK  5 active torsions:
REMARK  status: ('A' for Active; 'I' for Inactive)
REMARK    1  A    between atoms: C_1  and  C_2
REMARK    2  A    between atoms: C_6  and  N_7
REMARK    3  A    between atoms: N_7  and  C_8
REMARK    4  A    between atoms: C_12  and  C_13
REMARK    5  A    between atoms: C_13  and  O_15
REMARK                            x       y       z     vdW  Elec       q    Type
REMARK                         _______ _______ _______ _____ _____    ______ ____
ROOT
ATOM      1  C   UNL     1       4.964   5.505  17.257  0.00  0.00    +0.000 A 
ATOM      2  C   UNL     1       5.962   5.302  18.218  0.00  0.00    +0.000 A 
ATOM      3  C   UNL     1       7.241   4.880  17.844  0.00  0.00    +0.000 A 
ATOM      4  C   UNL     1       7.541   4.664  16.500  0.00  0.00    +0.000 A 
ATOM      5  C   UNL     1       6.559   4.864  15.525  0.00  0.00    +0.000 A 
ATOM      6  C   UNL     1       5.272   5.252  15.912  0.00  0.00    +0.000 A 
ENDROOT
BRANCH   1   7
ATOM      7  N   UNL     1       3.673   5.888  17.655  0.00  0.00    +0.000 N 
ATOM      8  H   UNL     1       3.327   6.753  17.259  0.00  0.00    +0.000 HD
BRANCH   7  14
ATOM      9  C   UNL     1       0.600   2.194  18.834  0.00  0.00    +0.000 C 
ATOM     10  C   UNL     1       1.255   3.493  19.196  0.00  0.00    +0.000 A 
ATOM     11  C   UNL     1       0.978   4.150  20.396  0.00  0.00    +0.000 A 
ATOM     12  C   UNL     1       1.603   5.362  20.690  0.00  0.00    +0.000 A 
ATOM     13  C   UNL     1       2.508   5.926  19.788  0.00  0.00    +0.000 A 
ATOM     14  C   UNL     1       2.807   5.281  18.583  0.00  0.00    +0.000 A 
ATOM     15  C   UNL     1       2.166   4.070  18.301  0.00  0.00    +0.000 A 
ENDBRANCH   7  14
ENDBRANCH   1   7
BRANCH   5  16
ATOM     16  C   UNL     1       6.903   4.613  14.103  0.00  0.00    +0.000 C 
ATOM     17  O   UNL     1       7.598   5.378  13.451  0.00  0.00    +0.000 OA
BRANCH  16  18
ATOM     18  O   UNL     1       6.355   3.497  13.580  0.00  0.00    +0.000 OA
ATOM     19  H   UNL     1       5.481   3.608  13.165  0.00  0.00    +0.000 HD
ENDBRANCH  16  18
ENDBRANCH   5  16
TORSDOF 4
ENDMDL
MODEL 2
REMARK VINA RESULT:      -7.5      1.599      2.014
REMARK  Name = 
REMARK  5 active torsions:
REMARK  status: ('A' for Active; 'I' for Inactive)
REMARK    1  A    between atoms: C_1  and  C_2
REMARK    2  A    between atoms: C_6  and  N_7
REMARK    3  A    between atoms: N_7  and  C_8
REMARK    4  A    between atoms: C_12  and  C_13
REMARK    5  A    between atoms: C_13  and  O_15
REMARK                            x       y       z     vdW  Elec       q    Type
REMARK                         _______ _______ _______ _____ _____    ______ ____
ROOT
ATOM      1  C   UNL     1       5.821   4.347  18.170  0.00  0.00    +0.000 A 
ATOM      2  C   UNL     1       6.343   5.503  18.761  0.00  0.00    +0.000 A 
ATOM      3  C   UNL     1       7.100   6.411  18.015  0.00  0.00    +0.000 A 
ATOM      4  C   UNL     1       7.336   6.177  16.660  0.00  0.00    +0.000 A 
ATOM      5  C   UNL     1       6.820   5.030  16.051  0.00  0.00    +0.000 A 
ATOM      6  C   UNL     1       6.094   4.109  16.815  0.00  0.00    +0.000 A 
ENDROOT
BRANCH   1   7
ATOM      7  N   UNL     1       5.100   3.425  18.946  0.00  0.00    +0.000 N 
ATOM      8  H   UNL     1       5.648   2.701  19.394  0.00  0.00    +0.000 HD
BRANCH   7  14
ATOM      9  C   UNL     1       1.276   2.567  21.966  0.00  0.00    +0.000 C 
ATOM     10  C   UNL     1       1.793   2.864  20.590  0.00  0.00    +0.000 A 
ATOM     11  C   UNL     1       0.942   2.964  19.488  0.00  0.00    +0.000 A 
ATOM     12  C   UNL     1       1.465   3.232  18.223  0.00  0.00    +0.000 A 
ATOM     13  C   UNL     1       2.841   3.402  18.050  0.00  0.00    +0.000 A 
ATOM     14  C   UNL     1       3.712   3.314  19.141  0.00  0.00    +0.000 A 
ATOM     15  C   UNL     1       3.170   3.037  20.401  0.00  0.00    +0.000 A 
ENDBRANCH   7  14
ENDBRANCH   1   7
BRANCH   5  16
ATOM     16  C   UNL     1       7.099   4.800  14.611  0.00  0.00    +0.000 C 
ATOM     17  O   UNL     1       7.796   5.553  13.949  0.00  0.00    +0.000 OA
BRANCH  16  18
ATOM     18  O   UNL     1       6.489   3.718  14.085  0.00  0.00    +0.000 OA
ATOM     19  H   UNL     1       6.121   3.831  13.190  0.00  0.00    +0.000 HD
ENDBRANCH  16  18
ENDBRANCH   5  16
TORSDOF 4
ENDMDL
MODEL 3
REMARK VINA RESULT:      -7.3      0.946      1.724
REMARK  Name = 
REMARK  5 active torsions:
REMARK  status: ('A' for Active; 'I' for Inactive)
REMARK    1  A    between atoms: C_1  and  C_2
REMARK    2  A    between atoms: C_6  and  N_7
REMARK    3  A    between atoms: N_7  and  C_8
REMARK    4  A    between atoms: C_12  and  C_13
REMARK    5  A    between atoms: C_13  and  O_15
REMARK                            x       y       z     vdW  Elec       q    Type
REMARK                         _______ _______ _______ _____ _____    ______ ____
ROOT
ATOM      1  C   UNL     1       5.039   5.398  17.928  0.00  0.00    +0.000 A 
ATOM      2  C   UNL     1       6.118   5.304  18.815  0.00  0.00    +0.000 A 
ATOM      3  C   UNL     1       7.402   5.001  18.351  0.00  0.00    +0.000 A 
ATOM      4  C   UNL     1       7.623   4.798  16.989  0.00  0.00    +0.000 A 
ATOM      5  C   UNL     1       6.558   4.890  16.088  0.00  0.00    +0.000 A 
ATOM      6  C   UNL     1       5.271   5.158  16.566  0.00  0.00    +0.000 A 
ENDROOT
BRANCH   1   7
ATOM      7  N   UNL     1       3.748   5.660  18.419  0.00  0.00    +0.000 N 
ATOM      8  H   UNL     1       3.518   6.637  18.555  0.00  0.00    +0.000 HD
BRANCH   7  14
ATOM      9  C   UNL     1       1.753   2.774  21.906  0.00  0.00    +0.000 C 
ATOM     10  C   UNL     1       1.742   3.296  20.501  0.00  0.00    +0.000 A 
ATOM     11  C   UNL     1       0.806   2.861  19.560  0.00  0.00    +0.000 A 
ATOM     12  C   UNL     1       0.837   3.365  18.260  0.00  0.00    +0.000 A 
ATOM     13  C   UNL     1       1.802   4.305  17.889  0.00  0.00    +0.000 A 
ATOM     14  C   UNL     1       2.744   4.761  18.818  0.00  0.00    +0.000 A 
ATOM     15  C   UNL     1       2.703   4.239  20.116  0.00  0.00    +0.000 A 
ENDBRANCH   7  14
ENDBRANCH   1   7
BRANCH   5  16
ATOM     16  C   UNL     1       6.820   4.655  14.646  0.00  0.00    +0.000 C 
ATOM     17  O   UNL     1       6.264   3.771  14.013  0.00  0.00    +0.000 OA
BRANCH  16  18
ATOM     18  O   UNL     1       7.750   5.468  14.103  0.00  0.00    +0.000 OA
ATOM     19  H   UNL     1       8.048   6.206  14.664  0.00  0.00    +0.000 HD
ENDBRANCH  16  18
ENDBRANCH   5  16
TORSDOF 4
ENDMDL
MODEL 4
REMARK VINA RESULT:      -7.3      1.450      2.286
REMARK  Name = 
REMARK  5 active torsions:
REMARK  status: ('A' for Active; 'I' for Inactive)
REMARK    1  A    between atoms: C_1  and  C_2
REMARK    2  A    between atoms: C_6  and  N_7
REMARK    3  A    between atoms: N_7  and  C_8
REMARK    4  A    between atoms: C_12  and  C_13
REMARK    5  A    between atoms: C_13  and  O_15
REMARK                            x       y       z     vdW  Elec       q    Type
REMARK                         _______ _______ _______ _____ _____    ______ ____
ROOT
ATOM      1  C   UNL     1       5.833   4.400  18.431  0.00  0.00    +0.000 A 
ATOM      2  C   UNL     1       6.580   5.429  19.015  0.00  0.00    +0.000 A 
ATOM      3  C   UNL     1       7.372   6.273  18.232  0.00  0.00    +0.000 A 
ATOM      4  C   UNL     1       7.418   6.103  16.848  0.00  0.00    +0.000 A 
ATOM      5  C   UNL     1       6.677   5.083  16.246  0.00  0.00    +0.000 A 
ATOM      6  C   UNL     1       5.915   4.221  17.042  0.00  0.00    +0.000 A 
ENDROOT
BRANCH   1   7
ATOM      7  N   UNL     1       5.077   3.534  19.239  0.00  0.00    +0.000 N 
ATOM      8  H   UNL     1       5.542   2.683  19.529  0.00  0.00    +0.000 HD
BRANCH   7  14
ATOM      9  C   UNL     1       1.317   6.325  20.835  0.00  0.00    +0.000 C 
ATOM     10  C   UNL     1       1.860   4.975  20.474  0.00  0.00    +0.000 A 
ATOM     11  C   UNL     1       1.095   3.814  20.602  0.00  0.00    +0.000 A 
ATOM     12  C   UNL     1       1.641   2.576  20.263  0.00  0.00    +0.000 A 
ATOM     13  C   UNL     1       2.955   2.489  19.795  0.00  0.00    +0.000 A 
ATOM     14  C   UNL     1       3.737   3.640  19.652  0.00  0.00    +0.000 A 
ATOM     15  C   UNL     1       3.175   4.872  20.003  0.00  0.00    +0.000 A 
ENDBRANCH   7  14
ENDBRANCH   1   7
BRANCH   5  16
ATOM     16  C   UNL     1       6.756   4.917  14.773  0.00  0.00    +0.000 C 
ATOM     17  O   UNL     1       5.946   4.255  14.142  0.00  0.00    +0.000 OA
BRANCH  16  18
ATOM     18  O   UNL     1       7.815   5.520  14.195  0.00  0.00    +0.000 OA
ATOM     19  H   UNL     1       7.951   6.456  14.429  0.00  0.00    +0.000 HD
ENDBRANCH  16  18
ENDBRANCH   5  16
TORSDOF 4
ENDMDL
MODEL 5
REMARK VINA RESULT:      -7.2      2.429      3.411
REMARK  Name = 
REMARK  5 active torsions:
REMARK  status: ('A' for Active; 'I' for Inactive)
REMARK    1  A    between atoms: C_1  and  C_2
REMARK    2  A    between atoms: C_6  and  N_7
REMARK    3  A    between atoms: N_7  and  C_8
REMARK    4  A    between atoms: C_12  and  C_13
REMARK    5  A    between atoms: C_13  and  O_15
REMARK                            x       y       z     vdW  Elec       q    Type
REMARK                         _______ _______ _______ _____ _____    ______ ____
ROOT
ATOM      1  C   UNL     1       5.287   3.921  17.167  0.00  0.00    +0.000 A 
ATOM      2  C   UNL     1       5.458   4.313  15.835  0.00  0.00    +0.000 A 
ATOM      3  C   UNL     1       6.395   5.292  15.490  0.00  0.00    +0.000 A 
ATOM      4  C   UNL     1       7.181   5.885  16.478  0.00  0.00    +0.000 A 
ATOM      5  C   UNL     1       7.026   5.505  17.814  0.00  0.00    +0.000 A 
ATOM      6  C   UNL     1       6.061   4.550  18.152  0.00  0.00    +0.000 A 
ENDROOT
BRANCH   1   7
ATOM      7  N   UNL     1       4.310   2.967  17.499  0.00  0.00    +0.000 N 
ATOM      8  H   UNL     1       4.454   2.038  17.121  0.00  0.00    +0.000 HD
BRANCH   7  14
ATOM      9  C   UNL     1       1.610   5.535  20.753  0.00  0.00    +0.000 C 
ATOM     10  C   UNL     1       1.759   4.345  19.853  0.00  0.00    +0.000 A 
ATOM     11  C   UNL     1       0.776   3.357  19.769  0.00  0.00    +0.000 A 
ATOM     12  C   UNL     1       0.958   2.260  18.926  0.00  0.00    +0.000 A 
ATOM     13  C   UNL     1       2.122   2.143  18.162  0.00  0.00    +0.000 A 
ATOM     14  C   UNL     1       3.116   3.125  18.225  0.00  0.00    +0.000 A 
ATOM     15  C   UNL     1       2.920   4.214  19.081  0.00  0.00    +0.000 A 
ENDBRANCH   7  14
ENDBRANCH   1   7
BRANCH   5  16
ATOM     16  C   UNL     1       7.867   6.163  18.845  0.00  0.00    +0.000 C 
ATOM     17  O   UNL     1       8.324   7.287  18.699  0.00  0.00    +0.000 OA
BRANCH  16  18
ATOM     18  O   UNL     1       8.119   5.407  19.933  0.00  0.00    +0.000 OA
ATOM     19  H   UNL     1       8.666   5.825  20.623  0.00  0.00    +0.000 HD
ENDBRANCH  16  18
ENDBRANCH   5  16
TORSDOF 4
ENDMDL
MODEL 6
REMARK VINA RESULT:      -7.2      2.411      3.126
REMARK  Name = 
REMARK  5 active torsions:
REMARK  status: ('A' for Active; 'I' for Inactive)
REMARK    1  A    between atoms: C_1  and  C_2
REMARK    2  A    between atoms: C_6  and  N_7
REMARK    3  A    between atoms: N_7  and  C_8
REMARK    4  A    between atoms: C_12  and  C_13
REMARK    5  A    between atoms: C_13  and  O_15
REMARK                            x       y       z     vdW  Elec       q    Type
REMARK                         _______ _______ _______ _____ _____    ______ ____
ROOT
ATOM      1  C   UNL     1       5.587   3.883  16.931  0.00  0.00    +0.000 A 
ATOM      2  C   UNL     1       5.888   3.750  15.570  0.00  0.00    +0.000 A 
ATOM      3  C   UNL     1       6.725   4.669  14.929  0.00  0.00    +0.000 A 
ATOM      4  C   UNL     1       7.279   5.729  15.646  0.00  0.00    +0.000 A 
ATOM      5  C   UNL     1       6.992   5.876  17.006  0.00  0.00    +0.000 A 
ATOM      6  C   UNL     1       6.125   4.972  17.631  0.00  0.00    +0.000 A 
ENDROOT
BRANCH   1   7
ATOM      7  N   UNL     1       4.710   2.974  17.547  0.00  0.00    +0.000 N 
ATOM      8  H   UNL     1       4.936   1.994  17.430  0.00  0.00    +0.000 HD
BRANCH   7  14
ATOM      9  C   UNL     1       2.126   2.776  21.761  0.00  0.00    +0.000 C 
ATOM     10  C   UNL     1       2.191   3.112  20.301  0.00  0.00    +0.000 A 
ATOM     11  C   UNL     1       1.081   3.596  19.606  0.00  0.00    +0.000 A 
ATOM     12  C   UNL     1       1.181   3.887  18.245  0.00  0.00    +0.000 A 
ATOM     13  C   UNL     1       2.390   3.697  17.570  0.00  0.00    +0.000 A 
ATOM     14  C   UNL     1       3.517   3.220  18.249  0.00  0.00    +0.000 A 
ATOM     15  C   UNL     1       3.396   2.927  19.611  0.00  0.00    +0.000 A 
ENDBRANCH   7  14
ENDBRANCH   1   7
BRANCH   5  16
ATOM     16  C   UNL     1       7.585   7.021  17.741  0.00  0.00    +0.000 C 
ATOM     17  O   UNL     1       7.594   8.156  17.290  0.00  0.00    +0.000 OA
BRANCH  16  18
ATOM     18  O   UNL     1       8.146   6.701  18.925  0.00  0.00    +0.000 OA
ATOM     19  H   UNL     1       7.716   7.076  19.714  0.00  0.00    +0.000 HD
ENDBRANCH  16  18
ENDBRANCH   5  16
TORSDOF 4
ENDMDL
MODEL 7
REMARK VINA RESULT:      -7.1      2.400      3.317
REMARK  Name = 
REMARK  5 active torsions:
REMARK  status: ('A' for Active; 'I' for Inactive)
REMARK    1  A    between atoms: C_1  and  C_2
REMARK    2  A    between atoms: C_6  and  N_7
REMARK    3  A    between atoms: N_7  and  C_8
REMARK    4  A    between atoms: C_12  and  C_13
REMARK    5  A    between atoms: C_13  and  O_15
REMARK                            x       y       z     vdW  Elec       q    Type
REMARK                         _______ _______ _______ _____ _____    ______ ____
ROOT
ATOM      1  C   UNL     1       5.678   4.225  18.069  0.00  0.00    +0.000 A 
ATOM      2  C   UNL     1       5.596   3.907  16.708  0.00  0.00    +0.000 A 
ATOM      3  C   UNL     1       6.217   4.709  15.746  0.00  0.00    +0.000 A 
ATOM      4  C   UNL     1       6.938   5.837  16.137  0.00  0.00    +0.000 A 
ATOM      5  C   UNL     1       7.033   6.170  17.491  0.00  0.00    +0.000 A 
ATOM      6  C   UNL     1       6.378   5.381  18.443  0.00  0.00    +0.000 A 
ENDROOT
BRANCH   1   7
ATOM      7  N   UNL     1       5.011   3.431  19.017  0.00  0.00    +0.000 N 
ATOM      8  H   UNL     1       5.504   2.602  19.323  0.00  0.00    +0.000 HD
BRANCH   7  14
ATOM      9  C   UNL     1       1.430   6.368  20.757  0.00  0.00    +0.000 C 
ATOM     10  C   UNL     1       1.936   4.989  20.456  0.00  0.00    +0.000 A 
ATOM     11  C   UNL     1       1.193   3.847  20.761  0.00  0.00    +0.000 A 
ATOM     12  C   UNL     1       1.704   2.582  20.473  0.00  0.00    +0.000 A 
ATOM     13  C   UNL     1       2.962   2.448  19.879  0.00  0.00    +0.000 A 
ATOM     14  C   UNL     1       3.721   3.579  19.558  0.00  0.00    +0.000 A 
ATOM     15  C   UNL     1       3.195   4.839  19.861  0.00  0.00    +0.000 A 
ENDBRANCH   7  14
ENDBRANCH   1   7
BRANCH   5  16
ATOM     16  C   UNL     1       7.795   7.384  17.876  0.00  0.00    +0.000 C 
ATOM     17  O   UNL     1       7.795   8.401  17.198  0.00  0.00    +0.000 OA
BRANCH  16  18
ATOM     18  O   UNL     1       8.517   7.261  19.007  0.00  0.00    +0.000 OA
ATOM     19  H   UNL     1       9.316   6.707  18.943  0.00  0.00    +0.000 HD
ENDBRANCH  16  18
ENDBRANCH   5  16
TORSDOF 4
ENDMDL
MODEL 8
REMARK VINA RESULT:      -7.1      1.023      1.897
REMARK  Name = 
REMARK  5 active torsions:
REMARK  status: ('A' for Active; 'I' for Inactive)
REMARK    1  A    between atoms: C_1  and  C_2
REMARK    2  A    between atoms: C_6  and  N_7
REMARK    3  A    between atoms: N_7  and  C_8
REMARK    4  A    between atoms: C_12  and  C_13
REMARK    5  A    between atoms: C_13  and  O_15
REMARK                            x       y       z     vdW  Elec       q    Type
REMARK                         _______ _______ _______ _____ _____    ______ ____
ROOT
ATOM      1  C   UNL     1       4.663   4.060  16.899  0.00  0.00    +0.000 A 
ATOM      2  C   UNL     1       5.507   4.254  17.998  0.00  0.00    +0.000 A 
ATOM      3  C   UNL     1       6.848   4.607  17.819  0.00  0.00    +0.000 A 
ATOM      4  C   UNL     1       7.359   4.780  16.532  0.00  0.00    +0.000 A 
ATOM      5  C   UNL     1       6.531   4.593  15.422  0.00  0.00    +0.000 A 
ATOM      6  C   UNL     1       5.200   4.205  15.611  0.00  0.00    +0.000 A 
ENDROOT
BRANCH   1   7
ATOM      7  N   UNL     1       3.330   3.664  17.098  0.00  0.00    +0.000 N 
ATOM      8  H   UNL     1       2.845   3.320  16.279  0.00  0.00    +0.000 HD
BRANCH   7  14
ATOM      9  C   UNL     1       1.466   6.339  20.819  0.00  0.00    +0.000 C 
ATOM     10  C   UNL     1       1.623   5.015  20.133  0.00  0.00    +0.000 A 
ATOM     11  C   UNL     1       1.065   3.845  20.652  0.00  0.00    +0.000 A 
ATOM     12  C   UNL     1       1.242   2.632  19.987  0.00  0.00    +0.000 A 
ATOM     13  C   UNL     1       1.978   2.578  18.801  0.00  0.00    +0.000 A 
ATOM     14  C   UNL     1       2.540   3.739  18.259  0.00  0.00    +0.000 A 
ATOM     15  C   UNL     1       2.358   4.946  18.943  0.00  0.00    +0.000 A 
ENDBRANCH   7  14
ENDBRANCH   1   7
BRANCH   5  16
ATOM     16  C   UNL     1       7.106   4.770  14.065  0.00  0.00    +0.000 C 
ATOM     17  O   UNL     1       7.989   5.579  13.827  0.00  0.00    +0.000 OA
BRANCH  16  18
ATOM     18  O   UNL     1       6.547   3.997  13.112  0.00  0.00    +0.000 OA
ATOM     19  H   UNL     1       7.143   3.358  12.680  0.00  0.00    +0.000 HD
ENDBRANCH  16  18
ENDBRANCH   5  16
TORSDOF 4
ENDMDL
MODEL 9
REMARK VINA RESULT:      -7.1      2.413      3.269
REMARK  Name = 
REMARK  5 active torsions:
REMARK  status: ('A' for Active; 'I' for Inactive)
REMARK    1  A    between atoms: C_1  and  C_2
REMARK    2  A    between atoms: C_6  and  N_7
REMARK    3  A    between atoms: N_7  and  C_8
REMARK    4  A    between atoms: C_12  and  C_13
REMARK    5  A    between atoms: C_13  and  O_15
REMARK                            x       y       z     vdW  Elec       q    Type
REMARK                         _______ _______ _______ _____ _____    ______ ____
ROOT
ATOM      1  C   UNL     1       4.656   4.936  17.405  0.00  0.00    +0.000 A 
ATOM      2  C   UNL     1       5.200   4.283  16.293  0.00  0.00    +0.000 A 
ATOM      3  C   UNL     1       6.583   4.241  16.092  0.00  0.00    +0.000 A 
ATOM      4  C   UNL     1       7.441   4.847  17.009  0.00  0.00    +0.000 A 
ATOM      5  C   UNL     1       6.917   5.502  18.127  0.00  0.00    +0.000 A 
ATOM      6  C   UNL     1       5.530   5.569  18.301  0.00  0.00    +0.000 A 
ENDROOT
BRANCH   1   7
ATOM      7  N   UNL     1       3.262   5.004  17.568  0.00  0.00    +0.000 N 
ATOM      8  H   UNL     1       2.794   5.742  17.056  0.00  0.00    +0.000 HD
BRANCH   7  14
ATOM      9  C   UNL     1       2.179   3.204  22.047  0.00  0.00    +0.000 C 
ATOM     10  C   UNL     1       1.865   3.301  20.584  0.00  0.00    +0.000 A 
ATOM     11  C   UNL     1       0.804   2.598  20.010  0.00  0.00    +0.000 A 
ATOM     12  C   UNL     1       0.552   2.708  18.642  0.00  0.00    +0.000 A 
ATOM     13  C   UNL     1       1.357   3.520  17.839  0.00  0.00    +0.000 A 
ATOM     14  C   UNL     1       2.421   4.239  18.395  0.00  0.00    +0.000 A 
ATOM     15  C   UNL     1       2.664   4.111  19.766  0.00  0.00    +0.000 A 
ENDBRANCH   7  14
ENDBRANCH   1   7
BRANCH   5  16
ATOM     16  C   UNL     1       7.854   6.150  19.079  0.00  0.00    +0.000 C 
ATOM     17  O   UNL     1       8.447   7.185  18.814  0.00  0.00    +0.000 OA
BRANCH  16  18
ATOM     18  O   UNL     1       8.027   5.485  20.239  0.00  0.00    +0.000 OA
ATOM     19  H   UNL     1       7.436   4.725  20.385  0.00  0.00    +0.000 HD
ENDBRANCH  16  18
ENDBRANCH   5  16
TORSDOF 4
ENDMDL
