MODEL 1
REMARK VINA RESULT:      -7.2      0.000      0.000
REMARK  Name = 
REMARK  4 active torsions:
REMARK  status: ('A' for Active; 'I' for Inactive)
REMARK    1  A    between atoms: C_1  and  C_2
REMARK    2  A    between atoms: C_2  and  C_3
REMARK    3  A    between atoms: C_8  and  C_9
REMARK    4  A    between atoms: C_17  and  O_18
REMARK                            x       y       z     vdW  Elec       q    Type
REMARK                         _______ _______ _______ _____ _____    ______ ____
ROOT
ATOM      1  C   UNL     1       6.875   7.889  17.442  0.00  0.00    +0.000 C 
ATOM      2  C   UNL     1       6.779   6.362  17.589  0.00  0.00    +0.000 C 
ATOM      3  C   UNL     1       7.281   5.614  16.421  0.00  0.00    +0.000 C 
ATOM      4  C   UNL     1       7.900   5.172  15.236  0.00  0.00    +0.000 C 
ATOM      5  C   UNL     1       6.784   3.788  15.511  0.00  0.00    +0.000 C 
ATOM      6  C   UNL     1       5.369   4.358  15.446  0.00  0.00    +0.000 C 
ATOM      7  C   UNL     1       4.464   4.187  14.176  0.00  0.00    +0.000 C 
ATOM      8  O   UNL     1       4.824   4.382  16.734  0.00  0.00    +0.000 OA
ATOM      9  C   UNL     1       5.354   5.668  17.619  0.00  0.00    +0.000 C 
ATOM     10  C   UNL     1       5.288   4.612  18.661  0.00  0.00    +0.000 C 
ATOM     11  O   UNL     1       6.228   3.904  19.010  0.00  0.00    +0.000 OA
ATOM     12  C   UNL     1       3.955   4.297  19.059  0.00  0.00    +0.000 A 
ATOM     13  C   UNL     1       3.801   2.974  19.511  0.00  0.00    +0.000 A 
ATOM     14  C   UNL     1       2.581   2.608  19.984  0.00  0.00    +0.000 A 
ATOM     15  C   UNL     1       1.612   3.607  20.037  0.00  0.00    +0.000 A 
ATOM     16  C   UNL     1       1.782   4.921  19.498  0.00  0.00    +0.000 A 
ATOM     17  C   UNL     1       2.966   5.266  18.862  0.00  0.00    +0.000 A 
ATOM     18  C   UNL     1       3.207   6.566  17.944  0.00  0.00    +0.000 C 
ATOM     19  O   UNL     1       2.551   7.595  18.069  0.00  0.00    +0.000 OA
ATOM     20  C   UNL     1       4.362   6.470  16.912  0.00  0.00    +0.000 C 
ATOM     21  C   UNL     1       4.784   6.842  15.673  0.00  0.00    +0.000 C 
ATOM     22  C   UNL     1       5.925   5.709  15.369  0.00  0.00    +0.000 C 
ENDROOT
BRANCH   2  23
ATOM     23  C   UNL     1       7.615   6.063  18.794  0.00  0.00    +0.000 C 
ATOM     24  O   UNL     1       8.484   6.828  19.169  0.00  0.00    +0.000 OA
ENDBRANCH   2  23
BRANCH  15  25
ATOM     25  O   UNL     1       0.425   3.296  20.637  0.00  0.00    +0.000 OA
ATOM     26  H   UNL     1      -0.264   3.286  19.947  0.00  0.00    +0.000 HD
ENDBRANCH  15  25
TORSDOF 2
ENDMDL
MODEL 2
REMARK VINA RESULT:      -7.1      2.002      5.508
REMARK  Name = 
REMARK  4 active torsions:
REMARK  status: ('A' for Active; 'I' for Inactive)
REMARK    1  A    between atoms: C_1  and  C_2
REMARK    2  A    between atoms: C_2  and  C_3
REMARK    3  A    between atoms: C_8  and  C_9
REMARK    4  A    between atoms: C_17  and  O_18
REMARK                            x       y       z     vdW  Elec       q    Type
REMARK                         _______ _______ _______ _____ _____    ______ ____
ROOT
ATOM      1  C   UNL     1       2.248   3.092  16.699  0.00  0.00    +0.000 C 
ATOM      2  C   UNL     1       3.062   3.218  17.996  0.00  0.00    +0.000 C 
ATOM      3  C   UNL     1       2.240   3.235  19.221  0.00  0.00    +0.000 C 
ATOM      4  C   UNL     1       1.236   3.131  20.202  0.00  0.00    +0.000 C 
ATOM      5  C   UNL     1       2.415   4.146  21.105  0.00  0.00    +0.000 C 
ATOM      6  C   UNL     1       2.557   5.445  20.316  0.00  0.00    +0.000 C 
ATOM      7  C   UNL     1       1.840   6.768  20.762  0.00  0.00    +0.000 C 
ATOM      8  O   UNL     1       3.806   5.467  19.689  0.00  0.00    +0.000 OA
ATOM      9  C   UNL     1       3.834   4.569  18.306  0.00  0.00    +0.000 C 
ATOM     10  C   UNL     1       5.192   4.304  18.845  0.00  0.00    +0.000 C 
ATOM     11  O   UNL     1       5.498   3.347  19.549  0.00  0.00    +0.000 OA
ATOM     12  C   UNL     1       6.081   5.408  18.694  0.00  0.00    +0.000 A 
ATOM     13  C   UNL     1       7.084   5.461  19.680  0.00  0.00    +0.000 A 
ATOM     14  C   UNL     1       8.024   6.437  19.570  0.00  0.00    +0.000 A 
ATOM     15  C   UNL     1       7.940   7.254  18.444  0.00  0.00    +0.000 A 
ATOM     16  C   UNL     1       6.864   7.218  17.504  0.00  0.00    +0.000 A 
ATOM     17  C   UNL     1       5.806   6.338  17.688  0.00  0.00    +0.000 A 
ATOM     18  C   UNL     1       4.393   6.380  16.919  0.00  0.00    +0.000 C 
ATOM     19  O   UNL     1       4.259   6.878  15.806  0.00  0.00    +0.000 OA
ATOM     20  C   UNL     1       3.199   5.702  17.644  0.00  0.00    +0.000 C 
ATOM     21  C   UNL     1       1.858   5.752  17.871  0.00  0.00    +0.000 C 
ATOM     22  C   UNL     1       1.734   4.877  19.249  0.00  0.00    +0.000 C 
ENDROOT
BRANCH   2  23
ATOM     23  C   UNL     1       3.948   2.012  17.984  0.00  0.00    +0.000 C 
ATOM     24  O   UNL     1       3.629   0.984  18.552  0.00  0.00    +0.000 OA
ENDBRANCH   2  23
BRANCH  15  25
ATOM     25  O   UNL     1       8.954   8.147  18.243  0.00  0.00    +0.000 OA
ATOM     26  H   UNL     1       9.766   7.765  18.623  0.00  0.00    +0.000 HD
ENDBRANCH  15  25
TORSDOF 2
ENDMDL
MODEL 3
REMARK VINA RESULT:      -6.7      8.064     10.466
REMARK  Name = 
REMARK  4 active torsions:
REMARK  status: ('A' for Active; 'I' for Inactive)
REMARK    1  A    between atoms: C_1  and  C_2
REMARK    2  A    between atoms: C_2  and  C_3
REMARK    3  A    between atoms: C_8  and  C_9
REMARK    4  A    between atoms: C_17  and  O_18
REMARK                            x       y       z     vdW  Elec       q    Type
REMARK                         _______ _______ _______ _____ _____    ______ ____
ROOT
ATOM      1  C   UNL     1      -0.417  11.170  22.500  0.00  0.00    +0.000 C 
ATOM      2  C   UNL     1      -0.339  11.163  20.965  0.00  0.00    +0.000 C 
ATOM      3  C   UNL     1       0.801  11.923  20.418  0.00  0.00    +0.000 C 
ATOM      4  C   UNL     1       2.001  12.622  20.188  0.00  0.00    +0.000 C 
ATOM      5  C   UNL     1       1.130  13.037  18.669  0.00  0.00    +0.000 C 
ATOM      6  C   UNL     1      -0.117  13.812  19.087  0.00  0.00    +0.000 C 
ATOM      7  C   UNL     1      -0.199  15.375  18.970  0.00  0.00    +0.000 C 
ATOM      8  O   UNL     1      -1.243  13.005  18.901  0.00  0.00    +0.000 OA
ATOM      9  C   UNL     1      -1.450  11.919  20.123  0.00  0.00    +0.000 C 
ATOM     10  C   UNL     1      -1.881  11.114  18.951  0.00  0.00    +0.000 C 
ATOM     11  O   UNL     1      -1.160  10.355  18.312  0.00  0.00    +0.000 OA
ATOM     12  C   UNL     1      -3.161  11.493  18.450  0.00  0.00    +0.000 A 
ATOM     13  C   UNL     1      -3.321  11.248  17.074  0.00  0.00    +0.000 A 
ATOM     14  C   UNL     1      -4.538  11.506  16.526  0.00  0.00    +0.000 A 
ATOM     15  C   UNL     1      -5.535  11.928  17.402  0.00  0.00    +0.000 A 
ATOM     16  C   UNL     1      -5.315  12.238  18.780  0.00  0.00    +0.000 A 
ATOM     17  C   UNL     1      -4.042  12.139  19.323  0.00  0.00    +0.000 A 
ATOM     18  C   UNL     1      -3.565  12.734  20.740  0.00  0.00    +0.000 C 
ATOM     19  O   UNL     1      -4.340  12.929  21.671  0.00  0.00    +0.000 OA
ATOM     20  C   UNL     1      -2.045  13.006  20.892  0.00  0.00    +0.000 C 
ATOM     21  C   UNL     1      -1.108  13.820  21.450  0.00  0.00    +0.000 C 
ATOM     22  C   UNL     1       0.185  13.526  20.490  0.00  0.00    +0.000 C 
ENDROOT
BRANCH   2  23
ATOM     23  C   UNL     1      -0.209   9.713  20.618  0.00  0.00    +0.000 C 
ATOM     24  O   UNL     1      -0.331   8.845  21.462  0.00  0.00    +0.000 OA
ENDBRANCH   2  23
BRANCH  15  25
ATOM     25  O   UNL     1      -6.798  12.057  16.897  0.00  0.00    +0.000 OA
ATOM     26  H   UNL     1      -7.426  11.911  17.628  0.00  0.00    +0.000 HD
ENDBRANCH  15  25
TORSDOF 2
ENDMDL
MODEL 4
REMARK VINA RESULT:      -6.6      7.989     10.521
REMARK  Name = 
REMARK  4 active torsions:
REMARK  status: ('A' for Active; 'I' for Inactive)
REMARK    1  A    between atoms: C_1  and  C_2
REMARK    2  A    between atoms: C_2  and  C_3
REMARK    3  A    between atoms: C_8  and  C_9
REMARK    4  A    between atoms: C_17  and  O_18
REMARK                            x       y       z     vdW  Elec       q    Type
REMARK                         _______ _______ _______ _____ _____    ______ ____
ROOT
ATOM      1  C   UNL     1      10.914  11.591  20.154  0.00  0.00    +0.000 C 
ATOM      2  C   UNL     1      10.239  12.236  18.933  0.00  0.00    +0.000 C 
ATOM      3  C   UNL     1      11.186  12.802  17.953  0.00  0.00    +0.000 C 
ATOM      4  C   UNL     1      12.297  13.161  17.166  0.00  0.00    +0.000 C 
ATOM      5  C   UNL     1      11.139  14.427  16.624  0.00  0.00    +0.000 C 
ATOM      6  C   UNL     1      10.800  15.257  17.859  0.00  0.00    +0.000 C 
ATOM      7  C   UNL     1      11.444  16.665  18.114  0.00  0.00    +0.000 C 
ATOM      8  O   UNL     1       9.492  14.968  18.261  0.00  0.00    +0.000 OA
ATOM      9  C   UNL     1       9.392  13.563  19.119  0.00  0.00    +0.000 C 
ATOM     10  C   UNL     1       8.129  13.512  18.339  0.00  0.00    +0.000 C 
ATOM     11  O   UNL     1       7.985  12.941  17.263  0.00  0.00    +0.000 OA
ATOM     12  C   UNL     1       7.136  14.416  18.819  0.00  0.00    +0.000 A 
ATOM     13  C   UNL     1       6.246  14.855  17.822  0.00  0.00    +0.000 A 
ATOM     14  C   UNL     1       5.219  15.659  18.203  0.00  0.00    +0.000 A 
ATOM     15  C   UNL     1       5.108  15.917  19.568  0.00  0.00    +0.000 A 
ATOM     16  C   UNL     1       6.074  15.515  20.543  0.00  0.00    +0.000 A 
ATOM     17  C   UNL     1       7.218  14.833  20.151  0.00  0.00    +0.000 A 
ATOM     18  C   UNL     1       8.530  14.586  21.050  0.00  0.00    +0.000 C 
ATOM     19  O   UNL     1       8.498  14.562  22.276  0.00  0.00    +0.000 OA
ATOM     20  C   UNL     1       9.850  14.322  20.276  0.00  0.00    +0.000 C 
ATOM     21  C   UNL     1      11.198  14.507  20.276  0.00  0.00    +0.000 C 
ATOM     22  C   UNL     1      11.548  14.312  18.689  0.00  0.00    +0.000 C 
ENDROOT
BRANCH   2  23
ATOM     23  C   UNL     1       9.465  11.113  18.315  0.00  0.00    +0.000 C 
ATOM     24  O   UNL     1       9.197  10.106  18.944  0.00  0.00    +0.000 OA
ENDBRANCH   2  23
BRANCH  15  25
ATOM     25  O   UNL     1       4.005  16.604  19.987  0.00  0.00    +0.000 OA
ATOM     26  H   UNL     1       4.001  16.593  20.962  0.00  0.00    +0.000 HD
ENDBRANCH  15  25
TORSDOF 2
ENDMDL
MODEL 5
REMARK VINA RESULT:      -6.5      8.493     10.401
REMARK  Name = 
REMARK  4 active torsions:
REMARK  status: ('A' for Active; 'I' for Inactive)
REMARK    1  A    between atoms: C_1  and  C_2
REMARK    2  A    between atoms: C_2  and  C_3
REMARK    3  A    between atoms: C_8  and  C_9
REMARK    4  A    between atoms: C_17  and  O_18
REMARK                            x       y       z     vdW  Elec       q    Type
REMARK                         _______ _______ _______ _____ _____    ______ ____
ROOT
ATOM      1  C   UNL     1      -1.689  12.284  22.951  0.00  0.00    +0.000 C 
ATOM      2  C   UNL     1      -0.866  11.966  21.692  0.00  0.00    +0.000 C 
ATOM      3  C   UNL     1       0.277  12.873  21.477  0.00  0.00    +0.000 C 
ATOM      4  C   UNL     1       1.324  13.808  21.575  0.00  0.00    +0.000 C 
ATOM      5  C   UNL     1       1.265  13.628  19.786  0.00  0.00    +0.000 C 
ATOM      6  C   UNL     1      -0.120  14.102  19.352  0.00  0.00    +0.000 C 
ATOM      7  C   UNL     1      -0.351  15.517  18.715  0.00  0.00    +0.000 C 
ATOM      8  O   UNL     1      -0.885  12.995  18.969  0.00  0.00    +0.000 OA
ATOM      9  C   UNL     1      -1.513  12.185  20.261  0.00  0.00    +0.000 C 
ATOM     10  C   UNL     1      -1.194  11.059  19.346  0.00  0.00    +0.000 C 
ATOM     11  O   UNL     1      -0.155  10.408  19.362  0.00  0.00    +0.000 OA
ATOM     12  C   UNL     1      -2.101  10.953  18.250  0.00  0.00    +0.000 A 
ATOM     13  C   UNL     1      -1.528  10.381  17.099  0.00  0.00    +0.000 A 
ATOM     14  C   UNL     1      -2.340  10.169  16.030  0.00  0.00    +0.000 A 
ATOM     15  C   UNL     1      -3.687  10.479  16.204  0.00  0.00    +0.000 A 
ATOM     16  C   UNL     1      -4.219  11.128  17.362  0.00  0.00    +0.000 A 
ATOM     17  C   UNL     1      -3.377  11.504  18.400  0.00  0.00    +0.000 A 
ATOM     18  C   UNL     1      -3.747  12.500  19.608  0.00  0.00    +0.000 C 
ATOM     19  O   UNL     1      -4.898  12.671  19.997  0.00  0.00    +0.000 OA
ATOM     20  C   UNL     1      -2.552  13.206  20.303  0.00  0.00    +0.000 C 
ATOM     21  C   UNL     1      -2.135  14.347  20.916  0.00  0.00    +0.000 C 
ATOM     22  C   UNL     1      -0.510  14.220  20.757  0.00  0.00    +0.000 C 
ENDROOT
BRANCH   2  23
ATOM     23  C   UNL     1      -0.383  10.568  21.922  0.00  0.00    +0.000 C 
ATOM     24  O   UNL     1       0.237  10.268  22.926  0.00  0.00    +0.000 OA
ENDBRANCH   2  23
BRANCH  15  25
ATOM     25  O   UNL     1      -4.542  10.143  15.194  0.00  0.00    +0.000 OA
ATOM     26  H   UNL     1      -5.020  10.950  14.928  0.00  0.00    +0.000 HD
ENDBRANCH  15  25
TORSDOF 2
ENDMDL
MODEL 6
REMARK VINA RESULT:      -6.5      8.054     10.272
REMARK  Name = 
REMARK  4 active torsions:
REMARK  status: ('A' for Active; 'I' for Inactive)
REMARK    1  A    between atoms: C_1  and  C_2
REMARK    2  A    between atoms: C_2  and  C_3
REMARK    3  A    between atoms: C_8  and  C_9
REMARK    4  A    between atoms: C_17  and  O_18
REMARK                            x       y       z     vdW  Elec       q    Type
REMARK                         _______ _______ _______ _____ _____    ______ ____
ROOT
ATOM      1  C   UNL     1      10.610  15.584  17.573  0.00  0.00    +0.000 C 
ATOM      2  C   UNL     1      10.670  14.940  18.967  0.00  0.00    +0.000 C 
ATOM      3  C   UNL     1      11.460  13.695  19.020  0.00  0.00    +0.000 C 
ATOM      4  C   UNL     1      12.332  12.612  18.799  0.00  0.00    +0.000 C 
ATOM      5  C   UNL     1      11.355  11.926  20.145  0.00  0.00    +0.000 C 
ATOM      6  C   UNL     1       9.919  11.844  19.635  0.00  0.00    +0.000 C 
ATOM      7  C   UNL     1       9.286  10.491  19.154  0.00  0.00    +0.000 C 
ATOM      8  O   UNL     1       9.150  12.825  20.269  0.00  0.00    +0.000 OA
ATOM      9  C   UNL     1       9.355  14.317  19.597  0.00  0.00    +0.000 C 
ATOM     10  C   UNL     1       9.226  14.667  21.035  0.00  0.00    +0.000 C 
ATOM     11  O   UNL     1      10.163  14.818  21.812  0.00  0.00    +0.000 OA
ATOM     12  C   UNL     1       7.890  14.561  21.521  0.00  0.00    +0.000 A 
ATOM     13  C   UNL     1       7.813  14.262  22.894  0.00  0.00    +0.000 A 
ATOM     14  C   UNL     1       6.579  14.217  23.461  0.00  0.00    +0.000 A 
ATOM     15  C   UNL     1       5.505  14.542  22.635  0.00  0.00    +0.000 A 
ATOM     16  C   UNL     1       5.615  14.766  21.227  0.00  0.00    +0.000 A 
ATOM     17  C   UNL     1       6.846  14.654  20.596  0.00  0.00    +0.000 A 
ATOM     18  C   UNL     1       7.094  14.567  19.008  0.00  0.00    +0.000 C 
ATOM     19  O   UNL     1       6.310  15.034  18.189  0.00  0.00    +0.000 OA
ATOM     20  C   UNL     1       8.421  13.898  18.559  0.00  0.00    +0.000 C 
ATOM     21  C   UNL     1       9.013  13.124  17.609  0.00  0.00    +0.000 C 
ATOM     22  C   UNL     1      10.317  12.560  18.423  0.00  0.00    +0.000 C 
ENDROOT
BRANCH   2  23
ATOM     23  C   UNL     1      11.303  15.992  19.823  0.00  0.00    +0.000 C 
ATOM     24  O   UNL     1      11.971  16.887  19.339  0.00  0.00    +0.000 OA
ENDBRANCH   2  23
BRANCH  15  25
ATOM     25  O   UNL     1       4.274  14.640  23.218  0.00  0.00    +0.000 OA
ATOM     26  H   UNL     1       3.651  14.966  22.543  0.00  0.00    +0.000 HD
ENDBRANCH  15  25
TORSDOF 2
ENDMDL
MODEL 7
REMARK VINA RESULT:      -6.3      9.034     11.389
REMARK  Name = 
REMARK  4 active torsions:
REMARK  status: ('A' for Active; 'I' for Inactive)
REMARK    1  A    between atoms: C_1  and  C_2
REMARK    2  A    between atoms: C_2  and  C_3
REMARK    3  A    between atoms: C_8  and  C_9
REMARK    4  A    between atoms: C_17  and  O_18
REMARK                            x       y       z     vdW  Elec       q    Type
REMARK                         _______ _______ _______ _____ _____    ______ ____
ROOT
ATOM      1  C   UNL     1       5.375  14.146  22.047  0.00  0.00    +0.000 C 
ATOM      2  C   UNL     1       6.797  13.791  22.507  0.00  0.00    +0.000 C 
ATOM      3  C   UNL     1       7.342  14.700  23.533  0.00  0.00    +0.000 C 
ATOM      4  C   UNL     1       7.560  15.648  24.550  0.00  0.00    +0.000 C 
ATOM      5  C   UNL     1       9.260  15.403  24.015  0.00  0.00    +0.000 C 
ATOM      6  C   UNL     1       9.320  15.847  22.556  0.00  0.00    +0.000 C 
ATOM      7  C   UNL     1       9.917  17.236  22.135  0.00  0.00    +0.000 C 
ATOM      8  O   UNL     1       9.447  14.719  21.738  0.00  0.00    +0.000 OA
ATOM      9  C   UNL     1       8.008  13.951  21.496  0.00  0.00    +0.000 C 
ATOM     10  C   UNL     1       8.938  12.796  21.578  0.00  0.00    +0.000 C 
ATOM     11  O   UNL     1       9.181  12.156  22.596  0.00  0.00    +0.000 OA
ATOM     12  C   UNL     1       9.744  12.641  20.412  0.00  0.00    +0.000 A 
ATOM     13  C   UNL     1      10.988  12.033  20.666  0.00  0.00    +0.000 A 
ATOM     14  C   UNL     1      11.792  11.774  19.600  0.00  0.00    +0.000 A 
ATOM     15  C   UNL     1      11.271  12.077  18.344  0.00  0.00    +0.000 A 
ATOM     16  C   UNL     1      10.035  12.763  18.131  0.00  0.00    +0.000 A 
ATOM     17  C   UNL     1       9.275  13.185  19.213  0.00  0.00    +0.000 A 
ATOM     18  C   UNL     1       8.045  14.221  19.162  0.00  0.00    +0.000 C 
ATOM     19  O   UNL     1       7.366  14.394  18.156  0.00  0.00    +0.000 OA
ATOM     20  C   UNL     1       7.721  14.963  20.486  0.00  0.00    +0.000 C 
ATOM     21  C   UNL     1       7.281  16.130  21.031  0.00  0.00    +0.000 C 
ATOM     22  C   UNL     1       7.867  16.013  22.555  0.00  0.00    +0.000 C 
ENDROOT
BRANCH   2  23
ATOM     23  C   UNL     1       6.661  12.407  23.062  0.00  0.00    +0.000 C 
ATOM     24  O   UNL     1       5.652  12.053  23.644  0.00  0.00    +0.000 OA
ENDBRANCH   2  23
BRANCH  15  25
ATOM     25  O   UNL     1      12.003  11.696  17.256  0.00  0.00    +0.000 OA
ATOM     26  H   UNL     1      12.675  11.057  17.558  0.00  0.00    +0.000 HD
ENDBRANCH  15  25
TORSDOF 2
ENDMDL
MODEL 8
REMARK VINA RESULT:      -6.2      9.232     11.374
REMARK  Name = 
REMARK  4 active torsions:
REMARK  status: ('A' for Active; 'I' for Inactive)
REMARK    1  A    between atoms: C_1  and  C_2
REMARK    2  A    between atoms: C_2  and  C_3
REMARK    3  A    between atoms: C_8  and  C_9
REMARK    4  A    between atoms: C_17  and  O_18
REMARK                            x       y       z     vdW  Elec       q    Type
REMARK                         _______ _______ _______ _____ _____    ______ ____
ROOT
ATOM      1  C   UNL     1      -2.559  12.317  23.511  0.00  0.00    +0.000 C 
ATOM      2  C   UNL     1      -1.627  12.330  22.289  0.00  0.00    +0.000 C 
ATOM      3  C   UNL     1      -0.682  13.462  22.266  0.00  0.00    +0.000 C 
ATOM      4  C   UNL     1       0.148  14.563  22.549  0.00  0.00    +0.000 C 
ATOM      5  C   UNL     1       0.215  14.607  20.752  0.00  0.00    +0.000 C 
ATOM      6  C   UNL     1      -1.213  14.853  20.274  0.00  0.00    +0.000 C 
ATOM      7  C   UNL     1      -1.694  16.266  19.790  0.00  0.00    +0.000 C 
ATOM      8  O   UNL     1      -1.718  13.677  19.710  0.00  0.00    +0.000 OA
ATOM      9  C   UNL     1      -2.232  12.601  20.848  0.00  0.00    +0.000 C 
ATOM     10  C   UNL     1      -1.647  11.686  19.835  0.00  0.00    +0.000 C 
ATOM     11  O   UNL     1      -0.499  11.253  19.853  0.00  0.00    +0.000 OA
ATOM     12  C   UNL     1      -2.458  11.546  18.670  0.00  0.00    +0.000 A 
ATOM     13  C   UNL     1      -1.724  11.249  17.507  0.00  0.00    +0.000 A 
ATOM     14  C   UNL     1      -2.421  11.022  16.363  0.00  0.00    +0.000 A 
ATOM     15  C   UNL     1      -3.810  11.038  16.471  0.00  0.00    +0.000 A 
ATOM     16  C   UNL     1      -4.520  11.418  17.653  0.00  0.00    +0.000 A 
ATOM     17  C   UNL     1      -3.825  11.814  18.787  0.00  0.00    +0.000 A 
ATOM     18  C   UNL     1      -4.449  12.555  20.072  0.00  0.00    +0.000 C 
ATOM     19  O   UNL     1      -5.628  12.447  20.391  0.00  0.00    +0.000 OA
ATOM     20  C   UNL     1      -3.458  13.386  20.931  0.00  0.00    +0.000 C 
ATOM     21  C   UNL     1      -3.312  14.498  21.701  0.00  0.00    +0.000 C 
ATOM     22  C   UNL     1      -1.689  14.711  21.650  0.00  0.00    +0.000 C 
ENDROOT
BRANCH   2  23
ATOM     23  C   UNL     1      -0.882  11.036  22.391  0.00  0.00    +0.000 C 
ATOM     24  O   UNL     1      -0.469  10.624  23.459  0.00  0.00    +0.000 OA
ENDBRANCH   2  23
BRANCH  15  25
ATOM     25  O   UNL     1      -4.527  10.675  15.367  0.00  0.00    +0.000 OA
ATOM     26  H   UNL     1      -4.162  11.157  14.603  0.00  0.00    +0.000 HD
ENDBRANCH  15  25
TORSDOF 2
ENDMDL
MODEL 9
REMARK VINA RESULT:      -6.2      8.672     10.815
REMARK  Name = 
REMARK  4 active torsions:
REMARK  status: ('A' for Active; 'I' for Inactive)
REMARK    1  A    between atoms: C_1  and  C_2
REMARK    2  A    between atoms: C_2  and  C_3
REMARK    3  A    between atoms: C_8  and  C_9
REMARK    4  A    between atoms: C_17  and  O_18
REMARK                            x       y       z     vdW  Elec       q    Type
REMARK                         _______ _______ _______ _____ _____    ______ ____
ROOT
ATOM      1  C   UNL     1       7.957  13.076  17.275  0.00  0.00    +0.000 C 
ATOM      2  C   UNL     1       8.035  14.191  18.330  0.00  0.00    +0.000 C 
ATOM      3  C   UNL     1       8.940  15.298  17.966  0.00  0.00    +0.000 C 
ATOM      4  C   UNL     1       9.775  16.236  17.331  0.00  0.00    +0.000 C 
ATOM      5  C   UNL     1      10.170  16.614  19.045  0.00  0.00    +0.000 C 
ATOM      6  C   UNL     1      10.785  15.347  19.633  0.00  0.00    +0.000 C 
ATOM      7  C   UNL     1      12.333  15.193  19.835  0.00  0.00    +0.000 C 
ATOM      8  O   UNL     1       9.871  14.761  20.516  0.00  0.00    +0.000 OA
ATOM      9  C   UNL     1       8.708  13.892  19.734  0.00  0.00    +0.000 C 
ATOM     10  C   UNL     1       7.923  14.483  20.847  0.00  0.00    +0.000 C 
ATOM     11  O   UNL     1       7.278  15.525  20.781  0.00  0.00    +0.000 OA
ATOM     12  C   UNL     1       8.186  13.871  22.108  0.00  0.00    +0.000 A 
ATOM     13  C   UNL     1       7.995  14.733  23.203  0.00  0.00    +0.000 A 
ATOM     14  C   UNL     1       8.148  14.213  24.449  0.00  0.00    +0.000 A 
ATOM     15  C   UNL     1       8.415  12.847  24.521  0.00  0.00    +0.000 A 
ATOM     16  C   UNL     1       8.677  12.019  23.386  0.00  0.00    +0.000 A 
ATOM     17  C   UNL     1       8.688  12.566  22.110  0.00  0.00    +0.000 A 
ATOM     18  C   UNL     1       9.259  11.862  20.780  0.00  0.00    +0.000 C 
ATOM     19  O   UNL     1       9.322  10.644  20.651  0.00  0.00    +0.000 OA
ATOM     20  C   UNL     1       9.686  12.815  19.631  0.00  0.00    +0.000 C 
ATOM     21  C   UNL     1      10.566  13.008  18.612  0.00  0.00    +0.000 C 
ATOM     22  C   UNL     1      10.462  14.628  18.401  0.00  0.00    +0.000 C 
ENDROOT
BRANCH   2  23
ATOM     23  C   UNL     1       6.627  14.686  18.435  0.00  0.00    +0.000 C 
ATOM     24  O   UNL     1       5.875  14.671  17.478  0.00  0.00    +0.000 OA
ENDBRANCH   2  23
BRANCH  15  25
ATOM     25  O   UNL     1       8.433  12.278  25.762  0.00  0.00    +0.000 OA
ATOM     26  H   UNL     1       8.316  11.317  25.651  0.00  0.00    +0.000 HD
ENDBRANCH  15  25
TORSDOF 2
ENDMDL
