MODEL 1
REMARK VINA RESULT:      -8.1      0.000      0.000
REMARK  Name = 
REMARK  7 active torsions:
REMARK  status: ('A' for Active; 'I' for Inactive)
REMARK    1  A    between atoms: C_2  and  C_3
REMARK    2  A    between atoms: C_3  and  C_4
REMARK    3  A    between atoms: C_4  and  S_5
REMARK    4  A    between atoms: S_5  and  C_8
REMARK    5  A    between atoms: C_11  and  O_12
REMARK    6  A    between atoms: O_12  and  C_13
REMARK    7  A    between atoms: N_27  and  O_28
REMARK                            x       y       z     vdW  Elec       q    Type
REMARK                         _______ _______ _______ _____ _____    ______ ____
ROOT
ATOM      1  S   UNL     1       3.797   5.414  19.223  0.00  0.00    +0.000 S 
ATOM      2  O   UNL     1       3.307   4.718  20.399  0.00  0.00    +0.000 OA
ATOM      3  O   UNL     1       5.171   5.886  19.194  0.00  0.00    +0.000 OA
ENDROOT
BRANCH   1   4
ATOM      4  C   UNL     1       3.508   4.364  17.713  0.00  0.00    +0.000 C 
ATOM      5  C   UNL     1       4.163   2.983  17.998  0.00  0.00    +0.000 C 
ATOM      6  C   UNL     1       3.299   2.053  18.841  0.00  0.00    +0.000 C 
ATOM      7  O   UNL     1       1.975   1.984  18.329  0.00  0.00    +0.000 OA
ATOM      8  C   UNL     1       1.309   3.239  18.372  0.00  0.00    +0.000 C 
ATOM      9  C   UNL     1       1.998   4.226  17.439  0.00  0.00    +0.000 C 
BRANCH   4  10
ATOM     10  C   UNL     1       4.250   5.074  16.552  0.00  0.00    +0.000 C 
BRANCH  10  12
ATOM     11  O   UNL     1       5.852   3.473  15.654  0.00  0.00    +0.000 OA
ATOM     12  C   UNL     1       5.632   4.561  16.178  0.00  0.00    +0.000 C 
ATOM     13  N   UNL     1       6.673   5.392  16.500  0.00  0.00    +0.000 N 
ATOM     14  H   UNL     1       7.572   5.182  16.075  0.00  0.00    +0.000 HD
BRANCH  13  15
ATOM     15  O   UNL     1       6.383   6.751  16.744  0.00  0.00    +0.000 OA
ATOM     16  H   UNL     1       5.625   6.688  17.360  0.00  0.00    +0.000 HD
ENDBRANCH  13  15
ENDBRANCH  10  12
ENDBRANCH   4  10
ENDBRANCH   1   4
BRANCH   1  17
ATOM     17  C   UNL     1       2.771   6.876  19.060  0.00  0.00    +0.000 A 
ATOM     18  C   UNL     1       1.947   7.272  20.120  0.00  0.00    +0.000 A 
ATOM     19  C   UNL     1       1.270   8.493  20.053  0.00  0.00    +0.000 A 
ATOM     20  C   UNL     1       1.433   9.330  18.946  0.00  0.00    +0.000 A 
ATOM     21  C   UNL     1       2.216   8.908  17.867  0.00  0.00    +0.000 A 
ATOM     22  C   UNL     1       2.918   7.700  17.938  0.00  0.00    +0.000 A 
BRANCH  20  23
ATOM     23  O   UNL     1       0.756  10.529  18.980  0.00  0.00    +0.000 OA
BRANCH  23  24
ATOM     24  C   UNL     1      -0.557  10.590  18.561  0.00  0.00    +0.000 A 
ATOM     25  C   UNL     1      -1.329  11.610  19.126  0.00  0.00    +0.000 A 
ATOM     26  C   UNL     1      -2.674  11.756  18.773  0.00  0.00    +0.000 A 
ATOM     27  C   UNL     1      -3.245  10.882  17.851  0.00  0.00    +0.000 A 
ATOM     28 CL   UNL     1      -4.907  11.037  17.437  0.00  0.00    +0.000 Cl
ATOM     29  C   UNL     1      -2.474   9.885  17.256  0.00  0.00    +0.000 A 
ATOM     30  C   UNL     1      -1.122   9.756  17.591  0.00  0.00    +0.000 A 
ENDBRANCH  23  24
ENDBRANCH  20  23
ENDBRANCH   1  17
TORSDOF 7
ENDMDL
MODEL 2
REMARK VINA RESULT:      -8.1      0.537      1.058
REMARK  Name = 
REMARK  7 active torsions:
REMARK  status: ('A' for Active; 'I' for Inactive)
REMARK    1  A    between atoms: C_2  and  C_3
REMARK    2  A    between atoms: C_3  and  C_4
REMARK    3  A    between atoms: C_4  and  S_5
REMARK    4  A    between atoms: S_5  and  C_8
REMARK    5  A    between atoms: C_11  and  O_12
REMARK    6  A    between atoms: O_12  and  C_13
REMARK    7  A    between atoms: N_27  and  O_28
REMARK                            x       y       z     vdW  Elec       q    Type
REMARK                         _______ _______ _______ _____ _____    ______ ____
ROOT
ATOM      1  S   UNL     1       3.544   5.358  19.557  0.00  0.00    +0.000 S 
ATOM      2  O   UNL     1       2.823   4.699  20.631  0.00  0.00    +0.000 OA
ATOM      3  O   UNL     1       4.927   5.754  19.764  0.00  0.00    +0.000 OA
ENDROOT
BRANCH   1   4
ATOM      4  C   UNL     1       3.461   4.312  18.019  0.00  0.00    +0.000 C 
ATOM      5  C   UNL     1       3.981   2.900  18.411  0.00  0.00    +0.000 C 
ATOM      6  C   UNL     1       2.934   2.026  19.092  0.00  0.00    +0.000 C 
ATOM      7  O   UNL     1       1.716   2.025  18.360  0.00  0.00    +0.000 OA
ATOM      8  C   UNL     1       1.123   3.315  18.289  0.00  0.00    +0.000 C 
ATOM      9  C   UNL     1       2.016   4.254  17.489  0.00  0.00    +0.000 C 
BRANCH   4  10
ATOM     10  C   UNL     1       4.430   4.970  17.003  0.00  0.00    +0.000 C 
BRANCH  10  12
ATOM     11  O   UNL     1       5.518   3.345  15.549  0.00  0.00    +0.000 OA
ATOM     12  C   UNL     1       5.591   4.132  16.489  0.00  0.00    +0.000 C 
ATOM     13  N   UNL     1       6.768   4.277  17.175  0.00  0.00    +0.000 N 
ATOM     14  H   UNL     1       7.603   3.905  16.731  0.00  0.00    +0.000 HD
BRANCH  13  15
ATOM     15  O   UNL     1       6.928   5.426  17.977  0.00  0.00    +0.000 OA
ATOM     16  H   UNL     1       6.237   6.020  17.620  0.00  0.00    +0.000 HD
ENDBRANCH  13  15
ENDBRANCH  10  12
ENDBRANCH   4  10
ENDBRANCH   1   4
BRANCH   1  17
ATOM     17  C   UNL     1       2.644   6.871  19.221  0.00  0.00    +0.000 A 
ATOM     18  C   UNL     1       1.854   7.450  20.221  0.00  0.00    +0.000 A 
ATOM     19  C   UNL     1       1.282   8.708  20.011  0.00  0.00    +0.000 A 
ATOM     20  C   UNL     1       1.515   9.400  18.820  0.00  0.00    +0.000 A 
ATOM     21  C   UNL     1       2.260   8.796  17.802  0.00  0.00    +0.000 A 
ATOM     22  C   UNL     1       2.859   7.550  18.016  0.00  0.00    +0.000 A 
BRANCH  20  23
ATOM     23  O   UNL     1       0.939  10.646  18.713  0.00  0.00    +0.000 OA
BRANCH  23  24
ATOM     24  C   UNL     1      -0.423  10.762  18.532  0.00  0.00    +0.000 A 
ATOM     25  C   UNL     1      -0.986   9.905  17.582  0.00  0.00    +0.000 A 
ATOM     26  C   UNL     1      -2.359   9.946  17.318  0.00  0.00    +0.000 A 
ATOM     27  C   UNL     1      -3.168  10.844  18.008  0.00  0.00    +0.000 A 
ATOM     28 CL   UNL     1      -4.852  10.921  17.665  0.00  0.00    +0.000 Cl
ATOM     29  C   UNL     1      -2.622  11.678  18.983  0.00  0.00    +0.000 A 
ATOM     30  C   UNL     1      -1.253  11.617  19.263  0.00  0.00    +0.000 A 
ENDBRANCH  23  24
ENDBRANCH  20  23
ENDBRANCH   1  17
TORSDOF 7
ENDMDL
MODEL 3
REMARK VINA RESULT:      -8.0      0.553      1.400
REMARK  Name = 
REMARK  7 active torsions:
REMARK  status: ('A' for Active; 'I' for Inactive)
REMARK    1  A    between atoms: C_2  and  C_3
REMARK    2  A    between atoms: C_3  and  C_4
REMARK    3  A    between atoms: C_4  and  S_5
REMARK    4  A    between atoms: S_5  and  C_8
REMARK    5  A    between atoms: C_11  and  O_12
REMARK    6  A    between atoms: O_12  and  C_13
REMARK    7  A    between atoms: N_27  and  O_28
REMARK                            x       y       z     vdW  Elec       q    Type
REMARK                         _______ _______ _______ _____ _____    ______ ____
ROOT
ATOM      1  S   UNL     1       3.293   5.353  19.648  0.00  0.00    +0.000 S 
ATOM      2  O   UNL     1       2.428   4.797  20.673  0.00  0.00    +0.000 OA
ATOM      3  O   UNL     1       4.711   5.510  19.919  0.00  0.00    +0.000 OA
ENDROOT
BRANCH   1   4
ATOM      4  C   UNL     1       3.103   4.372  18.076  0.00  0.00    +0.000 C 
ATOM      5  C   UNL     1       3.691   2.960  18.357  0.00  0.00    +0.000 C 
ATOM      6  C   UNL     1       2.731   2.028  19.085  0.00  0.00    +0.000 C 
ATOM      7  O   UNL     1       1.454   2.022  18.461  0.00  0.00    +0.000 OA
ATOM      8  C   UNL     1       0.824   3.296  18.499  0.00  0.00    +0.000 C 
ATOM      9  C   UNL     1       1.620   4.295  17.670  0.00  0.00    +0.000 C 
BRANCH   4  10
ATOM     10  C   UNL     1       3.964   5.102  17.013  0.00  0.00    +0.000 C 
BRANCH  10  12
ATOM     11  O   UNL     1       5.492   3.550  15.922  0.00  0.00    +0.000 OA
ATOM     12  C   UNL     1       5.321   4.507  16.671  0.00  0.00    +0.000 C 
ATOM     13  N   UNL     1       6.392   5.092  17.295  0.00  0.00    +0.000 N 
ATOM     14  H   UNL     1       7.312   4.866  16.927  0.00  0.00    +0.000 HD
BRANCH  13  15
ATOM     15  O   UNL     1       6.217   6.384  17.832  0.00  0.00    +0.000 OA
ATOM     16  H   UNL     1       7.139   6.646  18.033  0.00  0.00    +0.000 HD
ENDBRANCH  13  15
ENDBRANCH  10  12
ENDBRANCH   4  10
ENDBRANCH   1   4
BRANCH   1  17
ATOM     17  C   UNL     1       2.668   7.002  19.325  0.00  0.00    +0.000 A 
ATOM     18  C   UNL     1       2.879   7.596  18.075  0.00  0.00    +0.000 A 
ATOM     19  C   UNL     1       2.259   8.811  17.771  0.00  0.00    +0.000 A 
ATOM     20  C   UNL     1       1.410   9.421  18.698  0.00  0.00    +0.000 A 
ATOM     21  C   UNL     1       1.243   8.852  19.965  0.00  0.00    +0.000 A 
ATOM     22  C   UNL     1       1.838   7.622  20.266  0.00  0.00    +0.000 A 
BRANCH  20  23
ATOM     23  O   UNL     1       0.816  10.598  18.302  0.00  0.00    +0.000 OA
BRANCH  23  24
ATOM     24  C   UNL     1      -0.559  10.703  18.282  0.00  0.00    +0.000 A 
ATOM     25  C   UNL     1      -1.224   9.814  17.431  0.00  0.00    +0.000 A 
ATOM     26  C   UNL     1      -2.619   9.841  17.332  0.00  0.00    +0.000 A 
ATOM     27  C   UNL     1      -3.348  10.756  18.087  0.00  0.00    +0.000 A 
ATOM     28 CL   UNL     1      -5.061  10.814  17.946  0.00  0.00    +0.000 Cl
ATOM     29  C   UNL     1      -2.697  11.621  18.965  0.00  0.00    +0.000 A 
ATOM     30  C   UNL     1      -1.303  11.575  19.081  0.00  0.00    +0.000 A 
ENDBRANCH  23  24
ENDBRANCH  20  23
ENDBRANCH   1  17
TORSDOF 7
ENDMDL
MODEL 4
REMARK VINA RESULT:      -7.9      1.380      2.073
REMARK  Name = 
REMARK  7 active torsions:
REMARK  status: ('A' for Active; 'I' for Inactive)
REMARK    1  A    between atoms: C_2  and  C_3
REMARK    2  A    between atoms: C_3  and  C_4
REMARK    3  A    between atoms: C_4  and  S_5
REMARK    4  A    between atoms: S_5  and  C_8
REMARK    5  A    between atoms: C_11  and  O_12
REMARK    6  A    between atoms: O_12  and  C_13
REMARK    7  A    between atoms: N_27  and  O_28
REMARK                            x       y       z     vdW  Elec       q    Type
REMARK                         _______ _______ _______ _____ _____    ______ ____
ROOT
ATOM      1  S   UNL     1       2.364   4.791  19.868  0.00  0.00    +0.000 S 
ATOM      2  O   UNL     1       1.229   4.127  19.253  0.00  0.00    +0.000 OA
ATOM      3  O   UNL     1       2.573   4.666  21.301  0.00  0.00    +0.000 OA
ENDROOT
BRANCH   1   4
ATOM      4  C   UNL     1       3.930   4.277  19.002  0.00  0.00    +0.000 C 
ATOM      5  C   UNL     1       4.393   2.950  19.667  0.00  0.00    +0.000 C 
ATOM      6  C   UNL     1       3.668   1.714  19.146  0.00  0.00    +0.000 C 
ATOM      7  O   UNL     1       3.659   1.690  17.725  0.00  0.00    +0.000 OA
ATOM      8  C   UNL     1       2.952   2.791  17.167  0.00  0.00    +0.000 C 
ATOM      9  C   UNL     1       3.671   4.091  17.495  0.00  0.00    +0.000 C 
BRANCH   4  10
ATOM     10  C   UNL     1       4.961   5.399  19.284  0.00  0.00    +0.000 C 
BRANCH  10  12
ATOM     11  O   UNL     1       7.139   4.445  18.750  0.00  0.00    +0.000 OA
ATOM     12  C   UNL     1       6.301   5.325  18.569  0.00  0.00    +0.000 C 
ATOM     13  N   UNL     1       6.559   6.350  17.697  0.00  0.00    +0.000 N 
ATOM     14  H   UNL     1       7.333   6.216  17.053  0.00  0.00    +0.000 HD
BRANCH  13  15
ATOM     15  O   UNL     1       5.467   7.114  17.235  0.00  0.00    +0.000 OA
ATOM     16  H   UNL     1       5.732   8.021  17.490  0.00  0.00    +0.000 HD
ENDBRANCH  13  15
ENDBRANCH  10  12
ENDBRANCH   4  10
ENDBRANCH   1   4
BRANCH   1  17
ATOM     17  C   UNL     1       2.132   6.541  19.556  0.00  0.00    +0.000 A 
ATOM     18  C   UNL     1       2.269   7.042  18.255  0.00  0.00    +0.000 A 
ATOM     19  C   UNL     1       1.934   8.372  17.986  0.00  0.00    +0.000 A 
ATOM     20  C   UNL     1       1.442   9.195  19.002  0.00  0.00    +0.000 A 
ATOM     21  C   UNL     1       1.357   8.707  20.310  0.00  0.00    +0.000 A 
ATOM     22  C   UNL     1       1.663   7.370  20.582  0.00  0.00    +0.000 A 
BRANCH  20  23
ATOM     23  O   UNL     1       1.106  10.481  18.640  0.00  0.00    +0.000 OA
BRANCH  23  24
ATOM     24  C   UNL     1      -0.215  10.876  18.648  0.00  0.00    +0.000 A 
ATOM     25  C   UNL     1      -1.077  10.136  17.832  0.00  0.00    +0.000 A 
ATOM     26  C   UNL     1      -2.436  10.459  17.764  0.00  0.00    +0.000 A 
ATOM     27  C   UNL     1      -2.933  11.520  18.516  0.00  0.00    +0.000 A 
ATOM     28 CL   UNL     1      -4.597  11.941  18.412  0.00  0.00    +0.000 Cl
ATOM     29  C   UNL     1      -2.089  12.240  19.360  0.00  0.00    +0.000 A 
ATOM     30  C   UNL     1      -0.734  11.900  19.445  0.00  0.00    +0.000 A 
ENDBRANCH  23  24
ENDBRANCH  20  23
ENDBRANCH   1  17
TORSDOF 7
ENDMDL
MODEL 5
REMARK VINA RESULT:      -7.8      1.490      2.099
REMARK  Name = 
REMARK  7 active torsions:
REMARK  status: ('A' for Active; 'I' for Inactive)
REMARK    1  A    between atoms: C_2  and  C_3
REMARK    2  A    between atoms: C_3  and  C_4
REMARK    3  A    between atoms: C_4  and  S_5
REMARK    4  A    between atoms: S_5  and  C_8
REMARK    5  A    between atoms: C_11  and  O_12
REMARK    6  A    between atoms: O_12  and  C_13
REMARK    7  A    between atoms: N_27  and  O_28
REMARK                            x       y       z     vdW  Elec       q    Type
REMARK                         _______ _______ _______ _____ _____    ______ ____
ROOT
ATOM      1  S   UNL     1       2.376   4.842  19.815  0.00  0.00    +0.000 S 
ATOM      2  O   UNL     1       1.224   4.185  19.223  0.00  0.00    +0.000 OA
ATOM      3  O   UNL     1       2.612   4.715  21.243  0.00  0.00    +0.000 OA
ENDROOT
BRANCH   1   4
ATOM      4  C   UNL     1       3.920   4.317  18.918  0.00  0.00    +0.000 C 
ATOM      5  C   UNL     1       4.452   3.050  19.648  0.00  0.00    +0.000 C 
ATOM      6  C   UNL     1       3.746   1.763  19.239  0.00  0.00    +0.000 C 
ATOM      7  O   UNL     1       3.680   1.645  17.824  0.00  0.00    +0.000 OA
ATOM      8  C   UNL     1       2.916   2.684  17.227  0.00  0.00    +0.000 C 
ATOM      9  C   UNL     1       3.606   4.024  17.438  0.00  0.00    +0.000 C 
BRANCH   4  10
ATOM     10  C   UNL     1       4.926   5.485  19.083  0.00  0.00    +0.000 C 
BRANCH  10  12
ATOM     11  O   UNL     1       6.128   5.735  16.977  0.00  0.00    +0.000 OA
ATOM     12  C   UNL     1       6.152   5.495  18.181  0.00  0.00    +0.000 C 
ATOM     13  N   UNL     1       7.334   5.175  18.795  0.00  0.00    +0.000 N 
ATOM     14  H   UNL     1       8.185   5.382  18.280  0.00  0.00    +0.000 HD
BRANCH  13  15
ATOM     15  O   UNL     1       7.396   5.273  20.201  0.00  0.00    +0.000 OA
ATOM     16  H   UNL     1       7.851   4.441  20.442  0.00  0.00    +0.000 HD
ENDBRANCH  13  15
ENDBRANCH  10  12
ENDBRANCH   4  10
ENDBRANCH   1   4
BRANCH   1  17
ATOM     17  C   UNL     1       2.150   6.593  19.506  0.00  0.00    +0.000 A 
ATOM     18  C   UNL     1       2.311   7.100  18.211  0.00  0.00    +0.000 A 
ATOM     19  C   UNL     1       1.981   8.432  17.942  0.00  0.00    +0.000 A 
ATOM     20  C   UNL     1       1.469   9.250  18.953  0.00  0.00    +0.000 A 
ATOM     21  C   UNL     1       1.359   8.755  20.256  0.00  0.00    +0.000 A 
ATOM     22  C   UNL     1       1.660   7.416  20.527  0.00  0.00    +0.000 A 
BRANCH  20  23
ATOM     23  O   UNL     1       1.140  10.537  18.590  0.00  0.00    +0.000 OA
BRANCH  23  24
ATOM     24  C   UNL     1      -0.137  11.009  18.808  0.00  0.00    +0.000 A 
ATOM     25  C   UNL     1      -0.265  11.976  19.810  0.00  0.00    +0.000 A 
ATOM     26  C   UNL     1      -1.519  12.516  20.115  0.00  0.00    +0.000 A 
ATOM     27  C   UNL     1      -2.644  12.089  19.413  0.00  0.00    +0.000 A 
ATOM     28 CL   UNL     1      -4.192  12.726  19.804  0.00  0.00    +0.000 Cl
ATOM     29  C   UNL     1      -2.520  11.153  18.388  0.00  0.00    +0.000 A 
ATOM     30  C   UNL     1      -1.262  10.632  18.068  0.00  0.00    +0.000 A 
ENDBRANCH  23  24
ENDBRANCH  20  23
ENDBRANCH   1  17
TORSDOF 7
ENDMDL
MODEL 6
REMARK VINA RESULT:      -7.6      2.653      3.179
REMARK  Name = 
REMARK  7 active torsions:
REMARK  status: ('A' for Active; 'I' for Inactive)
REMARK    1  A    between atoms: C_2  and  C_3
REMARK    2  A    between atoms: C_3  and  C_4
REMARK    3  A    between atoms: C_4  and  S_5
REMARK    4  A    between atoms: S_5  and  C_8
REMARK    5  A    between atoms: C_11  and  O_12
REMARK    6  A    between atoms: O_12  and  C_13
REMARK    7  A    between atoms: N_27  and  O_28
REMARK                            x       y       z     vdW  Elec       q    Type
REMARK                         _______ _______ _______ _____ _____    ______ ____
ROOT
ATOM      1  S   UNL     1       3.578   5.417  19.460  0.00  0.00    +0.000 S 
ATOM      2  O   UNL     1       2.963   4.756  20.597  0.00  0.00    +0.000 OA
ATOM      3  O   UNL     1       4.965   5.841  19.547  0.00  0.00    +0.000 OA
ENDROOT
BRANCH   1   4
ATOM      4  C   UNL     1       3.385   4.355  17.944  0.00  0.00    +0.000 C 
ATOM      5  C   UNL     1       4.034   2.981  18.276  0.00  0.00    +0.000 C 
ATOM      6  C   UNL     1       3.130   2.050  19.074  0.00  0.00    +0.000 C 
ATOM      7  O   UNL     1       1.838   1.966  18.487  0.00  0.00    +0.000 OA
ATOM      8  C   UNL     1       1.161   3.216  18.482  0.00  0.00    +0.000 C 
ATOM      9  C   UNL     1       1.895   4.202  17.584  0.00  0.00    +0.000 C 
BRANCH   4  10
ATOM     10  C   UNL     1       4.188   5.063  16.823  0.00  0.00    +0.000 C 
BRANCH  10  12
ATOM     11  O   UNL     1       5.767   3.483  15.848  0.00  0.00    +0.000 OA
ATOM     12  C   UNL     1       5.566   4.514  16.485  0.00  0.00    +0.000 C 
ATOM     13  N   UNL     1       6.622   5.237  16.975  0.00  0.00    +0.000 N 
ATOM     14  H   UNL     1       7.538   5.023  16.590  0.00  0.00    +0.000 HD
BRANCH  13  15
ATOM     15  O   UNL     1       6.386   6.572  17.361  0.00  0.00    +0.000 OA
ATOM     16  H   UNL     1       5.754   6.461  18.100  0.00  0.00    +0.000 HD
ENDBRANCH  13  15
ENDBRANCH  10  12
ENDBRANCH   4  10
ENDBRANCH   1   4
BRANCH   1  17
ATOM     17  C   UNL     1       2.623   6.910  19.190  0.00  0.00    +0.000 A 
ATOM     18  C   UNL     1       1.849   7.442  20.228  0.00  0.00    +0.000 A 
ATOM     19  C   UNL     1       1.234   8.687  20.066  0.00  0.00    +0.000 A 
ATOM     20  C   UNL     1       1.408   9.412  18.885  0.00  0.00    +0.000 A 
ATOM     21  C   UNL     1       2.139   8.855  17.831  0.00  0.00    +0.000 A 
ATOM     22  C   UNL     1       2.780   7.623  17.995  0.00  0.00    +0.000 A 
BRANCH  20  23
ATOM     23  O   UNL     1       0.793  10.643  18.827  0.00  0.00    +0.000 OA
BRANCH  23  24
ATOM     24  C   UNL     1       1.490  11.779  19.183  0.00  0.00    +0.000 A 
ATOM     25  C   UNL     1       2.230  12.384  18.162  0.00  0.00    +0.000 A 
ATOM     26  C   UNL     1       2.977  13.538  18.420  0.00  0.00    +0.000 A 
ATOM     27  C   UNL     1       2.980  14.087  19.700  0.00  0.00    +0.000 A 
ATOM     28 CL   UNL     1       3.921  15.488  20.030  0.00  0.00    +0.000 Cl
ATOM     29  C   UNL     1       2.217  13.512  20.714  0.00  0.00    +0.000 A 
ATOM     30  C   UNL     1       1.451  12.372  20.448  0.00  0.00    +0.000 A 
ENDBRANCH  23  24
ENDBRANCH  20  23
ENDBRANCH   1  17
TORSDOF 7
ENDMDL
MODEL 7
REMARK VINA RESULT:      -7.6      2.394      3.042
REMARK  Name = 
REMARK  7 active torsions:
REMARK  status: ('A' for Active; 'I' for Inactive)
REMARK    1  A    between atoms: C_2  and  C_3
REMARK    2  A    between atoms: C_3  and  C_4
REMARK    3  A    between atoms: C_4  and  S_5
REMARK    4  A    between atoms: S_5  and  C_8
REMARK    5  A    between atoms: C_11  and  O_12
REMARK    6  A    between atoms: O_12  and  C_13
REMARK    7  A    between atoms: N_27  and  O_28
REMARK                            x       y       z     vdW  Elec       q    Type
REMARK                         _______ _______ _______ _____ _____    ______ ____
ROOT
ATOM      1  S   UNL     1       3.611   5.248  19.535  0.00  0.00    +0.000 S 
ATOM      2  O   UNL     1       2.840   4.624  20.595  0.00  0.00    +0.000 OA
ATOM      3  O   UNL     1       5.031   5.486  19.731  0.00  0.00    +0.000 OA
ENDROOT
BRANCH   1   4
ATOM      4  C   UNL     1       3.392   4.284  17.957  0.00  0.00    +0.000 C 
ATOM      5  C   UNL     1       4.007   2.877  18.204  0.00  0.00    +0.000 C 
ATOM      6  C   UNL     1       3.080   1.922  18.946  0.00  0.00    +0.000 C 
ATOM      7  O   UNL     1       1.787   1.906  18.357  0.00  0.00    +0.000 OA
ATOM      8  C   UNL     1       1.141   3.170  18.428  0.00  0.00    +0.000 C 
ATOM      9  C   UNL     1       1.899   4.190  17.590  0.00  0.00    +0.000 C 
BRANCH   4  10
ATOM     10  C   UNL     1       4.212   5.039  16.879  0.00  0.00    +0.000 C 
BRANCH  10  12
ATOM     11  O   UNL     1       5.752   3.513  15.767  0.00  0.00    +0.000 OA
ATOM     12  C   UNL     1       5.576   4.477  16.506  0.00  0.00    +0.000 C 
ATOM     13  N   UNL     1       6.647   5.104  17.087  0.00  0.00    +0.000 N 
ATOM     14  H   UNL     1       7.562   4.898  16.695  0.00  0.00    +0.000 HD
BRANCH  13  15
ATOM     15  O   UNL     1       6.452   6.399  17.609  0.00  0.00    +0.000 OA
ATOM     16  H   UNL     1       5.764   6.757  17.011  0.00  0.00    +0.000 HD
ENDBRANCH  13  15
ENDBRANCH  10  12
ENDBRANCH   4  10
ENDBRANCH   1   4
BRANCH   1  17
ATOM     17  C   UNL     1       2.872   6.862  19.279  0.00  0.00    +0.000 A 
ATOM     18  C   UNL     1       3.026   7.513  18.050  0.00  0.00    +0.000 A 
ATOM     19  C   UNL     1       2.321   8.693  17.797  0.00  0.00    +0.000 A 
ATOM     20  C   UNL     1       1.446   9.211  18.756  0.00  0.00    +0.000 A 
ATOM     21  C   UNL     1       1.336   8.587  20.003  0.00  0.00    +0.000 A 
ATOM     22  C   UNL     1       2.016   7.391  20.252  0.00  0.00    +0.000 A 
BRANCH  20  23
ATOM     23  O   UNL     1       0.769  10.359  18.410  0.00  0.00    +0.000 OA
BRANCH  23  24
ATOM     24  C   UNL     1       1.189  11.580  18.894  0.00  0.00    +0.000 A 
ATOM     25  C   UNL     1       2.248  12.176  18.203  0.00  0.00    +0.000 A 
ATOM     26  C   UNL     1       2.754  13.413  18.616  0.00  0.00    +0.000 A 
ATOM     27  C   UNL     1       2.197  14.054  19.719  0.00  0.00    +0.000 A 
ATOM     28 CL   UNL     1       2.835  15.559  20.251  0.00  0.00    +0.000 Cl
ATOM     29  C   UNL     1       1.117  13.484  20.392  0.00  0.00    +0.000 A 
ATOM     30  C   UNL     1       0.597  12.259  19.962  0.00  0.00    +0.000 A 
ENDBRANCH  23  24
ENDBRANCH  20  23
ENDBRANCH   1  17
TORSDOF 7
ENDMDL
MODEL 8
REMARK VINA RESULT:      -7.5      1.837      2.966
REMARK  Name = 
REMARK  7 active torsions:
REMARK  status: ('A' for Active; 'I' for Inactive)
REMARK    1  A    between atoms: C_2  and  C_3
REMARK    2  A    between atoms: C_3  and  C_4
REMARK    3  A    between atoms: C_4  and  S_5
REMARK    4  A    between atoms: S_5  and  C_8
REMARK    5  A    between atoms: C_11  and  O_12
REMARK    6  A    between atoms: O_12  and  C_13
REMARK    7  A    between atoms: N_27  and  O_28
REMARK                            x       y       z     vdW  Elec       q    Type
REMARK                         _______ _______ _______ _____ _____    ______ ____
ROOT
ATOM      1  S   UNL     1       3.707   5.044  18.302  0.00  0.00    +0.000 S 
ATOM      2  O   UNL     1       2.942   4.572  17.162  0.00  0.00    +0.000 OA
ATOM      3  O   UNL     1       3.735   4.252  19.520  0.00  0.00    +0.000 OA
ENDROOT
BRANCH   1   4
ATOM      4  C   UNL     1       5.463   5.374  17.779  0.00  0.00    +0.000 C 
ATOM      5  C   UNL     1       5.967   4.085  17.070  0.00  0.00    +0.000 C 
ATOM      6  C   UNL     1       5.529   3.971  15.615  0.00  0.00    +0.000 C 
ATOM      7  O   UNL     1       5.791   5.175  14.908  0.00  0.00    +0.000 OA
ATOM      8  C   UNL     1       5.060   6.280  15.424  0.00  0.00    +0.000 C 
ATOM      9  C   UNL     1       5.521   6.593  16.840  0.00  0.00    +0.000 C 
BRANCH   4  10
ATOM     10  C   UNL     1       6.261   5.605  19.088  0.00  0.00    +0.000 C 
BRANCH  10  12
ATOM     11  O   UNL     1       8.094   6.852  18.077  0.00  0.00    +0.000 OA
ATOM     12  C   UNL     1       7.692   6.106  18.965  0.00  0.00    +0.000 C 
ATOM     13  N   UNL     1       8.561   5.637  19.915  0.00  0.00    +0.000 N 
ATOM     14  H   UNL     1       9.455   6.114  19.989  0.00  0.00    +0.000 HD
BRANCH  13  15
ATOM     15  O   UNL     1       8.018   5.107  21.103  0.00  0.00    +0.000 OA
ATOM     16  H   UNL     1       8.664   5.408  21.773  0.00  0.00    +0.000 HD
ENDBRANCH  13  15
ENDBRANCH  10  12
ENDBRANCH   4  10
ENDBRANCH   1   4
BRANCH   1  17
ATOM     17  C   UNL     1       2.982   6.619  18.757  0.00  0.00    +0.000 A 
ATOM     18  C   UNL     1       2.895   7.647  17.810  0.00  0.00    +0.000 A 
ATOM     19  C   UNL     1       2.190   8.815  18.117  0.00  0.00    +0.000 A 
ATOM     20  C   UNL     1       1.552   8.949  19.352  0.00  0.00    +0.000 A 
ATOM     21  C   UNL     1       1.685   7.943  20.315  0.00  0.00    +0.000 A 
ATOM     22  C   UNL     1       2.365   6.761  20.005  0.00  0.00    +0.000 A 
BRANCH  20  23
ATOM     23  O   UNL     1       0.852  10.118  19.555  0.00  0.00    +0.000 OA
BRANCH  23  24
ATOM     24  C   UNL     1      -0.335  10.335  18.887  0.00  0.00    +0.000 A 
ATOM     25  C   UNL     1      -1.142  11.356  19.398  0.00  0.00    +0.000 A 
ATOM     26  C   UNL     1      -2.370  11.654  18.797  0.00  0.00    +0.000 A 
ATOM     27  C   UNL     1      -2.786  10.931  17.683  0.00  0.00    +0.000 A 
ATOM     28 CL   UNL     1      -4.309  11.271  16.959  0.00  0.00    +0.000 Cl
ATOM     29  C   UNL     1      -1.972   9.936  17.144  0.00  0.00    +0.000 A 
ATOM     30  C   UNL     1      -0.733   9.657  17.732  0.00  0.00    +0.000 A 
ENDBRANCH  23  24
ENDBRANCH  20  23
ENDBRANCH   1  17
TORSDOF 7
ENDMDL
MODEL 9
REMARK VINA RESULT:      -7.5      2.357      3.642
REMARK  Name = 
REMARK  7 active torsions:
REMARK  status: ('A' for Active; 'I' for Inactive)
REMARK    1  A    between atoms: C_2  and  C_3
REMARK    2  A    between atoms: C_3  and  C_4
REMARK    3  A    between atoms: C_4  and  S_5
REMARK    4  A    between atoms: S_5  and  C_8
REMARK    5  A    between atoms: C_11  and  O_12
REMARK    6  A    between atoms: O_12  and  C_13
REMARK    7  A    between atoms: N_27  and  O_28
REMARK                            x       y       z     vdW  Elec       q    Type
REMARK                         _______ _______ _______ _____ _____    ______ ____
ROOT
ATOM      1  S   UNL     1       4.119   4.395  18.053  0.00  0.00    +0.000 S 
ATOM      2  O   UNL     1       3.467   4.030  16.809  0.00  0.00    +0.000 OA
ATOM      3  O   UNL     1       4.356   3.374  19.060  0.00  0.00    +0.000 OA
ENDROOT
BRANCH   1   4
ATOM      4  C   UNL     1       5.737   5.239  17.684  0.00  0.00    +0.000 C 
ATOM      5  C   UNL     1       6.602   4.219  16.891  0.00  0.00    +0.000 C 
ATOM      6  C   UNL     1       6.268   4.152  15.406  0.00  0.00    +0.000 C 
ATOM      7  O   UNL     1       6.219   5.453  14.835  0.00  0.00    +0.000 OA
ATOM      8  C   UNL     1       5.193   6.257  15.404  0.00  0.00    +0.000 C 
ATOM      9  C   UNL     1       5.495   6.525  16.871  0.00  0.00    +0.000 C 
BRANCH   4  10
ATOM     10  C   UNL     1       6.389   5.531  19.060  0.00  0.00    +0.000 C 
BRANCH  10  12
ATOM     11  O   UNL     1       8.157   7.011  18.273  0.00  0.00    +0.000 OA
ATOM     12  C   UNL     1       7.775   6.156  19.067  0.00  0.00    +0.000 C 
ATOM     13  N   UNL     1       8.631   5.674  20.022  0.00  0.00    +0.000 N 
ATOM     14  H   UNL     1       9.475   6.214  20.192  0.00  0.00    +0.000 HD
BRANCH  13  15
ATOM     15  O   UNL     1       8.075   4.994  21.125  0.00  0.00    +0.000 OA
ATOM     16  H   UNL     1       7.284   5.536  21.320  0.00  0.00    +0.000 HD
ENDBRANCH  13  15
ENDBRANCH  10  12
ENDBRANCH   4  10
ENDBRANCH   1   4
BRANCH   1  17
ATOM     17  C   UNL     1       3.049   5.608  18.826  0.00  0.00    +0.000 A 
ATOM     18  C   UNL     1       2.484   5.343  20.079  0.00  0.00    +0.000 A 
ATOM     19  C   UNL     1       1.782   6.349  20.750  0.00  0.00    +0.000 A 
ATOM     20  C   UNL     1       1.664   7.622  20.188  0.00  0.00    +0.000 A 
ATOM     21  C   UNL     1       2.184   7.868  18.913  0.00  0.00    +0.000 A 
ATOM     22  C   UNL     1       2.912   6.876  18.248  0.00  0.00    +0.000 A 
BRANCH  20  23
ATOM     23  O   UNL     1       0.984   8.560  20.933  0.00  0.00    +0.000 OA
BRANCH  23  24
ATOM     24  C   UNL     1       0.690   9.792  20.387  0.00  0.00    +0.000 A 
ATOM     25  C   UNL     1      -0.405   9.826  19.518  0.00  0.00    +0.000 A 
ATOM     26  C   UNL     1      -0.784  11.026  18.907  0.00  0.00    +0.000 A 
ATOM     27  C   UNL     1      -0.069  12.191  19.168  0.00  0.00    +0.000 A 
ATOM     28 CL   UNL     1      -0.511  13.662  18.395  0.00  0.00    +0.000 Cl
ATOM     29  C   UNL     1       1.002  12.174  20.061  0.00  0.00    +0.000 A 
ATOM     30  C   UNL     1       1.364  10.979  20.691  0.00  0.00    +0.000 A 
ENDBRANCH  23  24
ENDBRANCH  20  23
ENDBRANCH   1  17
TORSDOF 7
ENDMDL
