MODEL 1
REMARK VINA RESULT:      -7.0      0.000      0.000
REMARK  Name = 
REMARK  2 active torsions:
REMARK  status: ('A' for Active; 'I' for Inactive)
REMARK    1  A    between atoms: C_4  and  C_5
REMARK    2  A    between atoms: C_11  and  C_12
REMARK                            x       y       z     vdW  Elec       q    Type
REMARK                         _______ _______ _______ _____ _____    ______ ____
ROOT
ATOM      1  C   UNL     1       4.475   3.916  18.416  0.00  0.00    +0.000 A 
ATOM      2  C   UNL     1       4.320   2.758  19.166  0.00  0.00    +0.000 A 
ATOM      3  N   UNL     1       3.428   2.927  20.200  0.00  0.00    +0.000 NA
ATOM      4  C   UNL     1       3.028   4.169  20.069  0.00  0.00    +0.000 A 
ATOM      5  C   UNL     1       2.098   4.895  20.885  0.00  0.00    +0.000 A 
ATOM      6  N   UNL     1       1.771   6.132  20.625  0.00  0.00    +0.000 NA
ATOM      7  C   UNL     1       2.333   6.737  19.503  0.00  0.00    +0.000 A 
ATOM      8  C   UNL     1       3.213   6.105  18.699  0.00  0.00    +0.000 A 
ATOM      9  N   UNL     1       3.594   4.807  18.996  0.00  0.00    +0.000 N 
ENDROOT
BRANCH   1  13
ATOM     10  C   UNL     1       6.146   4.385  15.106  0.00  0.00    +0.000 A 
ATOM     11  C   UNL     1       7.243   4.779  15.835  0.00  0.00    +0.000 A 
ATOM     12  S   UNL     1       6.940   4.745  17.517  0.00  0.00    +0.000 S 
ATOM     13  C   UNL     1       5.333   4.179  17.293  0.00  0.00    +0.000 A 
ATOM     14  C   UNL     1       5.039   4.062  15.946  0.00  0.00    +0.000 A 
ENDBRANCH   1  13
BRANCH   7  15
ATOM     15  C   UNL     1       1.902   8.091  19.261  0.00  0.00    +0.000 A 
ATOM     16  C   UNL     1       2.130   8.840  18.060  0.00  0.00    +0.000 A 
ATOM     17  C   UNL     1       1.611  10.114  18.125  0.00  0.00    +0.000 A 
ATOM     18  S   UNL     1       0.852  10.422  19.625  0.00  0.00    +0.000 S 
ATOM     19  C   UNL     1       1.209   8.846  20.189  0.00  0.00    +0.000 A 
ENDBRANCH   7  15
TORSDOF 2
ENDMDL
MODEL 2
REMARK VINA RESULT:      -6.7      0.925      1.411
REMARK  Name = 
REMARK  2 active torsions:
REMARK  status: ('A' for Active; 'I' for Inactive)
REMARK    1  A    between atoms: C_4  and  C_5
REMARK    2  A    between atoms: C_11  and  C_12
REMARK                            x       y       z     vdW  Elec       q    Type
REMARK                         _______ _______ _______ _____ _____    ______ ____
ROOT
ATOM      1  C   UNL     1       4.572   3.818  18.808  0.00  0.00    +0.000 A 
ATOM      2  C   UNL     1       4.351   2.604  19.446  0.00  0.00    +0.000 A 
ATOM      3  N   UNL     1       3.334   2.683  20.369  0.00  0.00    +0.000 NA
ATOM      4  C   UNL     1       2.925   3.926  20.280  0.00  0.00    +0.000 A 
ATOM      5  C   UNL     1       1.884   4.575  21.024  0.00  0.00    +0.000 A 
ATOM      6  N   UNL     1       1.564   5.823  20.816  0.00  0.00    +0.000 NA
ATOM      7  C   UNL     1       2.247   6.519  19.821  0.00  0.00    +0.000 A 
ATOM      8  C   UNL     1       3.235   5.961  19.091  0.00  0.00    +0.000 A 
ATOM      9  N   UNL     1       3.605   4.651  19.337  0.00  0.00    +0.000 N 
ENDROOT
BRANCH   1  13
ATOM     10  C   UNL     1       7.522   4.954  16.816  0.00  0.00    +0.000 A 
ATOM     11  C   UNL     1       6.784   4.596  15.714  0.00  0.00    +0.000 A 
ATOM     12  S   UNL     1       5.256   3.962  16.146  0.00  0.00    +0.000 S 
ATOM     13  C   UNL     1       5.557   4.177  17.824  0.00  0.00    +0.000 A 
ATOM     14  C   UNL     1       6.825   4.691  18.032  0.00  0.00    +0.000 A 
ENDBRANCH   1  13
BRANCH   7  15
ATOM     15  C   UNL     1       1.818   7.881  19.627  0.00  0.00    +0.000 A 
ATOM     16  C   UNL     1       1.178   8.705  20.610  0.00  0.00    +0.000 A 
ATOM     17  C   UNL     1       0.874   9.960  20.131  0.00  0.00    +0.000 A 
ATOM     18  S   UNL     1       1.349  10.157  18.501  0.00  0.00    +0.000 S 
ATOM     19  C   UNL     1       1.972   8.564  18.435  0.00  0.00    +0.000 A 
ENDBRANCH   7  15
TORSDOF 2
ENDMDL
MODEL 3
REMARK VINA RESULT:      -6.6      3.719      6.512
REMARK  Name = 
REMARK  2 active torsions:
REMARK  status: ('A' for Active; 'I' for Inactive)
REMARK    1  A    between atoms: C_4  and  C_5
REMARK    2  A    between atoms: C_11  and  C_12
REMARK                            x       y       z     vdW  Elec       q    Type
REMARK                         _______ _______ _______ _____ _____    ______ ____
ROOT
ATOM      1  C   UNL     1       4.481   4.229  18.660  0.00  0.00    +0.000 A 
ATOM      2  C   UNL     1       5.208   4.774  19.710  0.00  0.00    +0.000 A 
ATOM      3  N   UNL     1       6.466   5.169  19.317  0.00  0.00    +0.000 NA
ATOM      4  C   UNL     1       6.498   4.887  18.036  0.00  0.00    +0.000 A 
ATOM      5  C   UNL     1       7.576   5.078  17.110  0.00  0.00    +0.000 A 
ATOM      6  N   UNL     1       7.463   4.769  15.846  0.00  0.00    +0.000 NA
ATOM      7  C   UNL     1       6.243   4.266  15.401  0.00  0.00    +0.000 A 
ATOM      8  C   UNL     1       5.194   4.064  16.226  0.00  0.00    +0.000 A 
ATOM      9  N   UNL     1       5.325   4.351  17.573  0.00  0.00    +0.000 N 
ENDROOT
BRANCH   1  13
ATOM     10  C   UNL     1       0.831   3.429  18.608  0.00  0.00    +0.000 A 
ATOM     11  C   UNL     1       1.226   2.115  18.685  0.00  0.00    +0.000 A 
ATOM     12  S   UNL     1       2.927   1.958  18.720  0.00  0.00    +0.000 S 
ATOM     13  C   UNL     1       3.161   3.659  18.651  0.00  0.00    +0.000 A 
ATOM     14  C   UNL     1       1.946   4.316  18.565  0.00  0.00    +0.000 A 
ENDBRANCH   1  13
BRANCH   7  15
ATOM     15  C   UNL     1       6.182   3.977  13.990  0.00  0.00    +0.000 A 
ATOM     16  C   UNL     1       7.233   4.208  13.042  0.00  0.00    +0.000 A 
ATOM     17  C   UNL     1       6.879   3.844  11.762  0.00  0.00    +0.000 A 
ATOM     18  S   UNL     1       5.287   3.228  11.687  0.00  0.00    +0.000 S 
ATOM     19  C   UNL     1       5.068   3.440  13.372  0.00  0.00    +0.000 A 
ENDBRANCH   7  15
TORSDOF 2
ENDMDL
MODEL 4
REMARK VINA RESULT:      -6.5      3.636      6.557
REMARK  Name = 
REMARK  2 active torsions:
REMARK  status: ('A' for Active; 'I' for Inactive)
REMARK    1  A    between atoms: C_4  and  C_5
REMARK    2  A    between atoms: C_11  and  C_12
REMARK                            x       y       z     vdW  Elec       q    Type
REMARK                         _______ _______ _______ _____ _____    ______ ____
ROOT
ATOM      1  C   UNL     1       4.501   4.428  18.556  0.00  0.00    +0.000 A 
ATOM      2  C   UNL     1       5.118   5.210  19.523  0.00  0.00    +0.000 A 
ATOM      3  N   UNL     1       6.262   5.812  19.049  0.00  0.00    +0.000 NA
ATOM      4  C   UNL     1       6.329   5.418  17.800  0.00  0.00    +0.000 A 
ATOM      5  C   UNL     1       7.329   5.732  16.821  0.00  0.00    +0.000 A 
ATOM      6  N   UNL     1       7.260   5.285  15.596  0.00  0.00    +0.000 NA
ATOM      7  C   UNL     1       6.163   4.502  15.245  0.00  0.00    +0.000 A 
ATOM      8  C   UNL     1       5.192   4.173  16.122  0.00  0.00    +0.000 A 
ATOM      9  N   UNL     1       5.284   4.612  17.432  0.00  0.00    +0.000 N 
ENDROOT
BRANCH   1  13
ATOM     10  C   UNL     1       1.904   1.785  19.036  0.00  0.00    +0.000 A 
ATOM     11  C   UNL     1       1.017   2.717  18.553  0.00  0.00    +0.000 A 
ATOM     12  S   UNL     1       1.785   4.198  18.182  0.00  0.00    +0.000 S 
ATOM     13  C   UNL     1       3.327   3.603  18.648  0.00  0.00    +0.000 A 
ATOM     14  C   UNL     1       3.230   2.303  19.112  0.00  0.00    +0.000 A 
ENDBRANCH   1  13
BRANCH   7  15
ATOM     15  C   UNL     1       6.138   4.071  13.870  0.00  0.00    +0.000 A 
ATOM     16  C   UNL     1       7.206   4.223  12.926  0.00  0.00    +0.000 A 
ATOM     17  C   UNL     1       6.888   3.724  11.683  0.00  0.00    +0.000 A 
ATOM     18  S   UNL     1       5.308   3.074  11.637  0.00  0.00    +0.000 S 
ATOM     19  C   UNL     1       5.048   3.452  13.286  0.00  0.00    +0.000 A 
ENDBRANCH   7  15
TORSDOF 2
ENDMDL
MODEL 5
REMARK VINA RESULT:      -6.4      2.655      7.228
REMARK  Name = 
REMARK  2 active torsions:
REMARK  status: ('A' for Active; 'I' for Inactive)
REMARK    1  A    between atoms: C_4  and  C_5
REMARK    2  A    between atoms: C_11  and  C_12
REMARK                            x       y       z     vdW  Elec       q    Type
REMARK                         _______ _______ _______ _____ _____    ______ ____
ROOT
ATOM      1  C   UNL     1       1.150   9.583  19.739  0.00  0.00    +0.000 A 
ATOM      2  C   UNL     1       1.314  10.416  18.640  0.00  0.00    +0.000 A 
ATOM      3  N   UNL     1       2.044   9.815  17.640  0.00  0.00    +0.000 NA
ATOM      4  C   UNL     1       2.305   8.621  18.117  0.00  0.00    +0.000 A 
ATOM      5  C   UNL     1       3.050   7.561  17.501  0.00  0.00    +0.000 A 
ATOM      6  N   UNL     1       3.215   6.404  18.084  0.00  0.00    +0.000 NA
ATOM      7  C   UNL     1       2.621   6.206  19.328  0.00  0.00    +0.000 A 
ATOM      8  C   UNL     1       1.909   7.166  19.956  0.00  0.00    +0.000 A 
ATOM      9  N   UNL     1       1.767   8.406  19.359  0.00  0.00    +0.000 N 
ENDROOT
BRANCH   1  13
ATOM     10  C   UNL     1      -0.239   9.612  23.208  0.00  0.00    +0.000 A 
ATOM     11  C   UNL     1      -0.833  10.797  22.847  0.00  0.00    +0.000 A 
ATOM     12  S   UNL     1      -0.452  11.241  21.241  0.00  0.00    +0.000 S 
ATOM     13  C   UNL     1       0.503   9.834  20.998  0.00  0.00    +0.000 A 
ATOM     14  C   UNL     1       0.549   9.069  22.151  0.00  0.00    +0.000 A 
ENDBRANCH   1  13
BRANCH   7  15
ATOM     15  C   UNL     1       2.819   4.897  19.896  0.00  0.00    +0.000 A 
ATOM     16  C   UNL     1       2.076   4.336  20.987  0.00  0.00    +0.000 A 
ATOM     17  C   UNL     1       2.501   3.069  21.319  0.00  0.00    +0.000 A 
ATOM     18  S   UNL     1       3.793   2.545  20.331  0.00  0.00    +0.000 S 
ATOM     19  C   UNL     1       3.783   4.012  19.449  0.00  0.00    +0.000 A 
ENDBRANCH   7  15
TORSDOF 2
ENDMDL
MODEL 6
REMARK VINA RESULT:      -6.4      2.600      4.532
REMARK  Name = 
REMARK  2 active torsions:
REMARK  status: ('A' for Active; 'I' for Inactive)
REMARK    1  A    between atoms: C_4  and  C_5
REMARK    2  A    between atoms: C_11  and  C_12
REMARK                            x       y       z     vdW  Elec       q    Type
REMARK                         _______ _______ _______ _____ _____    ______ ____
ROOT
ATOM      1  C   UNL     1       2.853   5.925  19.015  0.00  0.00    +0.000 A 
ATOM      2  C   UNL     1       3.523   6.036  17.803  0.00  0.00    +0.000 A 
ATOM      3  N   UNL     1       3.372   7.283  17.242  0.00  0.00    +0.000 NA
ATOM      4  C   UNL     1       2.635   7.932  18.112  0.00  0.00    +0.000 A 
ATOM      5  C   UNL     1       2.154   9.281  18.040  0.00  0.00    +0.000 A 
ATOM      6  N   UNL     1       1.441   9.812  18.996  0.00  0.00    +0.000 NA
ATOM      7  C   UNL     1       1.172   9.036  20.121  0.00  0.00    +0.000 A 
ATOM      8  C   UNL     1       1.596   7.761  20.245  0.00  0.00    +0.000 A 
ATOM      9  N   UNL     1       2.318   7.183  19.214  0.00  0.00    +0.000 N 
ENDROOT
BRANCH   1  13
ATOM     10  C   UNL     1       1.957   3.359  21.579  0.00  0.00    +0.000 A 
ATOM     11  C   UNL     1       3.007   2.634  21.068  0.00  0.00    +0.000 A 
ATOM     12  S   UNL     1       3.773   3.445  19.773  0.00  0.00    +0.000 S 
ATOM     13  C   UNL     1       2.717   4.794  19.892  0.00  0.00    +0.000 A 
ATOM     14  C   UNL     1       1.776   4.592  20.887  0.00  0.00    +0.000 A 
ENDBRANCH   1  13
BRANCH   7  15
ATOM     15  C   UNL     1       0.407   9.697  21.148  0.00  0.00    +0.000 A 
ATOM     16  C   UNL     1       0.052   9.136  22.419  0.00  0.00    +0.000 A 
ATOM     17  C   UNL     1      -0.694  10.001  23.188  0.00  0.00    +0.000 A 
ATOM     18  S   UNL     1      -0.978  11.486  22.392  0.00  0.00    +0.000 S 
ATOM     19  C   UNL     1      -0.095  10.979  21.017  0.00  0.00    +0.000 A 
ENDBRANCH   7  15
TORSDOF 2
ENDMDL
MODEL 7
REMARK VINA RESULT:      -6.3      1.581      2.127
REMARK  Name = 
REMARK  2 active torsions:
REMARK  status: ('A' for Active; 'I' for Inactive)
REMARK    1  A    between atoms: C_4  and  C_5
REMARK    2  A    between atoms: C_11  and  C_12
REMARK                            x       y       z     vdW  Elec       q    Type
REMARK                         _______ _______ _______ _____ _____    ______ ____
ROOT
ATOM      1  C   UNL     1       4.812   4.660  19.157  0.00  0.00    +0.000 A 
ATOM      2  C   UNL     1       4.649   3.287  19.292  0.00  0.00    +0.000 A 
ATOM      3  N   UNL     1       3.447   2.965  19.880  0.00  0.00    +0.000 NA
ATOM      4  C   UNL     1       2.874   4.128  20.081  0.00  0.00    +0.000 A 
ATOM      5  C   UNL     1       1.600   4.399  20.680  0.00  0.00    +0.000 A 
ATOM      6  N   UNL     1       1.139   5.615  20.800  0.00  0.00    +0.000 NA
ATOM      7  C   UNL     1       1.911   6.661  20.302  0.00  0.00    +0.000 A 
ATOM      8  C   UNL     1       3.118   6.467  19.730  0.00  0.00    +0.000 A 
ATOM      9  N   UNL     1       3.628   5.183  19.639  0.00  0.00    +0.000 N 
ENDROOT
BRANCH   1  13
ATOM     10  C   UNL     1       8.003   6.477  18.464  0.00  0.00    +0.000 A 
ATOM     11  C   UNL     1       7.449   6.767  17.240  0.00  0.00    +0.000 A 
ATOM     12  S   UNL     1       5.890   6.089  17.067  0.00  0.00    +0.000 S 
ATOM     13  C   UNL     1       5.926   5.410  18.644  0.00  0.00    +0.000 A 
ATOM     14  C   UNL     1       7.135   5.676  19.263  0.00  0.00    +0.000 A 
ENDBRANCH   1  13
BRANCH   7  15
ATOM     15  C   UNL     1       1.326   7.971  20.441  0.00  0.00    +0.000 A 
ATOM     16  C   UNL     1       0.563   8.432  21.564  0.00  0.00    +0.000 A 
ATOM     17  C   UNL     1       0.121   9.726  21.408  0.00  0.00    +0.000 A 
ATOM     18  S   UNL     1       0.613  10.396  19.914  0.00  0.00    +0.000 S 
ATOM     19  C   UNL     1       1.427   8.956  19.476  0.00  0.00    +0.000 A 
ENDBRANCH   7  15
TORSDOF 2
ENDMDL
MODEL 8
REMARK VINA RESULT:      -6.2      1.293      5.780
REMARK  Name = 
REMARK  2 active torsions:
REMARK  status: ('A' for Active; 'I' for Inactive)
REMARK    1  A    between atoms: C_4  and  C_5
REMARK    2  A    between atoms: C_11  and  C_12
REMARK                            x       y       z     vdW  Elec       q    Type
REMARK                         _______ _______ _______ _____ _____    ______ ____
ROOT
ATOM      1  C   UNL     1       2.237   6.620  19.765  0.00  0.00    +0.000 A 
ATOM      2  C   UNL     1       1.776   5.970  20.901  0.00  0.00    +0.000 A 
ATOM      3  N   UNL     1       2.268   4.689  21.000  0.00  0.00    +0.000 NA
ATOM      4  C   UNL     1       3.039   4.567  19.945  0.00  0.00    +0.000 A 
ATOM      5  C   UNL     1       3.805   3.428  19.530  0.00  0.00    +0.000 A 
ATOM      6  N   UNL     1       4.552   3.452  18.460  0.00  0.00    +0.000 NA
ATOM      7  C   UNL     1       4.613   4.636  17.729  0.00  0.00    +0.000 A 
ATOM      8  C   UNL     1       3.915   5.738  18.070  0.00  0.00    +0.000 A 
ATOM      9  N   UNL     1       3.090   5.703  19.181  0.00  0.00    +0.000 N 
ENDROOT
BRANCH   1  13
ATOM     10  C   UNL     1       1.794   9.818  17.882  0.00  0.00    +0.000 A 
ATOM     11  C   UNL     1       1.144  10.267  19.007  0.00  0.00    +0.000 A 
ATOM     12  S   UNL     1       1.073   9.071  20.226  0.00  0.00    +0.000 S 
ATOM     13  C   UNL     1       1.933   7.934  19.266  0.00  0.00    +0.000 A 
ATOM     14  C   UNL     1       2.227   8.467  18.023  0.00  0.00    +0.000 A 
ENDBRANCH   1  13
BRANCH   7  15
ATOM     15  C   UNL     1       5.482   4.597  16.579  0.00  0.00    +0.000 A 
ATOM     16  C   UNL     1       6.817   5.117  16.521  0.00  0.00    +0.000 A 
ATOM     17  C   UNL     1       7.396   4.947  15.284  0.00  0.00    +0.000 A 
ATOM     18  S   UNL     1       6.345   4.168  14.184  0.00  0.00    +0.000 S 
ATOM     19  C   UNL     1       5.112   4.049  15.365  0.00  0.00    +0.000 A 
ENDBRANCH   7  15
TORSDOF 2
ENDMDL
MODEL 9
REMARK VINA RESULT:      -6.0      1.096      1.524
REMARK  Name = 
REMARK  2 active torsions:
REMARK  status: ('A' for Active; 'I' for Inactive)
REMARK    1  A    between atoms: C_4  and  C_5
REMARK    2  A    between atoms: C_11  and  C_12
REMARK                            x       y       z     vdW  Elec       q    Type
REMARK                         _______ _______ _______ _____ _____    ______ ____
ROOT
ATOM      1  C   UNL     1       4.124   4.205  18.062  0.00  0.00    +0.000 A 
ATOM      2  C   UNL     1       4.112   2.900  18.537  0.00  0.00    +0.000 A 
ATOM      3  N   UNL     1       3.381   2.778  19.696  0.00  0.00    +0.000 NA
ATOM      4  C   UNL     1       2.934   3.991  19.914  0.00  0.00    +0.000 A 
ATOM      5  C   UNL     1       2.118   4.457  20.998  0.00  0.00    +0.000 A 
ATOM      6  N   UNL     1       1.725   5.700  21.082  0.00  0.00    +0.000 NA
ATOM      7  C   UNL     1       2.097   6.575  20.064  0.00  0.00    +0.000 A 
ATOM      8  C   UNL     1       2.864   6.194  19.021  0.00  0.00    +0.000 A 
ATOM      9  N   UNL     1       3.317   4.888  18.952  0.00  0.00    +0.000 N 
ENDROOT
BRANCH   1  13
ATOM     10  C   UNL     1       5.575   6.278  15.313  0.00  0.00    +0.000 A 
ATOM     11  C   UNL     1       6.144   5.107  14.873  0.00  0.00    +0.000 A 
ATOM     12  S   UNL     1       5.754   3.786  15.886  0.00  0.00    +0.000 S 
ATOM     13  C   UNL     1       4.798   4.766  16.923  0.00  0.00    +0.000 A 
ATOM     14  C   UNL     1       4.819   6.086  16.507  0.00  0.00    +0.000 A 
ENDBRANCH   1  13
BRANCH   7  15
ATOM     15  C   UNL     1       1.601   7.920  20.207  0.00  0.00    +0.000 A 
ATOM     16  C   UNL     1       1.109   8.507  21.419  0.00  0.00    +0.000 A 
ATOM     17  C   UNL     1       0.691   9.807  21.244  0.00  0.00    +0.000 A 
ATOM     18  S   UNL     1       0.880  10.331  19.629  0.00  0.00    +0.000 S 
ATOM     19  C   UNL     1       1.531   8.820  19.159  0.00  0.00    +0.000 A 
ENDBRANCH   7  15
TORSDOF 2
ENDMDL
