MODEL 1
REMARK VINA RESULT:      -8.3      0.000      0.000
REMARK  Name = 
REMARK  5 active torsions:
REMARK  status: ('A' for Active; 'I' for Inactive)
REMARK    1  A    between atoms: C_1  and  O_2
REMARK    2  A    between atoms: O_2  and  C_3
REMARK    3  A    between atoms: C_6  and  C_7
REMARK    4  A    between atoms: C_17  and  O_18
REMARK    5  A    between atoms: O_18  and  C_19
REMARK                            x       y       z     vdW  Elec       q    Type
REMARK                         _______ _______ _______ _____ _____    ______ ____
ROOT
ATOM      1  C   UNL     1       6.710   6.306  17.143  0.00  0.00    +0.000 A 
ATOM      2  C   UNL     1       6.292   6.292  18.483  0.00  0.00    +0.000 A 
ATOM      3  C   UNL     1       5.320   5.401  18.928  0.00  0.00    +0.000 A 
ATOM      4  C   UNL     1       4.703   4.528  18.034  0.00  0.00    +0.000 A 
ATOM      5  C   UNL     1       5.003   4.664  16.668  0.00  0.00    +0.000 A 
ATOM      6  C   UNL     1       5.998   5.550  16.205  0.00  0.00    +0.000 A 
ENDROOT
BRANCH   4   7
ATOM      7  C   UNL     1       3.791   3.455  18.585  0.00  0.00    +0.000 C 
ATOM      8  C   UNL     1       4.513   2.327  19.356  0.00  0.00    +0.000 C 
ATOM      9  C   UNL     1       4.099   2.480  20.815  0.00  0.00    +0.000 C 
ATOM     10  N   UNL     1       2.852   3.191  20.732  0.00  0.00    +0.000 N 
ATOM     11  C   UNL     1       1.634   2.789  21.252  0.00  0.00    +0.000 C 
ATOM     12  O   UNL     1       1.446   1.985  22.142  0.00  0.00    +0.000 OA
ATOM     13  C   UNL     1       0.574   3.535  20.484  0.00  0.00    +0.000 C 
ATOM     14  C   UNL     1       1.274   3.818  19.154  0.00  0.00    +0.000 C 
ATOM     15  C   UNL     1       2.730   4.008  19.559  0.00  0.00    +0.000 C 
ENDBRANCH   4   7
BRANCH   1  17
ATOM     16  C   UNL     1       7.993   8.226  17.561  0.00  0.00    +0.000 C 
ATOM     17  O   UNL     1       7.798   7.051  16.766  0.00  0.00    +0.000 OA
ENDBRANCH   1  17
BRANCH   6  18
ATOM     18  O   UNL     1       6.099   5.538  14.842  0.00  0.00    +0.000 OA
BRANCH  18  19
ATOM     19  C   UNL     1       6.668   4.454  14.109  0.00  0.00    +0.000 C 
ATOM     20  C   UNL     1       5.595   3.688  13.344  0.00  0.00    +0.000 C 
ATOM     21  C   UNL     1       6.209   3.287  12.011  0.00  0.00    +0.000 C 
ATOM     22  C   UNL     1       7.346   4.258  11.741  0.00  0.00    +0.000 C 
ATOM     23  C   UNL     1       7.548   5.072  13.012  0.00  0.00    +0.000 C 
ENDBRANCH  18  19
ENDBRANCH   6  18
TORSDOF 4
ENDMDL
MODEL 2
REMARK VINA RESULT:      -7.7      4.478      6.061
REMARK  Name = 
REMARK  5 active torsions:
REMARK  status: ('A' for Active; 'I' for Inactive)
REMARK    1  A    between atoms: C_1  and  O_2
REMARK    2  A    between atoms: O_2  and  C_3
REMARK    3  A    between atoms: C_6  and  C_7
REMARK    4  A    between atoms: C_17  and  O_18
REMARK    5  A    between atoms: O_18  and  C_19
REMARK                            x       y       z     vdW  Elec       q    Type
REMARK                         _______ _______ _______ _____ _____    ______ ____
ROOT
ATOM      1  C   UNL     1       2.225   4.255  19.003  0.00  0.00    +0.000 A 
ATOM      2  C   UNL     1       1.657   4.621  20.234  0.00  0.00    +0.000 A 
ATOM      3  C   UNL     1       1.580   5.954  20.627  0.00  0.00    +0.000 A 
ATOM      4  C   UNL     1       2.112   6.957  19.820  0.00  0.00    +0.000 A 
ATOM      5  C   UNL     1       2.828   6.571  18.674  0.00  0.00    +0.000 A 
ATOM      6  C   UNL     1       2.899   5.226  18.254  0.00  0.00    +0.000 A 
ENDROOT
BRANCH   4   7
ATOM      7  C   UNL     1       1.847   8.399  20.191  0.00  0.00    +0.000 C 
ATOM      8  C   UNL     1       1.504   9.321  18.998  0.00  0.00    +0.000 C 
ATOM      9  C   UNL     1       0.041   9.712  19.173  0.00  0.00    +0.000 C 
ATOM     10  N   UNL     1      -0.181   9.536  20.582  0.00  0.00    +0.000 N 
ATOM     11  C   UNL     1      -0.641  10.491  21.473  0.00  0.00    +0.000 C 
ATOM     12  O   UNL     1      -1.259  11.503  21.209  0.00  0.00    +0.000 OA
ATOM     13  C   UNL     1      -0.211  10.039  22.844  0.00  0.00    +0.000 C 
ATOM     14  C   UNL     1       1.019   9.183  22.534  0.00  0.00    +0.000 C 
ATOM     15  C   UNL     1       0.679   8.560  21.185  0.00  0.00    +0.000 C 
ENDBRANCH   4   7
BRANCH   1  17
ATOM     16  C   UNL     1       0.824   2.388  18.757  0.00  0.00    +0.000 C 
ATOM     17  O   UNL     1       2.118   2.965  18.548  0.00  0.00    +0.000 OA
ENDBRANCH   1  17
BRANCH   6  18
ATOM     18  O   UNL     1       3.668   5.081  17.135  0.00  0.00    +0.000 OA
BRANCH  18  19
ATOM     19  C   UNL     1       5.009   5.560  17.038  0.00  0.00    +0.000 C 
ATOM     20  C   UNL     1       5.950   4.733  17.907  0.00  0.00    +0.000 C 
ATOM     21  C   UNL     1       7.255   4.601  17.137  0.00  0.00    +0.000 C 
ATOM     22  C   UNL     1       6.922   4.806  15.669  0.00  0.00    +0.000 C 
ATOM     23  C   UNL     1       5.479   5.285  15.602  0.00  0.00    +0.000 C 
ENDBRANCH  18  19
ENDBRANCH   6  18
TORSDOF 4
ENDMDL
MODEL 3
REMARK VINA RESULT:      -7.6      4.142      6.520
REMARK  Name = 
REMARK  5 active torsions:
REMARK  status: ('A' for Active; 'I' for Inactive)
REMARK    1  A    between atoms: C_1  and  O_2
REMARK    2  A    between atoms: O_2  and  C_3
REMARK    3  A    between atoms: C_6  and  C_7
REMARK    4  A    between atoms: C_17  and  O_18
REMARK    5  A    between atoms: O_18  and  C_19
REMARK                            x       y       z     vdW  Elec       q    Type
REMARK                         _______ _______ _______ _____ _____    ______ ____
ROOT
ATOM      1  C   UNL     1       4.045   4.756  17.077  0.00  0.00    +0.000 A 
ATOM      2  C   UNL     1       4.647   6.002  16.839  0.00  0.00    +0.000 A 
ATOM      3  C   UNL     1       4.120   7.174  17.372  0.00  0.00    +0.000 A 
ATOM      4  C   UNL     1       2.945   7.140  18.121  0.00  0.00    +0.000 A 
ATOM      5  C   UNL     1       2.257   5.918  18.212  0.00  0.00    +0.000 A 
ATOM      6  C   UNL     1       2.788   4.720  17.692  0.00  0.00    +0.000 A 
ENDROOT
BRANCH   4   7
ATOM      7  C   UNL     1       2.507   8.400  18.834  0.00  0.00    +0.000 C 
ATOM      8  C   UNL     1       2.104   9.564  17.900  0.00  0.00    +0.000 C 
ATOM      9  C   UNL     1       0.602   9.748  18.078  0.00  0.00    +0.000 C 
ATOM     10  N   UNL     1       0.352   9.187  19.378  0.00  0.00    +0.000 N 
ATOM     11  C   UNL     1      -0.242   9.824  20.454  0.00  0.00    +0.000 C 
ATOM     12  O   UNL     1      -0.960  10.803  20.421  0.00  0.00    +0.000 OA
ATOM     13  C   UNL     1       0.189   9.072  21.686  0.00  0.00    +0.000 C 
ATOM     14  C   UNL     1       1.517   8.455  21.243  0.00  0.00    +0.000 C 
ATOM     15  C   UNL     1       1.295   8.177  19.762  0.00  0.00    +0.000 C 
ENDBRANCH   4   7
BRANCH   1  17
ATOM     16  C   UNL     1       5.780   3.806  15.815  0.00  0.00    +0.000 C 
ATOM     17  O   UNL     1       4.681   3.599  16.708  0.00  0.00    +0.000 OA
ENDBRANCH   1  17
BRANCH   6  18
ATOM     18  O   UNL     1       1.938   3.665  17.869  0.00  0.00    +0.000 OA
BRANCH  18  19
ATOM     19  C   UNL     1       2.045   2.746  18.955  0.00  0.00    +0.000 C 
ATOM     20  C   UNL     1       3.220   3.101  19.859  0.00  0.00    +0.000 C 
ATOM     21  C   UNL     1       2.776   2.820  21.286  0.00  0.00    +0.000 C 
ATOM     22  C   UNL     1       1.258   2.876  21.293  0.00  0.00    +0.000 C 
ATOM     23  C   UNL     1       0.808   2.957  19.841  0.00  0.00    +0.000 C 
ENDBRANCH  18  19
ENDBRANCH   6  18
TORSDOF 4
ENDMDL
MODEL 4
REMARK VINA RESULT:      -7.5      1.361      3.970
REMARK  Name = 
REMARK  5 active torsions:
REMARK  status: ('A' for Active; 'I' for Inactive)
REMARK    1  A    between atoms: C_1  and  O_2
REMARK    2  A    between atoms: O_2  and  C_3
REMARK    3  A    between atoms: C_6  and  C_7
REMARK    4  A    between atoms: C_17  and  O_18
REMARK    5  A    between atoms: O_18  and  C_19
REMARK                            x       y       z     vdW  Elec       q    Type
REMARK                         _______ _______ _______ _____ _____    ______ ____
ROOT
ATOM      1  C   UNL     1       6.879   4.909  15.358  0.00  0.00    +0.000 A 
ATOM      2  C   UNL     1       5.917   4.049  14.804  0.00  0.00    +0.000 A 
ATOM      3  C   UNL     1       4.831   3.602  15.551  0.00  0.00    +0.000 A 
ATOM      4  C   UNL     1       4.701   3.965  16.890  0.00  0.00    +0.000 A 
ATOM      5  C   UNL     1       5.752   4.683  17.483  0.00  0.00    +0.000 A 
ATOM      6  C   UNL     1       6.850   5.158  16.735  0.00  0.00    +0.000 A 
ENDROOT
BRANCH   4   7
ATOM      7  C   UNL     1       3.419   3.613  17.612  0.00  0.00    +0.000 C 
ATOM      8  C   UNL     1       3.238   2.106  17.909  0.00  0.00    +0.000 C 
ATOM      9  C   UNL     1       3.337   1.959  19.423  0.00  0.00    +0.000 C 
ATOM     10  N   UNL     1       2.993   3.269  19.905  0.00  0.00    +0.000 N 
ATOM     11  C   UNL     1       1.980   3.583  20.796  0.00  0.00    +0.000 C 
ATOM     12  O   UNL     1       1.441   2.836  21.587  0.00  0.00    +0.000 OA
ATOM     13  C   UNL     1       1.661   5.040  20.584  0.00  0.00    +0.000 C 
ATOM     14  C   UNL     1       2.091   5.259  19.132  0.00  0.00    +0.000 C 
ATOM     15  C   UNL     1       3.281   4.321  18.975  0.00  0.00    +0.000 C 
ENDBRANCH   4   7
BRANCH   1  17
ATOM     16  C   UNL     1       7.725   5.118  13.180  0.00  0.00    +0.000 C 
ATOM     17  O   UNL     1       7.829   5.490  14.558  0.00  0.00    +0.000 OA
ENDBRANCH   1  17
BRANCH   6  18
ATOM     18  O   UNL     1       7.763   5.803  17.520  0.00  0.00    +0.000 OA
BRANCH  18  19
ATOM     19  C   UNL     1       7.478   7.015  18.218  0.00  0.00    +0.000 C 
ATOM     20  C   UNL     1       8.669   7.453  19.063  0.00  0.00    +0.000 C 
ATOM     21  C   UNL     1       8.733   8.970  18.977  0.00  0.00    +0.000 C 
ATOM     22  C   UNL     1       8.019   9.369  17.696  0.00  0.00    +0.000 C 
ATOM     23  C   UNL     1       7.340   8.118  17.157  0.00  0.00    +0.000 C 
ENDBRANCH  18  19
ENDBRANCH   6  18
TORSDOF 4
ENDMDL
MODEL 5
REMARK VINA RESULT:      -7.5      3.284      7.642
REMARK  Name = 
REMARK  5 active torsions:
REMARK  status: ('A' for Active; 'I' for Inactive)
REMARK    1  A    between atoms: C_1  and  O_2
REMARK    2  A    between atoms: O_2  and  C_3
REMARK    3  A    between atoms: C_6  and  C_7
REMARK    4  A    between atoms: C_17  and  O_18
REMARK    5  A    between atoms: O_18  and  C_19
REMARK                            x       y       z     vdW  Elec       q    Type
REMARK                         _______ _______ _______ _____ _____    ______ ____
ROOT
ATOM      1  C   UNL     1       2.635   4.406  20.394  0.00  0.00    +0.000 A 
ATOM      2  C   UNL     1       3.343   3.537  19.548  0.00  0.00    +0.000 A 
ATOM      3  C   UNL     1       3.895   3.983  18.351  0.00  0.00    +0.000 A 
ATOM      4  C   UNL     1       3.713   5.303  17.941  0.00  0.00    +0.000 A 
ATOM      5  C   UNL     1       2.862   6.119  18.706  0.00  0.00    +0.000 A 
ATOM      6  C   UNL     1       2.311   5.686  19.930  0.00  0.00    +0.000 A 
ENDROOT
BRANCH   4   7
ATOM      7  C   UNL     1       4.478   5.796  16.733  0.00  0.00    +0.000 C 
ATOM      8  C   UNL     1       5.521   6.897  17.034  0.00  0.00    +0.000 C 
ATOM      9  C   UNL     1       6.887   6.262  16.799  0.00  0.00    +0.000 C 
ATOM     10  N   UNL     1       6.596   5.178  15.900  0.00  0.00    +0.000 N 
ATOM     11  C   UNL     1       7.161   4.962  14.654  0.00  0.00    +0.000 C 
ATOM     12  O   UNL     1       8.213   5.405  14.239  0.00  0.00    +0.000 OA
ATOM     13  C   UNL     1       6.204   4.077  13.900  0.00  0.00    +0.000 C 
ATOM     14  C   UNL     1       4.866   4.397  14.570  0.00  0.00    +0.000 C 
ATOM     15  C   UNL     1       5.259   4.675  16.015  0.00  0.00    +0.000 C 
ENDBRANCH   4   7
BRANCH   1  17
ATOM     16  C   UNL     1       1.577   2.746  21.671  0.00  0.00    +0.000 C 
ATOM     17  O   UNL     1       2.268   4.000  21.651  0.00  0.00    +0.000 OA
ENDBRANCH   1  17
BRANCH   6  18
ATOM     18  O   UNL     1       1.494   6.630  20.484  0.00  0.00    +0.000 OA
BRANCH  18  19
ATOM     19  C   UNL     1       1.832   8.015  20.553  0.00  0.00    +0.000 C 
ATOM     20  C   UNL     1       1.226   8.784  19.384  0.00  0.00    +0.000 C 
ATOM     21  C   UNL     1       0.789  10.135  19.928  0.00  0.00    +0.000 C 
ATOM     22  C   UNL     1       0.585   9.962  21.424  0.00  0.00    +0.000 C 
ATOM     23  C   UNL     1       1.123   8.586  21.790  0.00  0.00    +0.000 C 
ENDBRANCH  18  19
ENDBRANCH   6  18
TORSDOF 4
ENDMDL
MODEL 6
REMARK VINA RESULT:      -7.5      5.545      8.113
REMARK  Name = 
REMARK  5 active torsions:
REMARK  status: ('A' for Active; 'I' for Inactive)
REMARK    1  A    between atoms: C_1  and  O_2
REMARK    2  A    between atoms: O_2  and  C_3
REMARK    3  A    between atoms: C_6  and  C_7
REMARK    4  A    between atoms: C_17  and  O_18
REMARK    5  A    between atoms: O_18  and  C_19
REMARK                            x       y       z     vdW  Elec       q    Type
REMARK                         _______ _______ _______ _____ _____    ______ ____
ROOT
ATOM      1  C   UNL     1       1.320   9.956  18.752  0.00  0.00    +0.000 A 
ATOM      2  C   UNL     1       1.981   9.188  17.781  0.00  0.00    +0.000 A 
ATOM      3  C   UNL     1       2.427   7.899  18.058  0.00  0.00    +0.000 A 
ATOM      4  C   UNL     1       2.265   7.358  19.332  0.00  0.00    +0.000 A 
ATOM      5  C   UNL     1       1.758   8.192  20.343  0.00  0.00    +0.000 A 
ATOM      6  C   UNL     1       1.286   9.493  20.073  0.00  0.00    +0.000 A 
ENDROOT
BRANCH   4   7
ATOM      7  C   UNL     1       2.593   5.897  19.543  0.00  0.00    +0.000 C 
ATOM      8  C   UNL     1       1.953   5.265  20.800  0.00  0.00    +0.000 C 
ATOM      9  C   UNL     1       0.921   4.264  20.293  0.00  0.00    +0.000 C 
ATOM     10  N   UNL     1       1.387   3.953  18.969  0.00  0.00    +0.000 N 
ATOM     11  C   UNL     1       1.686   2.697  18.471  0.00  0.00    +0.000 C 
ATOM     12  O   UNL     1       1.299   1.627  18.897  0.00  0.00    +0.000 OA
ATOM     13  C   UNL     1       2.606   2.910  17.297  0.00  0.00    +0.000 C 
ATOM     14  C   UNL     1       3.259   4.252  17.635  0.00  0.00    +0.000 C 
ATOM     15  C   UNL     1       2.153   5.004  18.364  0.00  0.00    +0.000 C 
ENDBRANCH   4   7
BRANCH   1  17
ATOM     16  C   UNL     1       1.589  12.274  18.506  0.00  0.00    +0.000 C 
ATOM     17  O   UNL     1       0.720  11.140  18.407  0.00  0.00    +0.000 OA
ENDBRANCH   1  17
BRANCH   6  18
ATOM     18  O   UNL     1       0.866  10.130  21.206  0.00  0.00    +0.000 OA
BRANCH  18  19
ATOM     19  C   UNL     1      -0.506  10.400  21.490  0.00  0.00    +0.000 C 
ATOM     20  C   UNL     1      -0.805  10.214  22.974  0.00  0.00    +0.000 C 
ATOM     21  C   UNL     1      -1.794  11.302  23.361  0.00  0.00    +0.000 C 
ATOM     22  C   UNL     1      -1.632  12.424  22.350  0.00  0.00    +0.000 C 
ATOM     23  C   UNL     1      -0.725  11.900  21.244  0.00  0.00    +0.000 C 
ENDBRANCH  18  19
ENDBRANCH   6  18
TORSDOF 4
ENDMDL
MODEL 7
REMARK VINA RESULT:      -7.4      4.677      6.226
REMARK  Name = 
REMARK  5 active torsions:
REMARK  status: ('A' for Active; 'I' for Inactive)
REMARK    1  A    between atoms: C_1  and  O_2
REMARK    2  A    between atoms: O_2  and  C_3
REMARK    3  A    between atoms: C_6  and  C_7
REMARK    4  A    between atoms: C_17  and  O_18
REMARK    5  A    between atoms: O_18  and  C_19
REMARK                            x       y       z     vdW  Elec       q    Type
REMARK                         _______ _______ _______ _____ _____    ______ ____
ROOT
ATOM      1  C   UNL     1       2.352   4.441  19.193  0.00  0.00    +0.000 A 
ATOM      2  C   UNL     1       1.837   5.000  20.374  0.00  0.00    +0.000 A 
ATOM      3  C   UNL     1       1.727   6.378  20.534  0.00  0.00    +0.000 A 
ATOM      4  C   UNL     1       2.174   7.240  19.535  0.00  0.00    +0.000 A 
ATOM      5  C   UNL     1       2.842   6.681  18.432  0.00  0.00    +0.000 A 
ATOM      6  C   UNL     1       2.945   5.286  18.248  0.00  0.00    +0.000 A 
ENDROOT
BRANCH   4   7
ATOM      7  C   UNL     1       1.870   8.716  19.666  0.00  0.00    +0.000 C 
ATOM      8  C   UNL     1       1.616   9.444  18.326  0.00  0.00    +0.000 C 
ATOM      9  C   UNL     1       0.141   9.830  18.328  0.00  0.00    +0.000 C 
ATOM     10  N   UNL     1      -0.190   9.861  19.726  0.00  0.00    +0.000 N 
ATOM     11  C   UNL     1      -0.725  10.928  20.427  0.00  0.00    +0.000 C 
ATOM     12  O   UNL     1      -1.327  11.878  19.969  0.00  0.00    +0.000 OA
ATOM     13  C   UNL     1      -0.400  10.692  21.879  0.00  0.00    +0.000 C 
ATOM     14  C   UNL     1       0.856   9.823  21.795  0.00  0.00    +0.000 C 
ATOM     15  C   UNL     1       0.627   9.001  20.532  0.00  0.00    +0.000 C 
ENDBRANCH   4   7
BRANCH   1  17
ATOM     16  C   UNL     1       0.933   2.605  18.847  0.00  0.00    +0.000 C 
ATOM     17  O   UNL     1       2.274   3.089  18.977  0.00  0.00    +0.000 OA
ENDBRANCH   1  17
BRANCH   6  18
ATOM     18  O   UNL     1       3.659   4.970  17.128  0.00  0.00    +0.000 OA
BRANCH  18  19
ATOM     19  C   UNL     1       4.859   4.197  17.155  0.00  0.00    +0.000 C 
ATOM     20  C   UNL     1       5.605   4.296  15.829  0.00  0.00    +0.000 C 
ATOM     21  C   UNL     1       7.088   4.331  16.162  0.00  0.00    +0.000 C 
ATOM     22  C   UNL     1       7.206   4.832  17.591  0.00  0.00    +0.000 C 
ATOM     23  C   UNL     1       5.798   4.867  18.169  0.00  0.00    +0.000 C 
ENDBRANCH  18  19
ENDBRANCH   6  18
TORSDOF 4
ENDMDL
MODEL 8
REMARK VINA RESULT:      -7.3      5.467      7.100
REMARK  Name = 
REMARK  5 active torsions:
REMARK  status: ('A' for Active; 'I' for Inactive)
REMARK    1  A    between atoms: C_1  and  O_2
REMARK    2  A    between atoms: O_2  and  C_3
REMARK    3  A    between atoms: C_6  and  C_7
REMARK    4  A    between atoms: C_17  and  O_18
REMARK    5  A    between atoms: O_18  and  C_19
REMARK                            x       y       z     vdW  Elec       q    Type
REMARK                         _______ _______ _______ _____ _____    ______ ____
ROOT
ATOM      1  C   UNL     1       2.621   6.096  19.653  0.00  0.00    +0.000 A 
ATOM      2  C   UNL     1       1.990   7.073  20.440  0.00  0.00    +0.000 A 
ATOM      3  C   UNL     1       1.606   8.298  19.903  0.00  0.00    +0.000 A 
ATOM      4  C   UNL     1       1.885   8.600  18.571  0.00  0.00    +0.000 A 
ATOM      5  C   UNL     1       2.665   7.689  17.838  0.00  0.00    +0.000 A 
ATOM      6  C   UNL     1       3.046   6.437  18.364  0.00  0.00    +0.000 A 
ENDROOT
BRANCH   4   7
ATOM      7  C   UNL     1       1.292   9.858  17.977  0.00  0.00    +0.000 C 
ATOM      8  C   UNL     1      -0.250   9.856  17.867  0.00  0.00    +0.000 C 
ATOM      9  C   UNL     1      -0.747  10.899  18.860  0.00  0.00    +0.000 C 
ATOM     10  N   UNL     1       0.387  11.770  19.019  0.00  0.00    +0.000 N 
ATOM     11  C   UNL     1       0.416  13.137  18.806  0.00  0.00    +0.000 C 
ATOM     12  O   UNL     1      -0.531  13.898  18.796  0.00  0.00    +0.000 OA
ATOM     13  C   UNL     1       1.859  13.503  18.573  0.00  0.00    +0.000 C 
ATOM     14  C   UNL     1       2.444  12.194  18.038  0.00  0.00    +0.000 C 
ATOM     15  C   UNL     1       1.646  11.128  18.778  0.00  0.00    +0.000 C 
ENDBRANCH   4   7
BRANCH   1  17
ATOM     16  C   UNL     1       1.682   4.304  20.842  0.00  0.00    +0.000 C 
ATOM     17  O   UNL     1       2.816   4.831  20.146  0.00  0.00    +0.000 OA
ENDBRANCH   1  17
BRANCH   6  18
ATOM     18  O   UNL     1       3.823   5.731  17.490  0.00  0.00    +0.000 OA
BRANCH  18  19
ATOM     19  C   UNL     1       5.213   5.987  17.294  0.00  0.00    +0.000 C 
ATOM     20  C   UNL     1       6.064   5.145  18.238  0.00  0.00    +0.000 C 
ATOM     21  C   UNL     1       7.298   4.723  17.456  0.00  0.00    +0.000 C 
ATOM     22  C   UNL     1       6.930   4.787  15.984  0.00  0.00    +0.000 C 
ATOM     23  C   UNL     1       5.569   5.465  15.894  0.00  0.00    +0.000 C 
ENDBRANCH  18  19
ENDBRANCH   6  18
TORSDOF 4
ENDMDL
MODEL 9
REMARK VINA RESULT:      -7.2      5.908      7.944
REMARK  Name = 
REMARK  5 active torsions:
REMARK  status: ('A' for Active; 'I' for Inactive)
REMARK    1  A    between atoms: C_1  and  O_2
REMARK    2  A    between atoms: O_2  and  C_3
REMARK    3  A    between atoms: C_6  and  C_7
REMARK    4  A    between atoms: C_17  and  O_18
REMARK    5  A    between atoms: O_18  and  C_19
REMARK                            x       y       z     vdW  Elec       q    Type
REMARK                         _______ _______ _______ _____ _____    ______ ____
ROOT
ATOM      1  C   UNL     1       2.674   7.181  18.237  0.00  0.00    +0.000 A 
ATOM      2  C   UNL     1       2.217   8.355  17.615  0.00  0.00    +0.000 A 
ATOM      3  C   UNL     1       1.649   9.390  18.352  0.00  0.00    +0.000 A 
ATOM      4  C   UNL     1       1.479   9.262  19.729  0.00  0.00    +0.000 A 
ATOM      5  C   UNL     1       1.781   8.022  20.318  0.00  0.00    +0.000 A 
ATOM      6  C   UNL     1       2.373   6.971  19.587  0.00  0.00    +0.000 A 
ENDROOT
BRANCH   4   7
ATOM      7  C   UNL     1       1.032  10.473  20.517  0.00  0.00    +0.000 C 
ATOM      8  C   UNL     1       0.840  11.756  19.676  0.00  0.00    +0.000 C 
ATOM      9  C   UNL     1      -0.657  12.043  19.676  0.00  0.00    +0.000 C 
ATOM     10  N   UNL     1      -1.121  11.372  20.861  0.00  0.00    +0.000 N 
ATOM     11  C   UNL     1      -1.814  11.941  21.916  0.00  0.00    +0.000 C 
ATOM     12  O   UNL     1      -2.454  12.973  21.901  0.00  0.00    +0.000 OA
ATOM     13  C   UNL     1      -1.608  11.034  23.101  0.00  0.00    +0.000 C 
ATOM     14  C   UNL     1      -0.276  10.360  22.767  0.00  0.00    +0.000 C 
ATOM     15  C   UNL     1      -0.309  10.255  21.248  0.00  0.00    +0.000 C 
ENDBRANCH   4   7
BRANCH   1  17
ATOM     16  C   UNL     1       4.740   6.680  17.245  0.00  0.00    +0.000 C 
ATOM     17  O   UNL     1       3.400   6.261  17.526  0.00  0.00    +0.000 OA
ENDBRANCH   1  17
BRANCH   6  18
ATOM     18  O   UNL     1       2.550   5.853  20.352  0.00  0.00    +0.000 OA
BRANCH  18  19
ATOM     19  C   UNL     1       1.529   4.879  20.565  0.00  0.00    +0.000 C 
ATOM     20  C   UNL     1       1.272   4.070  19.299  0.00  0.00    +0.000 C 
ATOM     21  C   UNL     1       1.004   2.640  19.740  0.00  0.00    +0.000 C 
ATOM     22  C   UNL     1       1.651   2.472  21.105  0.00  0.00    +0.000 C 
ATOM     23  C   UNL     1       2.091   3.855  21.563  0.00  0.00    +0.000 C 
ENDBRANCH  18  19
ENDBRANCH   6  18
TORSDOF 4
ENDMDL
