MODEL 1
REMARK VINA RESULT:      -6.9      0.000      0.000
REMARK  Name = 
REMARK  6 active torsions:
REMARK  status: ('A' for Active; 'I' for Inactive)
REMARK    1  A    between atoms: C_1  and  S_2
REMARK    2  A    between atoms: S_2  and  C_5
REMARK    3  A    between atoms: C_9  and  N_10
REMARK    4  A    between atoms: C_11  and  C_13
REMARK    5  A    between atoms: C_13  and  C_14
REMARK    6  A    between atoms: C_14  and  C_15
REMARK                            x       y       z     vdW  Elec       q    Type
REMARK                         _______ _______ _______ _____ _____    ______ ____
ROOT
ATOM      1  N   UNL     1       6.587   7.192  16.669  0.00  0.00    +0.000 N 
ATOM      2  C   UNL     1       7.514   7.428  17.666  0.00  0.00    +0.000 C 
ATOM      3  O   UNL     1       7.950   6.578  18.437  0.00  0.00    +0.000 OA
ATOM      4  H   UNL     1       6.692   7.729  15.817  0.00  0.00    +0.000 HD
ENDROOT
BRANCH   1   9
ATOM      5  C   UNL     1       5.002   5.249  17.125  0.00  0.00    +0.000 A 
ATOM      6  C   UNL     1       4.933   3.901  16.633  0.00  0.00    +0.000 A 
ATOM      7  C   UNL     1       5.872   3.650  15.655  0.00  0.00    +0.000 A 
ATOM      8  S   UNL     1       6.781   5.047  15.280  0.00  0.00    +0.000 S 
ATOM      9  C   UNL     1       6.032   5.939  16.523  0.00  0.00    +0.000 A 
BRANCH   5  11
ATOM     10  C   UNL     1       2.314   4.969  17.899  0.00  0.00    +0.000 C 
ATOM     11  S   UNL     1       3.799   5.881  18.208  0.00  0.00    +0.000 S 
ATOM     12  O   UNL     1       3.601   7.242  17.749  0.00  0.00    +0.000 OA
ATOM     13  O   UNL     1       4.286   5.607  19.546  0.00  0.00    +0.000 OA
ENDBRANCH   5  11
ENDBRANCH   1   9
BRANCH   2  14
ATOM     14  C   UNL     1       8.039   8.846  17.680  0.00  0.00    +0.000 C 
BRANCH  14  15
ATOM     15  C   UNL     1       8.833   9.105  18.954  0.00  0.00    +0.000 C 
BRANCH  15  16
ATOM     16  C   UNL     1       9.346  10.513  19.019  0.00  0.00    +0.000 A 
ATOM     17  C   UNL     1       9.763  11.322  17.978  0.00  0.00    +0.000 A 
ATOM     18  C   UNL     1      10.245  12.586  18.434  0.00  0.00    +0.000 A 
ATOM     19  C   UNL     1      10.159  12.685  19.798  0.00  0.00    +0.000 A 
ATOM     20 CL   UNL     1      10.643  14.020  20.763  0.00  0.00    +0.000 Cl
ATOM     21  S   UNL     1       9.507  11.308  20.534  0.00  0.00    +0.000 S 
ENDBRANCH  15  16
ENDBRANCH  14  15
ENDBRANCH   2  14
TORSDOF 5
ENDMDL
MODEL 2
REMARK VINA RESULT:      -6.7      1.527      1.656
REMARK  Name = 
REMARK  6 active torsions:
REMARK  status: ('A' for Active; 'I' for Inactive)
REMARK    1  A    between atoms: C_1  and  S_2
REMARK    2  A    between atoms: S_2  and  C_5
REMARK    3  A    between atoms: C_9  and  N_10
REMARK    4  A    between atoms: C_11  and  C_13
REMARK    5  A    between atoms: C_13  and  C_14
REMARK    6  A    between atoms: C_14  and  C_15
REMARK                            x       y       z     vdW  Elec       q    Type
REMARK                         _______ _______ _______ _____ _____    ______ ____
ROOT
ATOM      1  N   UNL     1       7.672   6.077  17.554  0.00  0.00    +0.000 N 
ATOM      2  C   UNL     1       7.403   7.432  17.555  0.00  0.00    +0.000 C 
ATOM      3  O   UNL     1       6.405   7.951  17.062  0.00  0.00    +0.000 OA
ATOM      4  H   UNL     1       8.150   5.711  18.369  0.00  0.00    +0.000 HD
ENDROOT
BRANCH   1   9
ATOM      5  C   UNL     1       5.696   4.493  17.276  0.00  0.00    +0.000 A 
ATOM      6  C   UNL     1       5.269   3.634  16.207  0.00  0.00    +0.000 A 
ATOM      7  C   UNL     1       6.050   3.769  15.080  0.00  0.00    +0.000 A 
ATOM      8  S   UNL     1       7.246   4.972  15.281  0.00  0.00    +0.000 S 
ATOM      9  C   UNL     1       6.821   5.202  16.915  0.00  0.00    +0.000 A 
BRANCH   5  11
ATOM     10  C   UNL     1       4.359   3.031  19.270  0.00  0.00    +0.000 C 
ATOM     11  S   UNL     1       4.758   4.668  18.728  0.00  0.00    +0.000 S 
ATOM     12  O   UNL     1       3.538   5.308  18.277  0.00  0.00    +0.000 OA
ATOM     13  O   UNL     1       5.630   5.314  19.689  0.00  0.00    +0.000 OA
ENDBRANCH   5  11
ENDBRANCH   1   9
BRANCH   2  14
ATOM     14  C   UNL     1       8.423   8.251  18.314  0.00  0.00    +0.000 C 
BRANCH  14  15
ATOM     15  C   UNL     1       8.424   9.690  17.815  0.00  0.00    +0.000 C 
BRANCH  15  16
ATOM     16  C   UNL     1       9.266  10.583  18.678  0.00  0.00    +0.000 A 
ATOM     17  C   UNL     1       9.403  10.563  20.054  0.00  0.00    +0.000 A 
ATOM     18  C   UNL     1      10.249  11.609  20.530  0.00  0.00    +0.000 A 
ATOM     19  C   UNL     1      10.726  12.368  19.493  0.00  0.00    +0.000 A 
ATOM     20 CL   UNL     1      11.759  13.734  19.613  0.00  0.00    +0.000 Cl
ATOM     21  S   UNL     1      10.194  11.846  17.975  0.00  0.00    +0.000 S 
ENDBRANCH  15  16
ENDBRANCH  14  15
ENDBRANCH   2  14
TORSDOF 5
ENDMDL
MODEL 3
REMARK VINA RESULT:      -6.6      0.943      1.124
REMARK  Name = 
REMARK  6 active torsions:
REMARK  status: ('A' for Active; 'I' for Inactive)
REMARK    1  A    between atoms: C_1  and  S_2
REMARK    2  A    between atoms: S_2  and  C_5
REMARK    3  A    between atoms: C_9  and  N_10
REMARK    4  A    between atoms: C_11  and  C_13
REMARK    5  A    between atoms: C_13  and  C_14
REMARK    6  A    between atoms: C_14  and  C_15
REMARK                            x       y       z     vdW  Elec       q    Type
REMARK                         _______ _______ _______ _____ _____    ______ ____
ROOT
ATOM      1  N   UNL     1       6.592   7.287  16.718  0.00  0.00    +0.000 N 
ATOM      2  C   UNL     1       7.496   7.532  17.734  0.00  0.00    +0.000 C 
ATOM      3  O   UNL     1       7.934   6.682  18.505  0.00  0.00    +0.000 OA
ATOM      4  H   UNL     1       6.702   7.835  15.873  0.00  0.00    +0.000 HD
ENDROOT
BRANCH   1   9
ATOM      5  C   UNL     1       5.058   5.298  17.146  0.00  0.00    +0.000 A 
ATOM      6  C   UNL     1       5.016   3.960  16.623  0.00  0.00    +0.000 A 
ATOM      7  C   UNL     1       5.950   3.753  15.631  0.00  0.00    +0.000 A 
ATOM      8  S   UNL     1       6.822   5.179  15.278  0.00  0.00    +0.000 S 
ATOM      9  C   UNL     1       6.065   6.025  16.549  0.00  0.00    +0.000 A 
BRANCH   5  11
ATOM     10  C   UNL     1       2.364   4.991  17.887  0.00  0.00    +0.000 C 
ATOM     11  S   UNL     1       3.853   5.876  18.255  0.00  0.00    +0.000 S 
ATOM     12  O   UNL     1       3.665   7.262  17.870  0.00  0.00    +0.000 OA
ATOM     13  O   UNL     1       4.329   5.525  19.578  0.00  0.00    +0.000 OA
ENDBRANCH   5  11
ENDBRANCH   1   9
BRANCH   2  14
ATOM     14  C   UNL     1       7.992   8.959  17.772  0.00  0.00    +0.000 C 
BRANCH  14  15
ATOM     15  C   UNL     1       9.038   9.128  18.866  0.00  0.00    +0.000 C 
BRANCH  15  16
ATOM     16  C   UNL     1       9.232  10.568  19.240  0.00  0.00    +0.000 A 
ATOM     17  C   UNL     1       9.420  11.108  20.499  0.00  0.00    +0.000 A 
ATOM     18  C   UNL     1       9.508  12.532  20.470  0.00  0.00    +0.000 A 
ATOM     19  C   UNL     1       9.397  13.008  19.189  0.00  0.00    +0.000 A 
ATOM     20 CL   UNL     1       9.432  14.653  18.699  0.00  0.00    +0.000 Cl
ATOM     21  S   UNL     1       9.203  11.789  18.032  0.00  0.00    +0.000 S 
ENDBRANCH  15  16
ENDBRANCH  14  15
ENDBRANCH   2  14
TORSDOF 5
ENDMDL
MODEL 4
REMARK VINA RESULT:      -6.6      5.540      6.971
REMARK  Name = 
REMARK  6 active torsions:
REMARK  status: ('A' for Active; 'I' for Inactive)
REMARK    1  A    between atoms: C_1  and  S_2
REMARK    2  A    between atoms: S_2  and  C_5
REMARK    3  A    between atoms: C_9  and  N_10
REMARK    4  A    between atoms: C_11  and  C_13
REMARK    5  A    between atoms: C_13  and  C_14
REMARK    6  A    between atoms: C_14  and  C_15
REMARK                            x       y       z     vdW  Elec       q    Type
REMARK                         _______ _______ _______ _____ _____    ______ ____
ROOT
ATOM      1  N   UNL     1       4.744   4.811  18.134  0.00  0.00    +0.000 N 
ATOM      2  C   UNL     1       6.072   4.930  18.495  0.00  0.00    +0.000 C 
ATOM      3  O   UNL     1       6.473   5.207  19.622  0.00  0.00    +0.000 OA
ATOM      4  H   UNL     1       4.526   4.110  17.436  0.00  0.00    +0.000 HD
ENDROOT
BRANCH   1   9
ATOM      5  C   UNL     1       3.032   4.312  19.955  0.00  0.00    +0.000 A 
ATOM      6  C   UNL     1       2.024   5.108  20.600  0.00  0.00    +0.000 A 
ATOM      7  C   UNL     1       2.060   6.427  20.200  0.00  0.00    +0.000 A 
ATOM      8  S   UNL     1       3.343   6.722  19.111  0.00  0.00    +0.000 S 
ATOM      9  C   UNL     1       3.751   5.068  19.055  0.00  0.00    +0.000 A 
BRANCH   5  11
ATOM     10  C   UNL     1       2.314   1.650  19.410  0.00  0.00    +0.000 C 
ATOM     11  S   UNL     1       3.335   2.671  20.434  0.00  0.00    +0.000 S 
ATOM     12  O   UNL     1       2.826   2.606  21.791  0.00  0.00    +0.000 OA
ATOM     13  O   UNL     1       4.734   2.425  20.149  0.00  0.00    +0.000 OA
ENDBRANCH   5  11
ENDBRANCH   1   9
BRANCH   2  14
ATOM     14  C   UNL     1       7.035   4.595  17.378  0.00  0.00    +0.000 C 
BRANCH  14  15
ATOM     15  C   UNL     1       6.949   5.640  16.272  0.00  0.00    +0.000 C 
BRANCH  15  16
ATOM     16  C   UNL     1       6.889   5.013  14.911  0.00  0.00    +0.000 A 
ATOM     17  C   UNL     1       7.667   5.297  13.803  0.00  0.00    +0.000 A 
ATOM     18  C   UNL     1       7.277   4.536  12.659  0.00  0.00    +0.000 A 
ATOM     19  C   UNL     1       6.232   3.701  12.954  0.00  0.00    +0.000 A 
ATOM     20 CL   UNL     1       5.442   2.626  11.874  0.00  0.00    +0.000 Cl
ATOM     21  S   UNL     1       5.722   3.802  14.564  0.00  0.00    +0.000 S 
ENDBRANCH  15  16
ENDBRANCH  14  15
ENDBRANCH   2  14
TORSDOF 5
ENDMDL
MODEL 5
REMARK VINA RESULT:      -6.6      5.626      6.833
REMARK  Name = 
REMARK  6 active torsions:
REMARK  status: ('A' for Active; 'I' for Inactive)
REMARK    1  A    between atoms: C_1  and  S_2
REMARK    2  A    between atoms: S_2  and  C_5
REMARK    3  A    between atoms: C_9  and  N_10
REMARK    4  A    between atoms: C_11  and  C_13
REMARK    5  A    between atoms: C_13  and  C_14
REMARK    6  A    between atoms: C_14  and  C_15
REMARK                            x       y       z     vdW  Elec       q    Type
REMARK                         _______ _______ _______ _____ _____    ______ ____
ROOT
ATOM      1  N   UNL     1       5.267   3.936  17.958  0.00  0.00    +0.000 N 
ATOM      2  C   UNL     1       6.458   4.580  18.232  0.00  0.00    +0.000 C 
ATOM      3  O   UNL     1       6.755   5.076  19.316  0.00  0.00    +0.000 OA
ATOM      4  H   UNL     1       5.314   3.153  17.317  0.00  0.00    +0.000 HD
ENDROOT
BRANCH   1   9
ATOM      5  C   UNL     1       3.278   4.707  19.351  0.00  0.00    +0.000 A 
ATOM      6  C   UNL     1       2.595   4.145  20.484  0.00  0.00    +0.000 A 
ATOM      7  C   UNL     1       3.073   2.897  20.819  0.00  0.00    +0.000 A 
ATOM      8  S   UNL     1       4.285   2.373  19.736  0.00  0.00    +0.000 S 
ATOM      9  C   UNL     1       4.280   3.867  18.917  0.00  0.00    +0.000 A 
BRANCH   5  11
ATOM     10  C   UNL     1       2.148   7.221  19.903  0.00  0.00    +0.000 C 
ATOM     11  S   UNL     1       2.731   6.175  18.599  0.00  0.00    +0.000 S 
ATOM     12  O   UNL     1       1.590   5.755  17.809  0.00  0.00    +0.000 OA
ATOM     13  O   UNL     1       3.900   6.760  17.973  0.00  0.00    +0.000 OA
ENDBRANCH   5  11
ENDBRANCH   1   9
BRANCH   2  14
ATOM     14  C   UNL     1       7.441   4.551  17.084  0.00  0.00    +0.000 C 
BRANCH  14  15
ATOM     15  C   UNL     1       7.033   5.553  16.011  0.00  0.00    +0.000 C 
BRANCH  15  16
ATOM     16  C   UNL     1       6.912   4.911  14.661  0.00  0.00    +0.000 A 
ATOM     17  C   UNL     1       7.713   5.098  13.549  0.00  0.00    +0.000 A 
ATOM     18  C   UNL     1       7.251   4.359  12.419  0.00  0.00    +0.000 A 
ATOM     19  C   UNL     1       6.130   3.634  12.726  0.00  0.00    +0.000 A 
ATOM     20 CL   UNL     1       5.238   2.622  11.664  0.00  0.00    +0.000 Cl
ATOM     21  S   UNL     1       5.632   3.813  14.333  0.00  0.00    +0.000 S 
ENDBRANCH  15  16
ENDBRANCH  14  15
ENDBRANCH   2  14
TORSDOF 5
ENDMDL
MODEL 6
REMARK VINA RESULT:      -6.6      1.215      1.475
REMARK  Name = 
REMARK  6 active torsions:
REMARK  status: ('A' for Active; 'I' for Inactive)
REMARK    1  A    between atoms: C_1  and  S_2
REMARK    2  A    between atoms: S_2  and  C_5
REMARK    3  A    between atoms: C_9  and  N_10
REMARK    4  A    between atoms: C_11  and  C_13
REMARK    5  A    between atoms: C_13  and  C_14
REMARK    6  A    between atoms: C_14  and  C_15
REMARK                            x       y       z     vdW  Elec       q    Type
REMARK                         _______ _______ _______ _____ _____    ______ ____
ROOT
ATOM      1  N   UNL     1       6.554   7.218  16.650  0.00  0.00    +0.000 N 
ATOM      2  C   UNL     1       7.454   7.425  17.677  0.00  0.00    +0.000 C 
ATOM      3  O   UNL     1       7.903   6.544  18.406  0.00  0.00    +0.000 OA
ATOM      4  H   UNL     1       6.658   7.808  15.832  0.00  0.00    +0.000 HD
ENDROOT
BRANCH   1   9
ATOM      5  C   UNL     1       4.988   5.226  16.918  0.00  0.00    +0.000 A 
ATOM      6  C   UNL     1       4.990   3.895  16.376  0.00  0.00    +0.000 A 
ATOM      7  C   UNL     1       6.005   3.700  15.464  0.00  0.00    +0.000 A 
ATOM      8  S   UNL     1       6.905   5.129  15.207  0.00  0.00    +0.000 S 
ATOM      9  C   UNL     1       6.043   5.959  16.420  0.00  0.00    +0.000 A 
BRANCH   5  11
ATOM     10  C   UNL     1       4.159   5.425  19.597  0.00  0.00    +0.000 C 
ATOM     11  S   UNL     1       3.693   5.792  17.928  0.00  0.00    +0.000 S 
ATOM     12  O   UNL     1       2.576   4.938  17.570  0.00  0.00    +0.000 OA
ATOM     13  O   UNL     1       3.632   7.226  17.730  0.00  0.00    +0.000 OA
ENDBRANCH   5  11
ENDBRANCH   1   9
BRANCH   2  14
ATOM     14  C   UNL     1       7.933   8.855  17.784  0.00  0.00    +0.000 C 
BRANCH  14  15
ATOM     15  C   UNL     1       8.969   8.986  18.893  0.00  0.00    +0.000 C 
BRANCH  15  16
ATOM     16  C   UNL     1       9.241  10.419  19.241  0.00  0.00    +0.000 A 
ATOM     17  C   UNL     1       9.287  11.002  20.495  0.00  0.00    +0.000 A 
ATOM     18  C   UNL     1       9.514  12.410  20.429  0.00  0.00    +0.000 A 
ATOM     19  C   UNL     1       9.644  12.829  19.131  0.00  0.00    +0.000 A 
ATOM     20 CL   UNL     1       9.908  14.439  18.595  0.00  0.00    +0.000 Cl
ATOM     21  S   UNL     1       9.511  11.577  18.001  0.00  0.00    +0.000 S 
ENDBRANCH  15  16
ENDBRANCH  14  15
ENDBRANCH   2  14
TORSDOF 5
ENDMDL
MODEL 7
REMARK VINA RESULT:      -6.5      4.884      7.729
REMARK  Name = 
REMARK  6 active torsions:
REMARK  status: ('A' for Active; 'I' for Inactive)
REMARK    1  A    between atoms: C_1  and  S_2
REMARK    2  A    between atoms: S_2  and  C_5
REMARK    3  A    between atoms: C_9  and  N_10
REMARK    4  A    between atoms: C_11  and  C_13
REMARK    5  A    between atoms: C_13  and  C_14
REMARK    6  A    between atoms: C_14  and  C_15
REMARK                            x       y       z     vdW  Elec       q    Type
REMARK                         _______ _______ _______ _____ _____    ______ ____
ROOT
ATOM      1  N   UNL     1       4.185   5.130  16.921  0.00  0.00    +0.000 N 
ATOM      2  C   UNL     1       3.908   6.364  17.476  0.00  0.00    +0.000 C 
ATOM      3  O   UNL     1       4.611   7.364  17.355  0.00  0.00    +0.000 OA
ATOM      4  H   UNL     1       3.390   4.584  16.613  0.00  0.00    +0.000 HD
ENDROOT
BRANCH   1   9
ATOM      5  C   UNL     1       6.694   4.897  16.540  0.00  0.00    +0.000 A 
ATOM      6  C   UNL     1       7.500   4.759  15.357  0.00  0.00    +0.000 A 
ATOM      7  C   UNL     1       6.739   4.647  14.213  0.00  0.00    +0.000 A 
ATOM      8  S   UNL     1       5.067   4.637  14.565  0.00  0.00    +0.000 S 
ATOM      9  C   UNL     1       5.355   4.935  16.218  0.00  0.00    +0.000 A 
BRANCH   5  11
ATOM     10  C   UNL     1       7.845   6.512  18.532  0.00  0.00    +0.000 C 
ATOM     11  S   UNL     1       7.398   4.847  18.127  0.00  0.00    +0.000 S 
ATOM     12  O   UNL     1       8.616   4.082  17.942  0.00  0.00    +0.000 OA
ATOM     13  O   UNL     1       6.350   4.381  19.012  0.00  0.00    +0.000 OA
ENDBRANCH   5  11
ENDBRANCH   1   9
BRANCH   2  14
ATOM     14  C   UNL     1       2.580   6.418  18.197  0.00  0.00    +0.000 C 
BRANCH  14  15
ATOM     15  C   UNL     1       1.665   5.303  17.708  0.00  0.00    +0.000 C 
BRANCH  15  16
ATOM     16  C   UNL     1       1.623   4.151  18.667  0.00  0.00    +0.000 A 
ATOM     17  C   UNL     1       1.636   2.797  18.381  0.00  0.00    +0.000 A 
ATOM     18  C   UNL     1       1.521   1.994  19.555  0.00  0.00    +0.000 A 
ATOM     19  C   UNL     1       1.439   2.773  20.680  0.00  0.00    +0.000 A 
ATOM     20 CL   UNL     1       1.273   2.224  22.298  0.00  0.00    +0.000 Cl
ATOM     21  S   UNL     1       1.509   4.432  20.357  0.00  0.00    +0.000 S 
ENDBRANCH  15  16
ENDBRANCH  14  15
ENDBRANCH   2  14
TORSDOF 5
ENDMDL
MODEL 8
REMARK VINA RESULT:      -6.5      5.665      7.085
REMARK  Name = 
REMARK  6 active torsions:
REMARK  status: ('A' for Active; 'I' for Inactive)
REMARK    1  A    between atoms: C_1  and  S_2
REMARK    2  A    between atoms: S_2  and  C_5
REMARK    3  A    between atoms: C_9  and  N_10
REMARK    4  A    between atoms: C_11  and  C_13
REMARK    5  A    between atoms: C_13  and  C_14
REMARK    6  A    between atoms: C_14  and  C_15
REMARK                            x       y       z     vdW  Elec       q    Type
REMARK                         _______ _______ _______ _____ _____    ______ ____
ROOT
ATOM      1  N   UNL     1       4.811   4.684  17.594  0.00  0.00    +0.000 N 
ATOM      2  C   UNL     1       6.131   4.942  17.908  0.00  0.00    +0.000 C 
ATOM      3  O   UNL     1       6.520   5.422  18.970  0.00  0.00    +0.000 OA
ATOM      4  H   UNL     1       4.634   3.867  17.022  0.00  0.00    +0.000 HD
ENDROOT
BRANCH   1   9
ATOM      5  C   UNL     1       3.044   4.344  19.399  0.00  0.00    +0.000 A 
ATOM      6  C   UNL     1       2.054   5.209  19.979  0.00  0.00    +0.000 A 
ATOM      7  C   UNL     1       2.147   6.503  19.512  0.00  0.00    +0.000 A 
ATOM      8  S   UNL     1       3.463   6.693  18.439  0.00  0.00    +0.000 S 
ATOM      9  C   UNL     1       3.810   5.025  18.477  0.00  0.00    +0.000 A 
BRANCH   5  11
ATOM     10  C   UNL     1       2.581   2.655  21.597  0.00  0.00    +0.000 C 
ATOM     11  S   UNL     1       3.275   2.720  19.970  0.00  0.00    +0.000 S 
ATOM     12  O   UNL     1       4.715   2.595  20.084  0.00  0.00    +0.000 OA
ATOM     13  O   UNL     1       2.521   1.871  19.070  0.00  0.00    +0.000 OA
ENDBRANCH   5  11
ENDBRANCH   1   9
BRANCH   2  14
ATOM     14  C   UNL     1       7.106   4.490  16.844  0.00  0.00    +0.000 C 
BRANCH  14  15
ATOM     15  C   UNL     1       7.168   5.510  15.715  0.00  0.00    +0.000 C 
BRANCH  15  16
ATOM     16  C   UNL     1       6.986   4.871  14.371  0.00  0.00    +0.000 A 
ATOM     17  C   UNL     1       7.685   5.118  13.203  0.00  0.00    +0.000 A 
ATOM     18  C   UNL     1       7.187   4.357  12.102  0.00  0.00    +0.000 A 
ATOM     19  C   UNL     1       6.143   3.557  12.487  0.00  0.00    +0.000 A 
ATOM     20 CL   UNL     1       5.240   2.495  11.484  0.00  0.00    +0.000 Cl
ATOM     21  S   UNL     1       5.760   3.692  14.129  0.00  0.00    +0.000 S 
ENDBRANCH  15  16
ENDBRANCH  14  15
ENDBRANCH   2  14
TORSDOF 5
ENDMDL
MODEL 9
REMARK VINA RESULT:      -6.4      5.978      7.386
REMARK  Name = 
REMARK  6 active torsions:
REMARK  status: ('A' for Active; 'I' for Inactive)
REMARK    1  A    between atoms: C_1  and  S_2
REMARK    2  A    between atoms: S_2  and  C_5
REMARK    3  A    between atoms: C_9  and  N_10
REMARK    4  A    between atoms: C_11  and  C_13
REMARK    5  A    between atoms: C_13  and  C_14
REMARK    6  A    between atoms: C_14  and  C_15
REMARK                            x       y       z     vdW  Elec       q    Type
REMARK                         _______ _______ _______ _____ _____    ______ ____
ROOT
ATOM      1  N   UNL     1       2.932   5.837  20.157  0.00  0.00    +0.000 N 
ATOM      2  C   UNL     1       2.301   6.982  19.711  0.00  0.00    +0.000 C 
ATOM      3  O   UNL     1       2.279   7.363  18.543  0.00  0.00    +0.000 OA
ATOM      4  H   UNL     1       2.484   5.343  20.920  0.00  0.00    +0.000 HD
ENDROOT
BRANCH   1   9
ATOM      5  C   UNL     1       3.372   3.980  18.469  0.00  0.00    +0.000 A 
ATOM      6  C   UNL     1       4.566   3.493  17.834  0.00  0.00    +0.000 A 
ATOM      7  C   UNL     1       5.675   4.247  18.150  0.00  0.00    +0.000 A 
ATOM      8  S   UNL     1       5.272   5.575  19.146  0.00  0.00    +0.000 S 
ATOM      9  C   UNL     1       3.654   5.058  19.280  0.00  0.00    +0.000 A 
BRANCH   5  11
ATOM     10  C   UNL     1       0.988   3.025  19.612  0.00  0.00    +0.000 C 
ATOM     11  S   UNL     1       1.808   3.337  18.073  0.00  0.00    +0.000 S 
ATOM     12  O   UNL     1       2.105   2.062  17.450  0.00  0.00    +0.000 OA
ATOM     13  O   UNL     1       1.120   4.384  17.344  0.00  0.00    +0.000 OA
ENDBRANCH   5  11
ENDBRANCH   1   9
BRANCH   2  14
ATOM     14  C   UNL     1       1.537   7.713  20.792  0.00  0.00    +0.000 C 
BRANCH  14  15
ATOM     15  C   UNL     1       1.057   9.065  20.281  0.00  0.00    +0.000 C 
BRANCH  15  16
ATOM     16  C   UNL     1       0.241   9.796  21.305  0.00  0.00    +0.000 A 
ATOM     17  C   UNL     1      -0.040   9.416  22.605  0.00  0.00    +0.000 A 
ATOM     18  C   UNL     1      -0.904  10.341  23.264  0.00  0.00    +0.000 A 
ATOM     19  C   UNL     1      -1.228  11.388  22.441  0.00  0.00    +0.000 A 
ATOM     20 CL   UNL     1      -2.252  12.713  22.820  0.00  0.00    +0.000 Cl
ATOM     21  S   UNL     1      -0.513  11.288  20.911  0.00  0.00    +0.000 S 
ENDBRANCH  15  16
ENDBRANCH  14  15
ENDBRANCH   2  14
TORSDOF 5
ENDMDL
