MODEL 1
REMARK VINA RESULT:      -8.4      0.000      0.000
REMARK  Name = 
REMARK  6 active torsions:
REMARK  status: ('A' for Active; 'I' for Inactive)
REMARK    1  A    between atoms: C_2  and  C_13
REMARK    2  A    between atoms: N_3  and  C_4
REMARK    3  A    between atoms: C_4  and  C_5
REMARK    4  A    between atoms: C_5  and  C_6
REMARK    5  A    between atoms: C_6  and  N_7
REMARK    6  A    between atoms: N_19  and  C_20
REMARK                            x       y       z     vdW  Elec       q    Type
REMARK                         _______ _______ _______ _____ _____    ______ ____
ROOT
ATOM      1  C   UNL     1       2.844   6.933  18.843  0.00  0.00    +0.000 A 
ATOM      2  C   UNL     1       2.847   7.879  17.813  0.00  0.00    +0.000 A 
ATOM      3  C   UNL     1       2.086   9.041  17.937  0.00  0.00    +0.000 A 
ATOM      4  C   UNL     1       1.381   9.284  19.122  0.00  0.00    +0.000 A 
ATOM      5  C   UNL     1       0.597  10.526  19.300  0.00  0.00    +0.000 A 
ATOM      6  O   UNL     1       0.471  11.262  18.324  0.00  0.00    +0.000 OA
ATOM      7  N   UNL     1       0.076  10.767  20.594  0.00  0.00    +0.000 N 
ATOM      8  C   UNL     1       0.157   9.837  21.638  0.00  0.00    +0.000 A 
ATOM      9  S   UNL     1      -0.515   9.933  23.175  0.00  0.00    +0.000 S 
ATOM     10  N   UNL     1       0.815   8.665  21.373  0.00  0.00    +0.000 N 
ATOM     11  C   UNL     1       1.435   8.369  20.165  0.00  0.00    +0.000 A 
ATOM     12  C   UNL     1       2.135   7.172  20.026  0.00  0.00    +0.000 A 
ATOM     13  H   UNL     1       0.862   8.006  22.142  0.00  0.00    +0.000 HD
ENDROOT
BRANCH   7  14
ATOM     14  C   UNL     1      -0.586  12.026  20.783  0.00  0.00    +0.000 A 
ATOM     15  C   UNL     1       0.119  13.126  21.299  0.00  0.00    +0.000 A 
ATOM     16  C   UNL     1      -0.548  14.315  21.601  0.00  0.00    +0.000 A 
ATOM     17  C   UNL     1      -1.915  14.410  21.374  0.00  0.00    +0.000 A 
ATOM     18  F   UNL     1      -2.563  15.531  21.710  0.00  0.00    +0.000 F 
ATOM     19  C   UNL     1      -2.620  13.354  20.806  0.00  0.00    +0.000 A 
ATOM     20  C   UNL     1      -1.956  12.160  20.509  0.00  0.00    +0.000 A 
ENDBRANCH   7  14
BRANCH   1  22
ATOM     21  O   UNL     1       4.443   5.353  19.526  0.00  0.00    +0.000 OA
ATOM     22  C   UNL     1       3.627   5.693  18.666  0.00  0.00    +0.000 C 
ATOM     23  N   UNL     1       3.420   5.012  17.492  0.00  0.00    +0.000 N 
ATOM     24  H   UNL     1       2.946   5.489  16.733  0.00  0.00    +0.000 HD
BRANCH  23  25
ATOM     25  C   UNL     1       4.174   3.812  17.188  0.00  0.00    +0.000 C 
BRANCH  25  26
ATOM     26  C   UNL     1       3.262   2.587  17.116  0.00  0.00    +0.000 C 
BRANCH  26  27
ATOM     27  C   UNL     1       3.306   1.777  18.413  0.00  0.00    +0.000 C 
BRANCH  27  28
ATOM     28  N   UNL     1       2.546   2.373  19.501  0.00  0.00    +0.000 N 
ATOM     29  C   UNL     1       1.186   2.840  19.360  0.00  0.00    +0.000 C 
ATOM     30  C   UNL     1       0.971   3.692  20.600  0.00  0.00    +0.000 C 
ATOM     31  C   UNL     1       1.901   3.074  21.635  0.00  0.00    +0.000 C 
ATOM     32  C   UNL     1       3.022   2.525  20.793  0.00  0.00    +0.000 C 
ATOM     33  O   UNL     1       4.136   2.227  21.195  0.00  0.00    +0.000 OA
ENDBRANCH  27  28
ENDBRANCH  26  27
ENDBRANCH  25  26
ENDBRANCH  23  25
ENDBRANCH   1  22
TORSDOF 6
ENDMDL
MODEL 2
REMARK VINA RESULT:      -8.1      2.163      2.643
REMARK  Name = 
REMARK  6 active torsions:
REMARK  status: ('A' for Active; 'I' for Inactive)
REMARK    1  A    between atoms: C_2  and  C_13
REMARK    2  A    between atoms: N_3  and  C_4
REMARK    3  A    between atoms: C_4  and  C_5
REMARK    4  A    between atoms: C_5  and  C_6
REMARK    5  A    between atoms: C_6  and  N_7
REMARK    6  A    between atoms: N_19  and  C_20
REMARK                            x       y       z     vdW  Elec       q    Type
REMARK                         _______ _______ _______ _____ _____    ______ ____
ROOT
ATOM      1  C   UNL     1       1.932   8.231  19.269  0.00  0.00    +0.000 A 
ATOM      2  C   UNL     1       1.707   7.753  20.565  0.00  0.00    +0.000 A 
ATOM      3  C   UNL     1       1.079   8.569  21.505  0.00  0.00    +0.000 A 
ATOM      4  C   UNL     1       0.613   9.833  21.125  0.00  0.00    +0.000 A 
ATOM      5  C   UNL     1      -0.093  10.705  22.088  0.00  0.00    +0.000 A 
ATOM      6  O   UNL     1      -0.128  10.342  23.262  0.00  0.00    +0.000 OA
ATOM      7  N   UNL     1      -0.687  11.879  21.565  0.00  0.00    +0.000 N 
ATOM      8  C   UNL     1      -0.517  12.297  20.240  0.00  0.00    +0.000 A 
ATOM      9  S   UNL     1      -1.054  13.715  19.516  0.00  0.00    +0.000 S 
ATOM     10  N   UNL     1       0.232  11.488  19.426  0.00  0.00    +0.000 N 
ATOM     11  C   UNL     1       0.784  10.275  19.820  0.00  0.00    +0.000 A 
ATOM     12  C   UNL     1       1.473   9.499  18.890  0.00  0.00    +0.000 A 
ATOM     13  H   UNL     1       0.342  11.809  18.470  0.00  0.00    +0.000 HD
ENDROOT
BRANCH   7  14
ATOM     14  C   UNL     1      -1.464  12.658  22.486  0.00  0.00    +0.000 A 
ATOM     15  C   UNL     1      -0.900  13.778  23.116  0.00  0.00    +0.000 A 
ATOM     16  C   UNL     1      -1.609  14.466  24.104  0.00  0.00    +0.000 A 
ATOM     17  C   UNL     1      -2.887  14.043  24.449  0.00  0.00    +0.000 A 
ATOM     18  F   UNL     1      -3.546  14.670  25.430  0.00  0.00    +0.000 F 
ATOM     19  C   UNL     1      -3.487  12.974  23.793  0.00  0.00    +0.000 A 
ATOM     20  C   UNL     1      -2.777  12.280  22.809  0.00  0.00    +0.000 A 
ENDBRANCH   7  14
BRANCH   1  22
ATOM     21  O   UNL     1       3.157   7.851  17.302  0.00  0.00    +0.000 OA
ATOM     22  C   UNL     1       2.637   7.361  18.307  0.00  0.00    +0.000 C 
ATOM     23  N   UNL     1       2.618   6.016  18.584  0.00  0.00    +0.000 N 
ATOM     24  H   UNL     1       1.953   5.673  19.268  0.00  0.00    +0.000 HD
BRANCH  23  25
ATOM     25  C   UNL     1       3.231   5.065  17.680  0.00  0.00    +0.000 C 
BRANCH  25  26
ATOM     26  C   UNL     1       2.240   3.979  17.260  0.00  0.00    +0.000 C 
BRANCH  26  27
ATOM     27  C   UNL     1       2.550   2.643  17.938  0.00  0.00    +0.000 C 
BRANCH  27  28
ATOM     28  N   UNL     1       2.351   2.657  19.379  0.00  0.00    +0.000 N 
ATOM     29  C   UNL     1       1.051   2.759  20.002  0.00  0.00    +0.000 C 
ATOM     30  C   UNL     1       1.373   3.110  21.445  0.00  0.00    +0.000 C 
ATOM     31  C   UNL     1       2.742   2.486  21.676  0.00  0.00    +0.000 C 
ATOM     32  C   UNL     1       3.370   2.538  20.309  0.00  0.00    +0.000 C 
ATOM     33  O   UNL     1       4.564   2.446  20.068  0.00  0.00    +0.000 OA
ENDBRANCH  27  28
ENDBRANCH  26  27
ENDBRANCH  25  26
ENDBRANCH  23  25
ENDBRANCH   1  22
TORSDOF 6
ENDMDL
MODEL 3
REMARK VINA RESULT:      -8.1      2.740      4.156
REMARK  Name = 
REMARK  6 active torsions:
REMARK  status: ('A' for Active; 'I' for Inactive)
REMARK    1  A    between atoms: C_2  and  C_13
REMARK    2  A    between atoms: N_3  and  C_4
REMARK    3  A    between atoms: C_4  and  C_5
REMARK    4  A    between atoms: C_5  and  C_6
REMARK    5  A    between atoms: C_6  and  N_7
REMARK    6  A    between atoms: N_19  and  C_20
REMARK                            x       y       z     vdW  Elec       q    Type
REMARK                         _______ _______ _______ _____ _____    ______ ____
ROOT
ATOM      1  C   UNL     1       1.879   8.065  19.446  0.00  0.00    +0.000 A 
ATOM      2  C   UNL     1       1.716   7.613  20.760  0.00  0.00    +0.000 A 
ATOM      3  C   UNL     1       1.104   8.436  21.705  0.00  0.00    +0.000 A 
ATOM      4  C   UNL     1       0.594   9.680  21.315  0.00  0.00    +0.000 A 
ATOM      5  C   UNL     1      -0.095  10.558  22.285  0.00  0.00    +0.000 A 
ATOM      6  O   UNL     1      -0.076  10.222  23.467  0.00  0.00    +0.000 OA
ATOM      7  N   UNL     1      -0.737  11.705  21.758  0.00  0.00    +0.000 N 
ATOM      8  C   UNL     1      -0.628  12.095  20.418  0.00  0.00    +0.000 A 
ATOM      9  S   UNL     1      -1.226  13.483  19.683  0.00  0.00    +0.000 S 
ATOM     10  N   UNL     1       0.108  11.284  19.594  0.00  0.00    +0.000 N 
ATOM     11  C   UNL     1       0.705  10.094  19.994  0.00  0.00    +0.000 A 
ATOM     12  C   UNL     1       1.375   9.312  19.056  0.00  0.00    +0.000 A 
ATOM     13  H   UNL     1       0.174  11.585  18.628  0.00  0.00    +0.000 HD
ENDROOT
BRANCH   7  14
ATOM     14  C   UNL     1      -1.496  12.488  22.690  0.00  0.00    +0.000 A 
ATOM     15  C   UNL     1      -2.810  12.120  23.019  0.00  0.00    +0.000 A 
ATOM     16  C   UNL     1      -3.595  12.945  23.827  0.00  0.00    +0.000 A 
ATOM     17  C   UNL     1      -3.060  14.128  24.320  0.00  0.00    +0.000 A 
ATOM     18  F   UNL     1      -3.828  14.943  25.054  0.00  0.00    +0.000 F 
ATOM     19  C   UNL     1      -1.741  14.480  24.058  0.00  0.00    +0.000 A 
ATOM     20  C   UNL     1      -0.956  13.660  23.244  0.00  0.00    +0.000 A 
ENDBRANCH   7  14
BRANCH   1  22
ATOM     21  O   UNL     1       3.249   7.684  17.577  0.00  0.00    +0.000 OA
ATOM     22  C   UNL     1       2.567   7.188  18.477  0.00  0.00    +0.000 C 
ATOM     23  N   UNL     1       2.349   5.841  18.623  0.00  0.00    +0.000 N 
ATOM     24  H   UNL     1       1.577   5.537  19.204  0.00  0.00    +0.000 HD
BRANCH  23  25
ATOM     25  C   UNL     1       2.930   4.892  17.695  0.00  0.00    +0.000 C 
BRANCH  25  26
ATOM     26  C   UNL     1       4.176   4.230  18.285  0.00  0.00    +0.000 C 
BRANCH  26  27
ATOM     27  C   UNL     1       5.335   4.226  17.286  0.00  0.00    +0.000 C 
BRANCH  27  28
ATOM     28  N   UNL     1       6.330   5.257  17.539  0.00  0.00    +0.000 N 
ATOM     29  C   UNL     1       7.348   5.147  18.558  0.00  0.00    +0.000 C 
ATOM     30  C   UNL     1       7.873   6.567  18.691  0.00  0.00    +0.000 C 
ATOM     31  C   UNL     1       7.651   7.171  17.311  0.00  0.00    +0.000 C 
ATOM     32  C   UNL     1       6.436   6.433  16.815  0.00  0.00    +0.000 C 
ATOM     33  O   UNL     1       5.706   6.792  15.904  0.00  0.00    +0.000 OA
ENDBRANCH  27  28
ENDBRANCH  26  27
ENDBRANCH  25  26
ENDBRANCH  23  25
ENDBRANCH   1  22
TORSDOF 6
ENDMDL
MODEL 4
REMARK VINA RESULT:      -8.0      2.187      2.721
REMARK  Name = 
REMARK  6 active torsions:
REMARK  status: ('A' for Active; 'I' for Inactive)
REMARK    1  A    between atoms: C_2  and  C_13
REMARK    2  A    between atoms: N_3  and  C_4
REMARK    3  A    between atoms: C_4  and  C_5
REMARK    4  A    between atoms: C_5  and  C_6
REMARK    5  A    between atoms: C_6  and  N_7
REMARK    6  A    between atoms: N_19  and  C_20
REMARK                            x       y       z     vdW  Elec       q    Type
REMARK                         _______ _______ _______ _____ _____    ______ ____
ROOT
ATOM      1  C   UNL     1       1.984   7.650  19.541  0.00  0.00    +0.000 A 
ATOM      2  C   UNL     1       1.739   7.321  20.879  0.00  0.00    +0.000 A 
ATOM      3  C   UNL     1       1.127   8.251  21.719  0.00  0.00    +0.000 A 
ATOM      4  C   UNL     1       0.698   9.478  21.200  0.00  0.00    +0.000 A 
ATOM      5  C   UNL     1       0.009  10.468  22.057  0.00  0.00    +0.000 A 
ATOM      6  O   UNL     1      -0.042  10.236  23.263  0.00  0.00    +0.000 OA
ATOM      7  N   UNL     1      -0.550  11.592  21.404  0.00  0.00    +0.000 N 
ATOM      8  C   UNL     1      -0.361  11.859  20.042  0.00  0.00    +0.000 A 
ATOM      9  S   UNL     1      -0.856  13.203  19.164  0.00  0.00    +0.000 S 
ATOM     10  N   UNL     1       0.370  10.947  19.328  0.00  0.00    +0.000 N 
ATOM     11  C   UNL     1       0.888   9.770  19.856  0.00  0.00    +0.000 A 
ATOM     12  C   UNL     1       1.561   8.879  19.022  0.00  0.00    +0.000 A 
ATOM     13  H   UNL     1       0.494  11.159  18.344  0.00  0.00    +0.000 HD
ENDROOT
BRANCH   7  14
ATOM     14  C   UNL     1      -1.311  12.487  22.228  0.00  0.00    +0.000 A 
ATOM     15  C   UNL     1      -0.694  13.599  22.822  0.00  0.00    +0.000 A 
ATOM     16  C   UNL     1      -1.399  14.402  23.722  0.00  0.00    +0.000 A 
ATOM     17  C   UNL     1      -2.723  14.102  24.015  0.00  0.00    +0.000 A 
ATOM     18  F   UNL     1      -3.383  14.841  24.915  0.00  0.00    +0.000 F 
ATOM     19  C   UNL     1      -3.371  13.043  23.389  0.00  0.00    +0.000 A 
ATOM     20  C   UNL     1      -2.666  12.234  22.493  0.00  0.00    +0.000 A 
ENDBRANCH   7  14
BRANCH   1  22
ATOM     21  O   UNL     1       2.030   6.028  17.843  0.00  0.00    +0.000 OA
ATOM     22  C   UNL     1       2.670   6.661  18.686  0.00  0.00    +0.000 C 
ATOM     23  N   UNL     1       4.008   6.476  18.933  0.00  0.00    +0.000 N 
ATOM     24  H   UNL     1       4.392   6.827  19.803  0.00  0.00    +0.000 HD
BRANCH  23  25
ATOM     25  C   UNL     1       4.769   5.492  18.190  0.00  0.00    +0.000 C 
BRANCH  25  26
ATOM     26  C   UNL     1       5.186   4.323  19.083  0.00  0.00    +0.000 C 
BRANCH  26  27
ATOM     27  C   UNL     1       4.344   3.076  18.804  0.00  0.00    +0.000 C 
BRANCH  27  28
ATOM     28  N   UNL     1       3.030   3.105  19.427  0.00  0.00    +0.000 N 
ATOM     29  C   UNL     1       2.797   3.574  20.773  0.00  0.00    +0.000 C 
ATOM     30  C   UNL     1       1.400   3.068  21.091  0.00  0.00    +0.000 C 
ATOM     31  C   UNL     1       0.715   3.007  19.732  0.00  0.00    +0.000 C 
ATOM     32  C   UNL     1       1.859   2.724  18.794  0.00  0.00    +0.000 C 
ATOM     33  O   UNL     1       1.758   2.280  17.660  0.00  0.00    +0.000 OA
ENDBRANCH  27  28
ENDBRANCH  26  27
ENDBRANCH  25  26
ENDBRANCH  23  25
ENDBRANCH   1  22
TORSDOF 6
ENDMDL
MODEL 5
REMARK VINA RESULT:      -8.0      1.898      2.453
REMARK  Name = 
REMARK  6 active torsions:
REMARK  status: ('A' for Active; 'I' for Inactive)
REMARK    1  A    between atoms: C_2  and  C_13
REMARK    2  A    between atoms: N_3  and  C_4
REMARK    3  A    between atoms: C_4  and  C_5
REMARK    4  A    between atoms: C_5  and  C_6
REMARK    5  A    between atoms: C_6  and  N_7
REMARK    6  A    between atoms: N_19  and  C_20
REMARK                            x       y       z     vdW  Elec       q    Type
REMARK                         _______ _______ _______ _____ _____    ______ ____
ROOT
ATOM      1  C   UNL     1       2.214   7.825  19.033  0.00  0.00    +0.000 A 
ATOM      2  C   UNL     1       1.855   7.330  20.292  0.00  0.00    +0.000 A 
ATOM      3  C   UNL     1       1.156   8.143  21.182  0.00  0.00    +0.000 A 
ATOM      4  C   UNL     1       0.755   9.424  20.784  0.00  0.00    +0.000 A 
ATOM      5  C   UNL     1      -0.023  10.295  21.691  0.00  0.00    +0.000 A 
ATOM      6  O   UNL     1      -0.179   9.912  22.849  0.00  0.00    +0.000 OA
ATOM      7  N   UNL     1      -0.539  11.490  21.136  0.00  0.00    +0.000 N 
ATOM      8  C   UNL     1      -0.233  11.927  19.840  0.00  0.00    +0.000 A 
ATOM      9  S   UNL     1      -0.669  13.369  19.096  0.00  0.00    +0.000 S 
ATOM     10  N   UNL     1       0.574  11.115  19.087  0.00  0.00    +0.000 N 
ATOM     11  C   UNL     1       1.061   9.884  19.509  0.00  0.00    +0.000 A 
ATOM     12  C   UNL     1       1.820   9.108  18.635  0.00  0.00    +0.000 A 
ATOM     13  H   UNL     1       0.782  11.450  18.153  0.00  0.00    +0.000 HD
ENDROOT
BRANCH   7  14
ATOM     14  C   UNL     1      -1.385  12.271  21.992  0.00  0.00    +0.000 A 
ATOM     15  C   UNL     1      -2.780  12.132  21.926  0.00  0.00    +0.000 A 
ATOM     16  C   UNL     1      -3.611  12.976  22.667  0.00  0.00    +0.000 A 
ATOM     17  C   UNL     1      -3.046  13.947  23.484  0.00  0.00    +0.000 A 
ATOM     18  F   UNL     1      -3.843  14.788  24.155  0.00  0.00    +0.000 F 
ATOM     19  C   UNL     1      -1.666  14.059  23.611  0.00  0.00    +0.000 A 
ATOM     20  C   UNL     1      -0.833  13.221  22.866  0.00  0.00    +0.000 A 
ENDBRANCH   7  14
BRANCH   1  22
ATOM     21  O   UNL     1       3.652   7.455  17.213  0.00  0.00    +0.000 OA
ATOM     22  C   UNL     1       2.991   6.955  18.127  0.00  0.00    +0.000 C 
ATOM     23  N   UNL     1       2.876   5.604  18.343  0.00  0.00    +0.000 N 
ATOM     24  H   UNL     1       2.118   5.271  18.926  0.00  0.00    +0.000 HD
BRANCH  23  25
ATOM     25  C   UNL     1       3.551   4.656  17.479  0.00  0.00    +0.000 C 
BRANCH  25  26
ATOM     26  C   UNL     1       2.607   3.540  17.035  0.00  0.00    +0.000 C 
BRANCH  26  27
ATOM     27  C   UNL     1       2.772   2.288  17.900  0.00  0.00    +0.000 C 
BRANCH  27  28
ATOM     28  N   UNL     1       2.455   2.499  19.304  0.00  0.00    +0.000 N 
ATOM     29  C   UNL     1       1.111   2.696  19.795  0.00  0.00    +0.000 C 
ATOM     30  C   UNL     1       1.320   3.237  21.200  0.00  0.00    +0.000 C 
ATOM     31  C   UNL     1       2.654   2.640  21.627  0.00  0.00    +0.000 C 
ATOM     32  C   UNL     1       3.393   2.501  20.323  0.00  0.00    +0.000 C 
ATOM     33  O   UNL     1       4.600   2.368  20.198  0.00  0.00    +0.000 OA
ENDBRANCH  27  28
ENDBRANCH  26  27
ENDBRANCH  25  26
ENDBRANCH  23  25
ENDBRANCH   1  22
TORSDOF 6
ENDMDL
MODEL 6
REMARK VINA RESULT:      -8.0      2.288      2.938
REMARK  Name = 
REMARK  6 active torsions:
REMARK  status: ('A' for Active; 'I' for Inactive)
REMARK    1  A    between atoms: C_2  and  C_13
REMARK    2  A    between atoms: N_3  and  C_4
REMARK    3  A    between atoms: C_4  and  C_5
REMARK    4  A    between atoms: C_5  and  C_6
REMARK    5  A    between atoms: C_6  and  N_7
REMARK    6  A    between atoms: N_19  and  C_20
REMARK                            x       y       z     vdW  Elec       q    Type
REMARK                         _______ _______ _______ _____ _____    ______ ____
ROOT
ATOM      1  C   UNL     1       1.964   8.261  19.173  0.00  0.00    +0.000 A 
ATOM      2  C   UNL     1       1.791   7.739  20.459  0.00  0.00    +0.000 A 
ATOM      3  C   UNL     1       1.170   8.509  21.442  0.00  0.00    +0.000 A 
ATOM      4  C   UNL     1       0.662   9.772  21.115  0.00  0.00    +0.000 A 
ATOM      5  C   UNL     1      -0.037  10.596  22.125  0.00  0.00    +0.000 A 
ATOM      6  O   UNL     1      -0.027  10.197  23.288  0.00  0.00    +0.000 OA
ATOM      7  N   UNL     1      -0.676  11.768  21.656  0.00  0.00    +0.000 N 
ATOM      8  C   UNL     1      -0.556  12.231  20.339  0.00  0.00    +0.000 A 
ATOM      9  S   UNL     1      -1.151  13.655  19.675  0.00  0.00    +0.000 S 
ATOM     10  N   UNL     1       0.187  11.466  19.479  0.00  0.00    +0.000 N 
ATOM     11  C   UNL     1       0.782  10.256  19.819  0.00  0.00    +0.000 A 
ATOM     12  C   UNL     1       1.461   9.526  18.846  0.00  0.00    +0.000 A 
ATOM     13  H   UNL     1       0.260  11.818  18.531  0.00  0.00    +0.000 HD
ENDROOT
BRANCH   7  14
ATOM     14  C   UNL     1      -1.444  12.499  22.622  0.00  0.00    +0.000 A 
ATOM     15  C   UNL     1      -2.748  12.093  22.944  0.00  0.00    +0.000 A 
ATOM     16  C   UNL     1      -3.543  12.871  23.789  0.00  0.00    +0.000 A 
ATOM     17  C   UNL     1      -3.028  14.044  24.325  0.00  0.00    +0.000 A 
ATOM     18  F   UNL     1      -3.807  14.815  25.094  0.00  0.00    +0.000 F 
ATOM     19  C   UNL     1      -1.718  14.432  24.068  0.00  0.00    +0.000 A 
ATOM     20  C   UNL     1      -0.922  13.660  23.218  0.00  0.00    +0.000 A 
ENDBRANCH   7  14
BRANCH   1  22
ATOM     21  O   UNL     1       3.032   7.949  17.104  0.00  0.00    +0.000 OA
ATOM     22  C   UNL     1       2.661   7.438  18.164  0.00  0.00    +0.000 C 
ATOM     23  N   UNL     1       2.806   6.107  18.467  0.00  0.00    +0.000 N 
ATOM     24  H   UNL     1       2.246   5.719  19.218  0.00  0.00    +0.000 HD
BRANCH  23  25
ATOM     25  C   UNL     1       3.426   5.196  17.526  0.00  0.00    +0.000 C 
BRANCH  25  26
ATOM     26  C   UNL     1       2.501   4.025  17.196  0.00  0.00    +0.000 C 
BRANCH  26  27
ATOM     27  C   UNL     1       2.901   2.761  17.959  0.00  0.00    +0.000 C 
BRANCH  27  28
ATOM     28  N   UNL     1       2.490   2.765  19.355  0.00  0.00    +0.000 N 
ATOM     29  C   UNL     1       3.409   2.952  20.454  0.00  0.00    +0.000 C 
ATOM     30  C   UNL     1       2.609   2.508  21.667  0.00  0.00    +0.000 C 
ATOM     31  C   UNL     1       1.165   2.796  21.279  0.00  0.00    +0.000 C 
ATOM     32  C   UNL     1       1.180   2.627  19.782  0.00  0.00    +0.000 C 
ATOM     33  O   UNL     1       0.201   2.447  19.075  0.00  0.00    +0.000 OA
ENDBRANCH  27  28
ENDBRANCH  26  27
ENDBRANCH  25  26
ENDBRANCH  23  25
ENDBRANCH   1  22
TORSDOF 6
ENDMDL
MODEL 7
REMARK VINA RESULT:      -7.9      1.884      2.458
REMARK  Name = 
REMARK  6 active torsions:
REMARK  status: ('A' for Active; 'I' for Inactive)
REMARK    1  A    between atoms: C_2  and  C_13
REMARK    2  A    between atoms: N_3  and  C_4
REMARK    3  A    between atoms: C_4  and  C_5
REMARK    4  A    between atoms: C_5  and  C_6
REMARK    5  A    between atoms: C_6  and  N_7
REMARK    6  A    between atoms: N_19  and  C_20
REMARK                            x       y       z     vdW  Elec       q    Type
REMARK                         _______ _______ _______ _____ _____    ______ ____
ROOT
ATOM      1  C   UNL     1       2.538   7.393  18.579  0.00  0.00    +0.000 A 
ATOM      2  C   UNL     1       2.200   6.988  19.875  0.00  0.00    +0.000 A 
ATOM      3  C   UNL     1       1.527   7.867  20.722  0.00  0.00    +0.000 A 
ATOM      4  C   UNL     1       1.131   9.123  20.246  0.00  0.00    +0.000 A 
ATOM      5  C   UNL     1       0.381  10.062  21.108  0.00  0.00    +0.000 A 
ATOM      6  O   UNL     1       0.245   9.760  22.292  0.00  0.00    +0.000 OA
ATOM      7  N   UNL     1      -0.134  11.223  20.484  0.00  0.00    +0.000 N 
ATOM      8  C   UNL     1       0.150  11.568  19.156  0.00  0.00    +0.000 A 
ATOM      9  S   UNL     1      -0.287  12.961  18.324  0.00  0.00    +0.000 S 
ATOM     10  N   UNL     1       0.933  10.698  18.444  0.00  0.00    +0.000 N 
ATOM     11  C   UNL     1       1.415   9.492  18.938  0.00  0.00    +0.000 A 
ATOM     12  C   UNL     1       2.148   8.651  18.104  0.00  0.00    +0.000 A 
ATOM     13  H   UNL     1       1.125  10.967  17.485  0.00  0.00    +0.000 HD
ENDROOT
BRANCH   7  14
ATOM     14  C   UNL     1      -0.955  12.069  21.302  0.00  0.00    +0.000 A 
ATOM     15  C   UNL     1      -2.354  11.993  21.219  0.00  0.00    +0.000 A 
ATOM     16  C   UNL     1      -3.154  12.898  21.920  0.00  0.00    +0.000 A 
ATOM     17  C   UNL     1      -2.556  13.867  22.715  0.00  0.00    +0.000 A 
ATOM     18  F   UNL     1      -3.321  14.766  23.346  0.00  0.00    +0.000 F 
ATOM     19  C   UNL     1      -1.174  13.920  22.859  0.00  0.00    +0.000 A 
ATOM     20  C   UNL     1      -0.371  13.020  22.154  0.00  0.00    +0.000 A 
ENDBRANCH   7  14
BRANCH   1  22
ATOM     21  O   UNL     1       4.228   6.866  17.035  0.00  0.00    +0.000 OA
ATOM     22  C   UNL     1       3.287   6.455  17.718  0.00  0.00    +0.000 C 
ATOM     23  N   UNL     1       2.833   5.159  17.702  0.00  0.00    +0.000 N 
ATOM     24  H   UNL     1       1.910   4.966  18.071  0.00  0.00    +0.000 HD
BRANCH  23  25
ATOM     25  C   UNL     1       3.459   4.167  16.851  0.00  0.00    +0.000 C 
BRANCH  25  26
ATOM     26  C   UNL     1       4.242   3.144  17.674  0.00  0.00    +0.000 C 
BRANCH  26  27
ATOM     27  C   UNL     1       3.331   2.036  18.207  0.00  0.00    +0.000 C 
BRANCH  27  28
ATOM     28  N   UNL     1       2.576   2.418  19.391  0.00  0.00    +0.000 N 
ATOM     29  C   UNL     1       3.192   2.767  20.650  0.00  0.00    +0.000 C 
ATOM     30  C   UNL     1       2.038   2.713  21.638  0.00  0.00    +0.000 C 
ATOM     31  C   UNL     1       0.817   3.048  20.793  0.00  0.00    +0.000 C 
ATOM     32  C   UNL     1       1.196   2.524  19.433  0.00  0.00    +0.000 C 
ATOM     33  O   UNL     1       0.421   2.282  18.521  0.00  0.00    +0.000 OA
ENDBRANCH  27  28
ENDBRANCH  26  27
ENDBRANCH  25  26
ENDBRANCH  23  25
ENDBRANCH   1  22
TORSDOF 6
ENDMDL
MODEL 8
REMARK VINA RESULT:      -7.9      2.780      4.067
REMARK  Name = 
REMARK  6 active torsions:
REMARK  status: ('A' for Active; 'I' for Inactive)
REMARK    1  A    between atoms: C_2  and  C_13
REMARK    2  A    between atoms: N_3  and  C_4
REMARK    3  A    between atoms: C_4  and  C_5
REMARK    4  A    between atoms: C_5  and  C_6
REMARK    5  A    between atoms: C_6  and  N_7
REMARK    6  A    between atoms: N_19  and  C_20
REMARK                            x       y       z     vdW  Elec       q    Type
REMARK                         _______ _______ _______ _____ _____    ______ ____
ROOT
ATOM      1  C   UNL     1       1.876   8.047  19.621  0.00  0.00    +0.000 A 
ATOM      2  C   UNL     1       1.611   7.645  20.935  0.00  0.00    +0.000 A 
ATOM      3  C   UNL     1       0.970   8.520  21.810  0.00  0.00    +0.000 A 
ATOM      4  C   UNL     1       0.532   9.767  21.348  0.00  0.00    +0.000 A 
ATOM      5  C   UNL     1      -0.187  10.701  22.242  0.00  0.00    +0.000 A 
ATOM      6  O   UNL     1      -0.258  10.404  23.433  0.00  0.00    +0.000 OA
ATOM      7  N   UNL     1      -0.751  11.849  21.638  0.00  0.00    +0.000 N 
ATOM      8  C   UNL     1      -0.541  12.190  20.296  0.00  0.00    +0.000 A 
ATOM      9  S   UNL     1      -1.040  13.572  19.479  0.00  0.00    +0.000 S 
ATOM     10  N   UNL     1       0.217  11.327  19.549  0.00  0.00    +0.000 N 
ATOM     11  C   UNL     1       0.743  10.132  20.025  0.00  0.00    +0.000 A 
ATOM     12  C   UNL     1       1.444   9.296  19.159  0.00  0.00    +0.000 A 
ATOM     13  H   UNL     1       0.356  11.592  18.580  0.00  0.00    +0.000 HD
ENDROOT
BRANCH   7  14
ATOM     14  C   UNL     1      -1.541  12.689  22.492  0.00  0.00    +0.000 A 
ATOM     15  C   UNL     1      -0.954  13.783  23.148  0.00  0.00    +0.000 A 
ATOM     16  C   UNL     1      -1.687  14.528  24.075  0.00  0.00    +0.000 A 
ATOM     17  C   UNL     1      -3.009  14.189  24.334  0.00  0.00    +0.000 A 
ATOM     18  F   UNL     1      -3.696  14.871  25.259  0.00  0.00    +0.000 F 
ATOM     19  C   UNL     1      -3.627  13.148  23.649  0.00  0.00    +0.000 A 
ATOM     20  C   UNL     1      -2.894  12.397  22.726  0.00  0.00    +0.000 A 
ENDBRANCH   7  14
BRANCH   1  22
ATOM     21  O   UNL     1       2.964   7.493  17.614  0.00  0.00    +0.000 OA
ATOM     22  C   UNL     1       2.594   7.114  18.728  0.00  0.00    +0.000 C 
ATOM     23  N   UNL     1       2.757   5.835  19.198  0.00  0.00    +0.000 N 
ATOM     24  H   UNL     1       2.198   5.536  19.989  0.00  0.00    +0.000 HD
BRANCH  23  25
ATOM     25  C   UNL     1       3.398   4.822  18.384  0.00  0.00    +0.000 C 
BRANCH  25  26
ATOM     26  C   UNL     1       4.756   4.424  18.961  0.00  0.00    +0.000 C 
BRANCH  26  27
ATOM     27  C   UNL     1       5.859   4.498  17.903  0.00  0.00    +0.000 C 
BRANCH  27  28
ATOM     28  N   UNL     1       6.648   5.720  17.964  0.00  0.00    +0.000 N 
ATOM     29  C   UNL     1       6.341   6.905  17.197  0.00  0.00    +0.000 C 
ATOM     30  C   UNL     1       7.610   7.734  17.299  0.00  0.00    +0.000 C 
ATOM     31  C   UNL     1       8.211   7.321  18.636  0.00  0.00    +0.000 C 
ATOM     32  C   UNL     1       7.750   5.895  18.784  0.00  0.00    +0.000 C 
ATOM     33  O   UNL     1       8.239   5.062  19.531  0.00  0.00    +0.000 OA
ENDBRANCH  27  28
ENDBRANCH  26  27
ENDBRANCH  25  26
ENDBRANCH  23  25
ENDBRANCH   1  22
TORSDOF 6
ENDMDL
MODEL 9
REMARK VINA RESULT:      -7.9      1.933      3.345
REMARK  Name = 
REMARK  6 active torsions:
REMARK  status: ('A' for Active; 'I' for Inactive)
REMARK    1  A    between atoms: C_2  and  C_13
REMARK    2  A    between atoms: N_3  and  C_4
REMARK    3  A    between atoms: C_4  and  C_5
REMARK    4  A    between atoms: C_5  and  C_6
REMARK    5  A    between atoms: C_6  and  N_7
REMARK    6  A    between atoms: N_19  and  C_20
REMARK                            x       y       z     vdW  Elec       q    Type
REMARK                         _______ _______ _______ _____ _____    ______ ____
ROOT
ATOM      1  C   UNL     1       2.952   6.629  18.720  0.00  0.00    +0.000 A 
ATOM      2  C   UNL     1       3.000   7.599  17.713  0.00  0.00    +0.000 A 
ATOM      3  C   UNL     1       2.292   8.791  17.865  0.00  0.00    +0.000 A 
ATOM      4  C   UNL     1       1.596   9.038  19.054  0.00  0.00    +0.000 A 
ATOM      5  C   UNL     1       0.870  10.309  19.261  0.00  0.00    +0.000 A 
ATOM      6  O   UNL     1       0.779  11.073  18.303  0.00  0.00    +0.000 OA
ATOM      7  N   UNL     1       0.357  10.543  20.559  0.00  0.00    +0.000 N 
ATOM      8  C   UNL     1       0.393   9.585  21.581  0.00  0.00    +0.000 A 
ATOM      9  S   UNL     1      -0.278   9.674  23.119  0.00  0.00    +0.000 S 
ATOM     10  N   UNL     1       0.997   8.390  21.288  0.00  0.00    +0.000 N 
ATOM     11  C   UNL     1       1.606   8.096  20.075  0.00  0.00    +0.000 A 
ATOM     12  C   UNL     1       2.251   6.872  19.908  0.00  0.00    +0.000 A 
ATOM     13  H   UNL     1       1.013   7.712  22.042  0.00  0.00    +0.000 HD
ENDROOT
BRANCH   7  14
ATOM     14  C   UNL     1      -0.247  11.825  20.779  0.00  0.00    +0.000 A 
ATOM     15  C   UNL     1       0.519  12.894  21.270  0.00  0.00    +0.000 A 
ATOM     16  C   UNL     1      -0.089  14.107  21.601  0.00  0.00    +0.000 A 
ATOM     17  C   UNL     1      -1.459  14.256  21.428  0.00  0.00    +0.000 A 
ATOM     18  F   UNL     1      -2.049  15.400  21.793  0.00  0.00    +0.000 F 
ATOM     19  C   UNL     1      -2.226  13.231  20.885  0.00  0.00    +0.000 A 
ATOM     20  C   UNL     1      -1.621  12.014  20.558  0.00  0.00    +0.000 A 
ENDBRANCH   7  14
BRANCH   1  22
ATOM     21  O   UNL     1       4.272   4.832  19.457  0.00  0.00    +0.000 OA
ATOM     22  C   UNL     1       3.678   5.360  18.514  0.00  0.00    +0.000 C 
ATOM     23  N   UNL     1       3.681   4.869  17.232  0.00  0.00    +0.000 N 
ATOM     24  H   UNL     1       3.407   5.487  16.477  0.00  0.00    +0.000 HD
BRANCH  23  25
ATOM     25  C   UNL     1       4.408   3.659  16.904  0.00  0.00    +0.000 C 
BRANCH  25  26
ATOM     26  C   UNL     1       5.579   3.951  15.966  0.00  0.00    +0.000 C 
BRANCH  26  27
ATOM     27  C   UNL     1       5.966   5.432  15.996  0.00  0.00    +0.000 C 
BRANCH  27  28
ATOM     28  N   UNL     1       6.835   5.788  17.106  0.00  0.00    +0.000 N 
ATOM     29  C   UNL     1       7.507   4.814  17.935  0.00  0.00    +0.000 C 
ATOM     30  C   UNL     1       7.960   5.623  19.139  0.00  0.00    +0.000 C 
ATOM     31  C   UNL     1       8.151   7.028  18.585  0.00  0.00    +0.000 C 
ATOM     32  C   UNL     1       7.142   7.088  17.469  0.00  0.00    +0.000 C 
ATOM     33  O   UNL     1       6.711   8.107  16.952  0.00  0.00    +0.000 OA
ENDBRANCH  27  28
ENDBRANCH  26  27
ENDBRANCH  25  26
ENDBRANCH  23  25
ENDBRANCH   1  22
TORSDOF 6
ENDMDL
