MODEL 1
REMARK VINA RESULT:      -6.5      0.000      0.000
REMARK  Name = 
REMARK  8 active torsions:
REMARK  status: ('A' for Active; 'I' for Inactive)
REMARK    1  A    between atoms: O_1  and  C_2
REMARK    2  A    between atoms: C_2  and  C_3
REMARK    3  A    between atoms: C_2  and  C_11
REMARK    4  A    between atoms: C_3  and  O_4
REMARK    5  A    between atoms: O_4  and  C_5
REMARK    6  A    between atoms: C_5  and  C_6
REMARK    7  A    between atoms: C_11  and  N_12
REMARK    8  A    between atoms: C_14  and  N_15
REMARK                            x       y       z     vdW  Elec       q    Type
REMARK                         _______ _______ _______ _____ _____    ______ ____
ROOT
ATOM      1  C   UNL     1       5.842   4.995  18.260  0.00  0.00    +0.000 C 
ENDROOT
BRANCH   1   2
ATOM      2  O   UNL     1       6.172   5.089  19.657  0.00  0.00    +0.000 OA
ATOM      3  H   UNL     1       7.133   5.205  19.741  0.00  0.00    +0.000 HD
ENDBRANCH   1   2
BRANCH   1   4
ATOM      4  C   UNL     1       5.074   6.249  17.803  0.00  0.00    +0.000 C 
BRANCH   4   5
ATOM      5  O   UNL     1       3.682   5.992  17.623  0.00  0.00    +0.000 OA
BRANCH   5   6
ATOM      6  C   UNL     1       2.970   6.271  18.835  0.00  0.00    +0.000 C 
BRANCH   6   7
ATOM      7  C   UNL     1       2.210   5.050  19.239  0.00  0.00    +0.000 A 
ATOM      8  C   UNL     1       1.599   4.751  20.441  0.00  0.00    +0.000 A 
ATOM      9  C   UNL     1       0.921   3.499  20.409  0.00  0.00    +0.000 A 
ATOM     10  C   UNL     1       1.031   2.883  19.183  0.00  0.00    +0.000 A 
ATOM     11  S   UNL     1       1.950   3.810  18.081  0.00  0.00    +0.000 S 
ENDBRANCH   6   7
ENDBRANCH   5   6
ENDBRANCH   4   5
ENDBRANCH   1   4
BRANCH   1  12
ATOM     12  C   UNL     1       7.135   4.720  17.481  0.00  0.00    +0.000 C 
BRANCH  12  13
ATOM     13  N   UNL     1       7.014   4.615  16.038  0.00  0.00    +0.000 N 
ATOM     14  C   UNL     1       6.369   3.665  15.299  0.00  0.00    +0.000 A 
ATOM     15  C   UNL     1       6.433   4.085  13.990  0.00  0.00    +0.000 A 
ATOM     16  C   UNL     1       7.248   5.229  14.021  0.00  0.00    +0.000 A 
ATOM     17  N   UNL     1       7.610   5.552  15.267  0.00  0.00    +0.000 NA
BRANCH  15  18
ATOM     18  N   UNL     1       5.812   3.482  12.874  0.00  0.00    +0.000 N 
ATOM     19  C   UNL     1       4.576   3.796  12.349  0.00  0.00    +0.000 A 
ATOM     20  C   UNL     1       4.326   2.973  11.272  0.00  0.00    +0.000 A 
ATOM     21  C   UNL     1       5.432   2.108  11.137  0.00  0.00    +0.000 A 
ATOM     22  C   UNL     1       6.327   2.437  12.129  0.00  0.00    +0.000 A 
ENDBRANCH  15  18
ENDBRANCH  12  13
ENDBRANCH   1  12
TORSDOF 8
ENDMDL
MODEL 2
REMARK VINA RESULT:      -6.4      1.158      1.412
REMARK  Name = 
REMARK  8 active torsions:
REMARK  status: ('A' for Active; 'I' for Inactive)
REMARK    1  A    between atoms: O_1  and  C_2
REMARK    2  A    between atoms: C_2  and  C_3
REMARK    3  A    between atoms: C_2  and  C_11
REMARK    4  A    between atoms: C_3  and  O_4
REMARK    5  A    between atoms: O_4  and  C_5
REMARK    6  A    between atoms: C_5  and  C_6
REMARK    7  A    between atoms: C_11  and  N_12
REMARK    8  A    between atoms: C_14  and  N_15
REMARK                            x       y       z     vdW  Elec       q    Type
REMARK                         _______ _______ _______ _____ _____    ______ ____
ROOT
ATOM      1  C   UNL     1       6.192   6.138  17.711  0.00  0.00    +0.000 C 
ENDROOT
BRANCH   1   2
ATOM      2  O   UNL     1       5.741   6.954  16.616  0.00  0.00    +0.000 OA
ATOM      3  H   UNL     1       4.830   6.696  16.393  0.00  0.00    +0.000 HD
ENDBRANCH   1   2
BRANCH   1   4
ATOM      4  C   UNL     1       4.992   5.594  18.508  0.00  0.00    +0.000 C 
BRANCH   4   5
ATOM      5  O   UNL     1       4.645   4.266  18.119  0.00  0.00    +0.000 OA
BRANCH   5   6
ATOM      6  C   UNL     1       4.613   3.409  19.268  0.00  0.00    +0.000 C 
BRANCH   6   7
ATOM      7  C   UNL     1       3.190   3.175  19.654  0.00  0.00    +0.000 A 
ATOM      8  C   UNL     1       2.599   3.212  20.902  0.00  0.00    +0.000 A 
ATOM      9  C   UNL     1       1.193   2.988  20.845  0.00  0.00    +0.000 A 
ATOM     10  C   UNL     1       0.754   2.791  19.556  0.00  0.00    +0.000 A 
ATOM     11  S   UNL     1       2.031   2.873  18.424  0.00  0.00    +0.000 S 
ENDBRANCH   6   7
ENDBRANCH   5   6
ENDBRANCH   4   5
ENDBRANCH   1   4
BRANCH   1  12
ATOM     12  C   UNL     1       7.126   5.057  17.148  0.00  0.00    +0.000 C 
BRANCH  12  13
ATOM     13  N   UNL     1       7.026   4.790  15.724  0.00  0.00    +0.000 N 
ATOM     14  C   UNL     1       6.310   3.821  15.083  0.00  0.00    +0.000 A 
ATOM     15  C   UNL     1       6.441   4.070  13.737  0.00  0.00    +0.000 A 
ATOM     16  C   UNL     1       7.360   5.130  13.658  0.00  0.00    +0.000 A 
ATOM     17  N   UNL     1       7.725   5.568  14.868  0.00  0.00    +0.000 NA
BRANCH  15  18
ATOM     18  N   UNL     1       5.789   3.396  12.681  0.00  0.00    +0.000 N 
ATOM     19  C   UNL     1       4.539   3.675  12.171  0.00  0.00    +0.000 A 
ATOM     20  C   UNL     1       4.260   2.784  11.157  0.00  0.00    +0.000 A 
ATOM     21  C   UNL     1       5.362   1.911  11.049  0.00  0.00    +0.000 A 
ATOM     22  C   UNL     1       6.285   2.303  11.991  0.00  0.00    +0.000 A 
ENDBRANCH  15  18
ENDBRANCH  12  13
ENDBRANCH   1  12
TORSDOF 8
ENDMDL
MODEL 3
REMARK VINA RESULT:      -6.4      2.992      4.869
REMARK  Name = 
REMARK  8 active torsions:
REMARK  status: ('A' for Active; 'I' for Inactive)
REMARK    1  A    between atoms: O_1  and  C_2
REMARK    2  A    between atoms: C_2  and  C_3
REMARK    3  A    between atoms: C_2  and  C_11
REMARK    4  A    between atoms: C_3  and  O_4
REMARK    5  A    between atoms: O_4  and  C_5
REMARK    6  A    between atoms: C_5  and  C_6
REMARK    7  A    between atoms: C_11  and  N_12
REMARK    8  A    between atoms: C_14  and  N_15
REMARK                            x       y       z     vdW  Elec       q    Type
REMARK                         _______ _______ _______ _____ _____    ______ ____
ROOT
ATOM      1  C   UNL     1       1.058   2.913  20.662  0.00  0.00    +0.000 C 
ENDROOT
BRANCH   1   2
ATOM      2  O   UNL     1       1.816   2.649  21.855  0.00  0.00    +0.000 OA
ATOM      3  H   UNL     1       1.619   3.343  22.507  0.00  0.00    +0.000 HD
ENDBRANCH   1   2
BRANCH   1   4
ATOM      4  C   UNL     1       1.008   4.426  20.380  0.00  0.00    +0.000 C 
BRANCH   4   5
ATOM      5  O   UNL     1       2.066   5.130  21.029  0.00  0.00    +0.000 OA
BRANCH   5   6
ATOM      6  C   UNL     1       2.823   5.877  20.068  0.00  0.00    +0.000 C 
BRANCH   6   7
ATOM      7  C   UNL     1       2.157   7.195  19.850  0.00  0.00    +0.000 A 
ATOM      8  C   UNL     1       1.457   7.985  20.741  0.00  0.00    +0.000 A 
ATOM      9  C   UNL     1       1.022   9.209  20.156  0.00  0.00    +0.000 A 
ATOM     10  C   UNL     1       1.408   9.318  18.840  0.00  0.00    +0.000 A 
ATOM     11  S   UNL     1       2.285   7.950  18.313  0.00  0.00    +0.000 S 
ENDBRANCH   6   7
ENDBRANCH   5   6
ENDBRANCH   4   5
ENDBRANCH   1   4
BRANCH   1  12
ATOM     12  C   UNL     1       1.650   2.071  19.524  0.00  0.00    +0.000 C 
BRANCH  12  13
ATOM     13  N   UNL     1       2.872   2.567  18.917  0.00  0.00    +0.000 N 
ATOM     14  C   UNL     1       3.067   3.051  17.655  0.00  0.00    +0.000 A 
ATOM     15  C   UNL     1       4.362   3.514  17.614  0.00  0.00    +0.000 A 
ATOM     16  C   UNL     1       4.911   3.148  18.854  0.00  0.00    +0.000 A 
ATOM     17  N   UNL     1       4.008   2.564  19.650  0.00  0.00    +0.000 NA
BRANCH  15  18
ATOM     18  N   UNL     1       4.985   4.200  16.548  0.00  0.00    +0.000 N 
ATOM     19  C   UNL     1       5.840   3.663  15.609  0.00  0.00    +0.000 A 
ATOM     20  C   UNL     1       6.242   4.661  14.747  0.00  0.00    +0.000 A 
ATOM     21  C   UNL     1       5.634   5.859  15.178  0.00  0.00    +0.000 A 
ATOM     22  C   UNL     1       4.871   5.553  16.281  0.00  0.00    +0.000 A 
ENDBRANCH  15  18
ENDBRANCH  12  13
ENDBRANCH   1  12
TORSDOF 8
ENDMDL
MODEL 4
REMARK VINA RESULT:      -6.4      0.990      1.117
REMARK  Name = 
REMARK  8 active torsions:
REMARK  status: ('A' for Active; 'I' for Inactive)
REMARK    1  A    between atoms: O_1  and  C_2
REMARK    2  A    between atoms: C_2  and  C_3
REMARK    3  A    between atoms: C_2  and  C_11
REMARK    4  A    between atoms: C_3  and  O_4
REMARK    5  A    between atoms: O_4  and  C_5
REMARK    6  A    between atoms: C_5  and  C_6
REMARK    7  A    between atoms: C_11  and  N_12
REMARK    8  A    between atoms: C_14  and  N_15
REMARK                            x       y       z     vdW  Elec       q    Type
REMARK                         _______ _______ _______ _____ _____    ______ ____
ROOT
ATOM      1  C   UNL     1       5.363   4.540  18.160  0.00  0.00    +0.000 C 
ENDROOT
BRANCH   1   2
ATOM      2  O   UNL     1       5.586   3.957  19.455  0.00  0.00    +0.000 OA
ATOM      3  H   UNL     1       5.633   2.991  19.356  0.00  0.00    +0.000 HD
ENDBRANCH   1   2
BRANCH   1   4
ATOM      4  C   UNL     1       4.529   5.830  18.286  0.00  0.00    +0.000 C 
BRANCH   4   5
ATOM      5  O   UNL     1       3.955   5.974  19.585  0.00  0.00    +0.000 OA
BRANCH   5   6
ATOM      6  C   UNL     1       2.527   6.053  19.485  0.00  0.00    +0.000 C 
BRANCH   6   7
ATOM      7  C   UNL     1       1.956   4.684  19.660  0.00  0.00    +0.000 A 
ATOM      8  C   UNL     1       1.353   3.857  18.733  0.00  0.00    +0.000 A 
ATOM      9  C   UNL     1       0.991   2.595  19.285  0.00  0.00    +0.000 A 
ATOM     10  C   UNL     1       1.333   2.496  20.615  0.00  0.00    +0.000 A 
ATOM     11  S   UNL     1       2.081   3.919  21.192  0.00  0.00    +0.000 S 
ENDBRANCH   6   7
ENDBRANCH   5   6
ENDBRANCH   4   5
ENDBRANCH   1   4
BRANCH   1  12
ATOM     12  C   UNL     1       6.725   4.727  17.478  0.00  0.00    +0.000 C 
BRANCH  12  13
ATOM     13  N   UNL     1       6.758   4.562  16.036  0.00  0.00    +0.000 N 
ATOM     14  C   UNL     1       6.111   3.638  15.265  0.00  0.00    +0.000 A 
ATOM     15  C   UNL     1       6.362   3.984  13.957  0.00  0.00    +0.000 A 
ATOM     16  C   UNL     1       7.274   5.049  14.038  0.00  0.00    +0.000 A 
ATOM     17  N   UNL     1       7.524   5.401  15.304  0.00  0.00    +0.000 NA
BRANCH  15  18
ATOM     18  N   UNL     1       5.815   3.385  12.801  0.00  0.00    +0.000 N 
ATOM     19  C   UNL     1       4.578   3.637  12.247  0.00  0.00    +0.000 A 
ATOM     20  C   UNL     1       4.414   2.842  11.134  0.00  0.00    +0.000 A 
ATOM     21  C   UNL     1       5.578   2.055  11.004  0.00  0.00    +0.000 A 
ATOM     22  C   UNL     1       6.420   2.404  12.035  0.00  0.00    +0.000 A 
ENDBRANCH  15  18
ENDBRANCH  12  13
ENDBRANCH   1  12
TORSDOF 8
ENDMDL
MODEL 5
REMARK VINA RESULT:      -6.4      1.697      2.003
REMARK  Name = 
REMARK  8 active torsions:
REMARK  status: ('A' for Active; 'I' for Inactive)
REMARK    1  A    between atoms: O_1  and  C_2
REMARK    2  A    between atoms: C_2  and  C_3
REMARK    3  A    between atoms: C_2  and  C_11
REMARK    4  A    between atoms: C_3  and  O_4
REMARK    5  A    between atoms: O_4  and  C_5
REMARK    6  A    between atoms: C_5  and  C_6
REMARK    7  A    between atoms: C_11  and  N_12
REMARK    8  A    between atoms: C_14  and  N_15
REMARK                            x       y       z     vdW  Elec       q    Type
REMARK                         _______ _______ _______ _____ _____    ______ ____
ROOT
ATOM      1  C   UNL     1       7.237   5.257  19.198  0.00  0.00    +0.000 C 
ENDROOT
BRANCH   1   2
ATOM      2  O   UNL     1       7.911   5.696  20.390  0.00  0.00    +0.000 OA
ATOM      3  H   UNL     1       7.938   6.668  20.390  0.00  0.00    +0.000 HD
ENDBRANCH   1   2
BRANCH   1   4
ATOM      4  C   UNL     1       5.754   4.964  19.495  0.00  0.00    +0.000 C 
BRANCH   4   5
ATOM      5  O   UNL     1       5.399   3.617  19.185  0.00  0.00    +0.000 OA
BRANCH   5   6
ATOM      6  C   UNL     1       4.249   3.595  18.330  0.00  0.00    +0.000 C 
BRANCH   6   7
ATOM      7  C   UNL     1       3.022   3.508  19.176  0.00  0.00    +0.000 A 
ATOM      8  C   UNL     1       2.603   2.496  20.018  0.00  0.00    +0.000 A 
ATOM      9  C   UNL     1       1.395   2.821  20.699  0.00  0.00    +0.000 A 
ATOM     10  C   UNL     1       0.932   4.072  20.361  0.00  0.00    +0.000 A 
ATOM     11  S   UNL     1       1.947   4.846  19.226  0.00  0.00    +0.000 S 
ENDBRANCH   6   7
ENDBRANCH   5   6
ENDBRANCH   4   5
ENDBRANCH   1   4
BRANCH   1  12
ATOM     12  C   UNL     1       7.472   6.305  18.102  0.00  0.00    +0.000 C 
BRANCH  12  13
ATOM     13  N   UNL     1       6.852   6.048  16.814  0.00  0.00    +0.000 N 
ATOM     14  C   UNL     1       7.265   5.211  15.817  0.00  0.00    +0.000 A 
ATOM     15  C   UNL     1       6.270   5.224  14.867  0.00  0.00    +0.000 A 
ATOM     16  C   UNL     1       5.361   6.197  15.314  0.00  0.00    +0.000 A 
ATOM     17  N   UNL     1       5.715   6.707  16.499  0.00  0.00    +0.000 NA
BRANCH  15  18
ATOM     18  N   UNL     1       6.199   4.430  13.701  0.00  0.00    +0.000 N 
ATOM     19  C   UNL     1       5.119   3.688  13.273  0.00  0.00    +0.000 A 
ATOM     20  C   UNL     1       5.453   3.045  12.101  0.00  0.00    +0.000 A 
ATOM     21  C   UNL     1       6.790   3.381  11.803  0.00  0.00    +0.000 A 
ATOM     22  C   UNL     1       7.226   4.228  12.796  0.00  0.00    +0.000 A 
ENDBRANCH  15  18
ENDBRANCH  12  13
ENDBRANCH   1  12
TORSDOF 8
ENDMDL
MODEL 6
REMARK VINA RESULT:      -6.3      4.910      8.006
REMARK  Name = 
REMARK  8 active torsions:
REMARK  status: ('A' for Active; 'I' for Inactive)
REMARK    1  A    between atoms: O_1  and  C_2
REMARK    2  A    between atoms: C_2  and  C_3
REMARK    3  A    between atoms: C_2  and  C_11
REMARK    4  A    between atoms: C_3  and  O_4
REMARK    5  A    between atoms: O_4  and  C_5
REMARK    6  A    between atoms: C_5  and  C_6
REMARK    7  A    between atoms: C_11  and  N_12
REMARK    8  A    between atoms: C_14  and  N_15
REMARK                            x       y       z     vdW  Elec       q    Type
REMARK                         _______ _______ _______ _____ _____    ______ ____
ROOT
ATOM      1  C   UNL     1       7.369   6.981  17.350  0.00  0.00    +0.000 C 
ENDROOT
BRANCH   1   2
ATOM      2  O   UNL     1       6.019   7.465  17.250  0.00  0.00    +0.000 OA
ATOM      3  H   UNL     1       5.433   6.712  17.066  0.00  0.00    +0.000 HD
ENDBRANCH   1   2
BRANCH   1   4
ATOM      4  C   UNL     1       8.146   7.768  18.423  0.00  0.00    +0.000 C 
BRANCH   4   5
ATOM      5  O   UNL     1       8.382   9.120  18.033  0.00  0.00    +0.000 OA
BRANCH   5   6
ATOM      6  C   UNL     1       9.081   9.817  19.072  0.00  0.00    +0.000 C 
BRANCH   6   7
ATOM      7  C   UNL     1       9.705  11.044  18.494  0.00  0.00    +0.000 A 
ATOM      8  C   UNL     1      11.040  11.356  18.325  0.00  0.00    +0.000 A 
ATOM      9  C   UNL     1      11.226  12.611  17.676  0.00  0.00    +0.000 A 
ATOM     10  C   UNL     1      10.029  13.214  17.365  0.00  0.00    +0.000 A 
ATOM     11  S   UNL     1       8.691  12.274  17.858  0.00  0.00    +0.000 S 
ENDBRANCH   6   7
ENDBRANCH   5   6
ENDBRANCH   4   5
ENDBRANCH   1   4
BRANCH   1  12
ATOM     12  C   UNL     1       7.318   5.465  17.584  0.00  0.00    +0.000 C 
BRANCH  12  13
ATOM     13  N   UNL     1       6.004   4.888  17.810  0.00  0.00    +0.000 N 
ATOM     14  C   UNL     1       5.392   4.591  18.994  0.00  0.00    +0.000 A 
ATOM     15  C   UNL     1       4.115   4.190  18.677  0.00  0.00    +0.000 A 
ATOM     16  C   UNL     1       4.090   4.150  17.273  0.00  0.00    +0.000 A 
ATOM     17  N   UNL     1       5.243   4.569  16.739  0.00  0.00    +0.000 NA
BRANCH  15  18
ATOM     18  N   UNL     1       3.072   3.885  19.580  0.00  0.00    +0.000 N 
ATOM     19  C   UNL     1       3.062   2.873  20.517  0.00  0.00    +0.000 A 
ATOM     20  C   UNL     1       1.860   2.899  21.191  0.00  0.00    +0.000 A 
ATOM     21  C   UNL     1       1.091   3.946  20.640  0.00  0.00    +0.000 A 
ATOM     22  C   UNL     1       1.852   4.534  19.656  0.00  0.00    +0.000 A 
ENDBRANCH  15  18
ENDBRANCH  12  13
ENDBRANCH   1  12
TORSDOF 8
ENDMDL
MODEL 7
REMARK VINA RESULT:      -6.3      1.265      2.025
REMARK  Name = 
REMARK  8 active torsions:
REMARK  status: ('A' for Active; 'I' for Inactive)
REMARK    1  A    between atoms: O_1  and  C_2
REMARK    2  A    between atoms: C_2  and  C_3
REMARK    3  A    between atoms: C_2  and  C_11
REMARK    4  A    between atoms: C_3  and  O_4
REMARK    5  A    between atoms: O_4  and  C_5
REMARK    6  A    between atoms: C_5  and  C_6
REMARK    7  A    between atoms: C_11  and  N_12
REMARK    8  A    between atoms: C_14  and  N_15
REMARK                            x       y       z     vdW  Elec       q    Type
REMARK                         _______ _______ _______ _____ _____    ______ ____
ROOT
ATOM      1  C   UNL     1       5.709   5.541  18.100  0.00  0.00    +0.000 C 
ENDROOT
BRANCH   1   2
ATOM      2  O   UNL     1       5.128   6.423  17.124  0.00  0.00    +0.000 OA
ATOM      3  H   UNL     1       4.956   7.281  17.547  0.00  0.00    +0.000 HD
ENDBRANCH   1   2
BRANCH   1   4
ATOM      4  C   UNL     1       4.648   4.566  18.644  0.00  0.00    +0.000 C 
BRANCH   4   5
ATOM      5  O   UNL     1       5.216   3.576  19.502  0.00  0.00    +0.000 OA
BRANCH   5   6
ATOM      6  C   UNL     1       4.499   2.342  19.371  0.00  0.00    +0.000 C 
BRANCH   6   7
ATOM      7  C   UNL     1       3.040   2.613  19.530  0.00  0.00    +0.000 A 
ATOM      8  C   UNL     1       2.014   2.474  18.616  0.00  0.00    +0.000 A 
ATOM      9  C   UNL     1       0.741   2.783  19.176  0.00  0.00    +0.000 A 
ATOM     10  C   UNL     1       0.834   3.144  20.501  0.00  0.00    +0.000 A 
ATOM     11  S   UNL     1       2.447   3.114  21.062  0.00  0.00    +0.000 S 
ENDBRANCH   6   7
ENDBRANCH   5   6
ENDBRANCH   4   5
ENDBRANCH   1   4
BRANCH   1  12
ATOM     12  C   UNL     1       6.931   4.863  17.464  0.00  0.00    +0.000 C 
BRANCH  12  13
ATOM     13  N   UNL     1       6.893   4.673  16.025  0.00  0.00    +0.000 N 
ATOM     14  C   UNL     1       6.221   3.728  15.303  0.00  0.00    +0.000 A 
ATOM     15  C   UNL     1       6.401   4.055  13.979  0.00  0.00    +0.000 A 
ATOM     16  C   UNL     1       7.300   5.133  13.995  0.00  0.00    +0.000 A 
ATOM     17  N   UNL     1       7.609   5.510  15.241  0.00  0.00    +0.000 NA
BRANCH  15  18
ATOM     18  N   UNL     1       5.805   3.428  12.862  0.00  0.00    +0.000 N 
ATOM     19  C   UNL     1       6.358   2.437  12.079  0.00  0.00    +0.000 A 
ATOM     20  C   UNL     1       5.466   2.102  11.084  0.00  0.00    +0.000 A 
ATOM     21  C   UNL     1       4.332   2.927  11.240  0.00  0.00    +0.000 A 
ATOM     22  C   UNL     1       4.562   3.730  12.333  0.00  0.00    +0.000 A 
ENDBRANCH  15  18
ENDBRANCH  12  13
ENDBRANCH   1  12
TORSDOF 8
ENDMDL
MODEL 8
REMARK VINA RESULT:      -6.2      1.383      1.820
REMARK  Name = 
REMARK  8 active torsions:
REMARK  status: ('A' for Active; 'I' for Inactive)
REMARK    1  A    between atoms: O_1  and  C_2
REMARK    2  A    between atoms: C_2  and  C_3
REMARK    3  A    between atoms: C_2  and  C_11
REMARK    4  A    between atoms: C_3  and  O_4
REMARK    5  A    between atoms: O_4  and  C_5
REMARK    6  A    between atoms: C_5  and  C_6
REMARK    7  A    between atoms: C_11  and  N_12
REMARK    8  A    between atoms: C_14  and  N_15
REMARK                            x       y       z     vdW  Elec       q    Type
REMARK                         _______ _______ _______ _____ _____    ______ ____
ROOT
ATOM      1  C   UNL     1       6.961   4.599  17.856  0.00  0.00    +0.000 C 
ENDROOT
BRANCH   1   2
ATOM      2  O   UNL     1       8.271   4.477  18.435  0.00  0.00    +0.000 OA
ATOM      3  H   UNL     1       8.647   3.619  18.172  0.00  0.00    +0.000 HD
ENDBRANCH   1   2
BRANCH   1   4
ATOM      4  C   UNL     1       5.919   4.923  18.944  0.00  0.00    +0.000 C 
BRANCH   4   5
ATOM      5  O   UNL     1       5.328   3.745  19.491  0.00  0.00    +0.000 OA
BRANCH   5   6
ATOM      6  C   UNL     1       4.261   3.293  18.647  0.00  0.00    +0.000 C 
BRANCH   6   7
ATOM      7  C   UNL     1       2.972   3.429  19.389  0.00  0.00    +0.000 A 
ATOM      8  C   UNL     1       2.205   2.459  20.005  0.00  0.00    +0.000 A 
ATOM      9  C   UNL     1       1.064   3.005  20.660  0.00  0.00    +0.000 A 
ATOM     10  C   UNL     1       0.998   4.373  20.529  0.00  0.00    +0.000 A 
ATOM     11  S   UNL     1       2.302   4.993  19.616  0.00  0.00    +0.000 S 
ENDBRANCH   6   7
ENDBRANCH   5   6
ENDBRANCH   4   5
ENDBRANCH   1   4
BRANCH   1  12
ATOM     12  C   UNL     1       7.035   5.627  16.719  0.00  0.00    +0.000 C 
BRANCH  12  13
ATOM     13  N   UNL     1       6.999   5.102  15.365  0.00  0.00    +0.000 N 
ATOM     14  C   UNL     1       6.174   4.149  14.838  0.00  0.00    +0.000 A 
ATOM     15  C   UNL     1       6.449   4.103  13.491  0.00  0.00    +0.000 A 
ATOM     16  C   UNL     1       7.542   4.968  13.320  0.00  0.00    +0.000 A 
ATOM     17  N   UNL     1       7.885   5.575  14.461  0.00  0.00    +0.000 NA
BRANCH  15  18
ATOM     18  N   UNL     1       5.771   3.344  12.512  0.00  0.00    +0.000 N 
ATOM     19  C   UNL     1       6.227   2.197  11.895  0.00  0.00    +0.000 A 
ATOM     20  C   UNL     1       5.279   1.767  10.994  0.00  0.00    +0.000 A 
ATOM     21  C   UNL     1       4.210   2.686  11.036  0.00  0.00    +0.000 A 
ATOM     22  C   UNL     1       4.534   3.642  11.970  0.00  0.00    +0.000 A 
ENDBRANCH  15  18
ENDBRANCH  12  13
ENDBRANCH   1  12
TORSDOF 8
ENDMDL
MODEL 9
REMARK VINA RESULT:      -6.2      3.590      5.672
REMARK  Name = 
REMARK  8 active torsions:
REMARK  status: ('A' for Active; 'I' for Inactive)
REMARK    1  A    between atoms: O_1  and  C_2
REMARK    2  A    between atoms: C_2  and  C_3
REMARK    3  A    between atoms: C_2  and  C_11
REMARK    4  A    between atoms: C_3  and  O_4
REMARK    5  A    between atoms: O_4  and  C_5
REMARK    6  A    between atoms: C_5  and  C_6
REMARK    7  A    between atoms: C_11  and  N_12
REMARK    8  A    between atoms: C_14  and  N_15
REMARK                            x       y       z     vdW  Elec       q    Type
REMARK                         _______ _______ _______ _____ _____    ______ ____
ROOT
ATOM      1  C   UNL     1       6.684   6.447  17.272  0.00  0.00    +0.000 C 
ENDROOT
BRANCH   1   2
ATOM      2  O   UNL     1       7.833   6.913  16.543  0.00  0.00    +0.000 OA
ATOM      3  H   UNL     1       7.846   6.478  15.674  0.00  0.00    +0.000 HD
ENDBRANCH   1   2
BRANCH   1   4
ATOM      4  C   UNL     1       5.386   6.875  16.562  0.00  0.00    +0.000 C 
BRANCH   4   5
ATOM      5  O   UNL     1       4.510   7.594  17.430  0.00  0.00    +0.000 OA
BRANCH   5   6
ATOM      6  C   UNL     1       3.289   6.866  17.610  0.00  0.00    +0.000 C 
BRANCH   6   7
ATOM      7  C   UNL     1       2.470   7.549  18.655  0.00  0.00    +0.000 A 
ATOM      8  C   UNL     1       2.211   7.170  19.957  0.00  0.00    +0.000 A 
ATOM      9  C   UNL     1       1.426   8.131  20.657  0.00  0.00    +0.000 A 
ATOM     10  C   UNL     1       1.114   9.215  19.869  0.00  0.00    +0.000 A 
ATOM     11  S   UNL     1       1.762   9.071  18.295  0.00  0.00    +0.000 S 
ENDBRANCH   6   7
ENDBRANCH   5   6
ENDBRANCH   4   5
ENDBRANCH   1   4
BRANCH   1  12
ATOM     12  C   UNL     1       6.830   4.933  17.474  0.00  0.00    +0.000 C 
BRANCH  12  13
ATOM     13  N   UNL     1       5.629   4.210  17.854  0.00  0.00    +0.000 N 
ATOM     14  C   UNL     1       5.018   4.146  19.074  0.00  0.00    +0.000 A 
ATOM     15  C   UNL     1       3.849   3.446  18.883  0.00  0.00    +0.000 A 
ATOM     16  C   UNL     1       3.903   3.015  17.547  0.00  0.00    +0.000 A 
ATOM     17  N   UNL     1       4.991   3.474  16.917  0.00  0.00    +0.000 NA
BRANCH  15  18
ATOM     18  N   UNL     1       2.831   3.217  19.836  0.00  0.00    +0.000 N 
ATOM     19  C   UNL     1       2.983   2.661  21.089  0.00  0.00    +0.000 A 
ATOM     20  C   UNL     1       1.752   2.598  21.703  0.00  0.00    +0.000 A 
ATOM     21  C   UNL     1       0.802   3.112  20.796  0.00  0.00    +0.000 A 
ATOM     22  C   UNL     1       1.485   3.483  19.661  0.00  0.00    +0.000 A 
ENDBRANCH  15  18
ENDBRANCH  12  13
ENDBRANCH   1  12
TORSDOF 8
ENDMDL
