MODEL 1
REMARK VINA RESULT:      -9.0      0.000      0.000
REMARK  Name = 
REMARK  4 active torsions:
REMARK  status: ('A' for Active; 'I' for Inactive)
REMARK    1  A    between atoms: C_6  and  C_8
REMARK    2  A    between atoms: C_11  and  O_12
REMARK    3  A    between atoms: N_17  and  C_18
REMARK    4  A    between atoms: C_20  and  C_21
REMARK                            x       y       z     vdW  Elec       q    Type
REMARK                         _______ _______ _______ _____ _____    ______ ____
ROOT
ATOM      1  O   UNL     1       2.687   2.498  20.616  0.00  0.00    +0.000 OA
ATOM      2  C   UNL     1       1.895   2.846  19.748  0.00  0.00    +0.000 C 
ATOM      3  C   UNL     1       0.763   3.808  20.015  0.00  0.00    +0.000 C 
ATOM      4  C   UNL     1       1.281   5.003  20.814  0.00  0.00    +0.000 C 
ATOM      5  N   UNL     1       1.854   6.126  20.018  0.00  0.00    +0.000 N 
ATOM      6  C   UNL     1       1.389   7.394  20.371  0.00  0.00    +0.000 C 
ATOM      7  O   UNL     1       0.475   7.502  21.193  0.00  0.00    +0.000 OA
ATOM      8  C   UNL     1       3.136   5.858  19.326  0.00  0.00    +0.000 C 
ATOM      9  C   UNL     1       3.013   5.338  17.869  0.00  0.00    +0.000 C 
ATOM     10  N   UNL     1       4.139   4.426  17.568  0.00  0.00    +0.000 N 
ATOM     11  C   UNL     1       3.815   3.156  16.879  0.00  0.00    +0.000 C 
ATOM     12  C   UNL     1       3.272   2.085  17.865  0.00  0.00    +0.000 C 
ATOM     13  N   UNL     1       1.987   2.455  18.431  0.00  0.00    +0.000 N 
ATOM     14  H   UNL     1       1.236   2.688  17.792  0.00  0.00    +0.000 HD
ENDROOT
BRANCH  10  15
ATOM     15  C   UNL     1       5.295   5.084  17.087  0.00  0.00    +0.000 A 
ATOM     16  N   UNL     1       6.090   5.734  17.960  0.00  0.00    +0.000 NA
ATOM     17  C   UNL     1       7.260   6.242  17.510  0.00  0.00    +0.000 A 
ATOM     18  N   UNL     1       7.689   6.130  16.238  0.00  0.00    +0.000 NA
ATOM     19  C   UNL     1       6.915   5.463  15.385  0.00  0.00    +0.000 A 
ATOM     20  C   UNL     1       7.411   5.244  14.102  0.00  0.00    +0.000 A 
ATOM     21  C   UNL     1       6.700   4.496  13.160  0.00  0.00    +0.000 A 
ATOM     22  C   UNL     1       5.452   3.992  13.498  0.00  0.00    +0.000 A 
ATOM     23 CL   UNL     1       4.570   3.061  12.354  0.00  0.00    +0.000 Cl
ATOM     24  C   UNL     1       4.930   4.210  14.766  0.00  0.00    +0.000 A 
ATOM     25  C   UNL     1       5.671   4.927  15.737  0.00  0.00    +0.000 A 
BRANCH  17  26
ATOM     26  C   UNL     1       8.226   6.880  18.499  0.00  0.00    +0.000 C 
ATOM     27  F   UNL     1       8.205   8.245  18.502  0.00  0.00    +0.000 F 
ATOM     28  F   UNL     1       7.999   6.499  19.792  0.00  0.00    +0.000 F 
ENDBRANCH  17  26
ENDBRANCH  10  15
BRANCH   6  29
ATOM     29  C   UNL     1       2.017   8.689  19.797  0.00  0.00    +0.000 C 
ATOM     30  C   UNL     1       1.275   9.927  20.361  0.00  0.00    +0.000 C 
ATOM     31  C   UNL     1      -0.148  10.062  19.805  0.00  0.00    +0.000 C 
ATOM     32  C   UNL     1      -0.178  10.068  18.280  0.00  0.00    +0.000 C 
ATOM     33  C   UNL     1       0.637   8.928  17.667  0.00  0.00    +0.000 C 
ATOM     34  C   UNL     1       2.033   8.819  18.274  0.00  0.00    +0.000 C 
BRANCH  32  35
ATOM     35  O   UNL     1      -1.519   9.989  17.812  0.00  0.00    +0.000 OA
ATOM     36  H   UNL     1      -1.793   9.054  17.825  0.00  0.00    +0.000 HD
ENDBRANCH  32  35
ENDBRANCH   6  29
TORSDOF 4
ENDMDL
MODEL 2
REMARK VINA RESULT:      -7.9      8.069     11.907
REMARK  Name = 
REMARK  4 active torsions:
REMARK  status: ('A' for Active; 'I' for Inactive)
REMARK    1  A    between atoms: C_6  and  C_8
REMARK    2  A    between atoms: C_11  and  O_12
REMARK    3  A    between atoms: N_17  and  C_18
REMARK    4  A    between atoms: C_20  and  C_21
REMARK                            x       y       z     vdW  Elec       q    Type
REMARK                         _______ _______ _______ _____ _____    ______ ____
ROOT
ATOM      1  O   UNL     1      -0.965  10.404  19.155  0.00  0.00    +0.000 OA
ATOM      2  C   UNL     1       0.103  10.554  19.737  0.00  0.00    +0.000 C 
ATOM      3  C   UNL     1       1.274  11.278  19.117  0.00  0.00    +0.000 C 
ATOM      4  C   UNL     1       0.795  12.579  18.477  0.00  0.00    +0.000 C 
ATOM      5  N   UNL     1       0.725  13.766  19.377  0.00  0.00    +0.000 N 
ATOM      6  C   UNL     1       1.311  14.926  18.866  0.00  0.00    +0.000 C 
ATOM      7  O   UNL     1       1.940  14.876  17.806  0.00  0.00    +0.000 OA
ATOM      8  C   UNL     1      -0.318  13.738  20.428  0.00  0.00    +0.000 C 
ATOM      9  C   UNL     1       0.127  13.153  21.796  0.00  0.00    +0.000 C 
ATOM     10  N   UNL     1      -1.018  12.476  22.445  0.00  0.00    +0.000 N 
ATOM     11  C   UNL     1      -0.768  11.144  23.040  0.00  0.00    +0.000 C 
ATOM     12  C   UNL     1      -0.773  10.020  21.966  0.00  0.00    +0.000 C 
ATOM     13  N   UNL     1       0.332  10.144  21.031  0.00  0.00    +0.000 N 
ATOM     14  H   UNL     1       1.270  10.198  21.409  0.00  0.00    +0.000 HD
ENDROOT
BRANCH  10  15
ATOM     15  C   UNL     1      -1.820  13.336  23.231  0.00  0.00    +0.000 A 
ATOM     16  N   UNL     1      -1.225  14.166  24.111  0.00  0.00    +0.000 NA
ATOM     17  C   UNL     1      -1.991  15.075  24.757  0.00  0.00    +0.000 A 
ATOM     18  N   UNL     1      -3.317  15.212  24.567  0.00  0.00    +0.000 NA
ATOM     19  C   UNL     1      -3.896  14.411  23.676  0.00  0.00    +0.000 A 
ATOM     20  C   UNL     1      -5.242  14.631  23.392  0.00  0.00    +0.000 A 
ATOM     21  C   UNL     1      -5.918  13.885  22.423  0.00  0.00    +0.000 A 
ATOM     22  C   UNL     1      -5.242  12.874  21.754  0.00  0.00    +0.000 A 
ATOM     23 CL   UNL     1      -6.055  11.955  20.550  0.00  0.00    +0.000 Cl
ATOM     24  C   UNL     1      -3.903  12.627  22.030  0.00  0.00    +0.000 A 
ATOM     25  C   UNL     1      -3.206  13.414  22.978  0.00  0.00    +0.000 A 
BRANCH  17  26
ATOM     26  C   UNL     1      -1.325  16.097  25.669  0.00  0.00    +0.000 C 
ATOM     27  F   UNL     1      -2.151  17.103  26.081  0.00  0.00    +0.000 F 
ATOM     28  F   UNL     1      -0.813  15.543  26.809  0.00  0.00    +0.000 F 
ENDBRANCH  17  26
ENDBRANCH  10  15
BRANCH   6  29
ATOM     29  C   UNL     1       1.159  16.299  19.567  0.00  0.00    +0.000 C 
ATOM     30  C   UNL     1      -0.302  16.799  19.432  0.00  0.00    +0.000 C 
ATOM     31  C   UNL     1      -0.654  17.203  17.995  0.00  0.00    +0.000 C 
ATOM     32  C   UNL     1       0.319  18.230  17.426  0.00  0.00    +0.000 C 
ATOM     33  C   UNL     1       1.783  17.840  17.634  0.00  0.00    +0.000 C 
ATOM     34  C   UNL     1       2.074  17.420  19.072  0.00  0.00    +0.000 C 
BRANCH  32  35
ATOM     35  O   UNL     1       0.079  18.421  16.036  0.00  0.00    +0.000 OA
ATOM     36  H   UNL     1       0.840  18.895  15.657  0.00  0.00    +0.000 HD
ENDBRANCH  32  35
ENDBRANCH   6  29
TORSDOF 4
ENDMDL
MODEL 3
REMARK VINA RESULT:      -7.7      7.930     12.431
REMARK  Name = 
REMARK  4 active torsions:
REMARK  status: ('A' for Active; 'I' for Inactive)
REMARK    1  A    between atoms: C_6  and  C_8
REMARK    2  A    between atoms: C_11  and  O_12
REMARK    3  A    between atoms: N_17  and  C_18
REMARK    4  A    between atoms: C_20  and  C_21
REMARK                            x       y       z     vdW  Elec       q    Type
REMARK                         _______ _______ _______ _____ _____    ______ ____
ROOT
ATOM      1  O   UNL     1      -0.914  16.233  22.960  0.00  0.00    +0.000 OA
ATOM      2  C   UNL     1      -0.830  16.102  21.745  0.00  0.00    +0.000 C 
ATOM      3  C   UNL     1       0.301  15.355  21.081  0.00  0.00    +0.000 C 
ATOM      4  C   UNL     1       0.537  14.030  21.805  0.00  0.00    +0.000 C 
ATOM      5  N   UNL     1      -0.296  12.879  21.354  0.00  0.00    +0.000 N 
ATOM      6  C   UNL     1       0.413  11.699  21.115  0.00  0.00    +0.000 C 
ATOM      7  O   UNL     1       1.646  11.708  21.160  0.00  0.00    +0.000 OA
ATOM      8  C   UNL     1      -1.742  12.948  21.663  0.00  0.00    +0.000 C 
ATOM      9  C   UNL     1      -2.632  13.584  20.562  0.00  0.00    +0.000 C 
ATOM     10  N   UNL     1      -3.775  14.286  21.187  0.00  0.00    +0.000 N 
ATOM     11  C   UNL     1      -4.096  15.640  20.680  0.00  0.00    +0.000 C 
ATOM     12  C   UNL     1      -3.160  16.722  21.287  0.00  0.00    +0.000 C 
ATOM     13  N   UNL     1      -1.781  16.561  20.861  0.00  0.00    +0.000 N 
ATOM     14  H   UNL     1      -1.593  16.520  19.867  0.00  0.00    +0.000 HD
ENDROOT
BRANCH  10  15
ATOM     15  C   UNL     1      -4.897  13.457  21.420  0.00  0.00    +0.000 A 
ATOM     16  N   UNL     1      -5.647  13.663  22.520  0.00  0.00    +0.000 NA
ATOM     17  C   UNL     1      -6.792  12.955  22.660  0.00  0.00    +0.000 A 
ATOM     18  N   UNL     1      -7.237  12.058  21.760  0.00  0.00    +0.000 NA
ATOM     19  C   UNL     1      -6.508  11.878  20.660  0.00  0.00    +0.000 A 
ATOM     20  C   UNL     1      -7.026  11.042  19.674  0.00  0.00    +0.000 A 
ATOM     21  C   UNL     1      -6.366  10.845  18.459  0.00  0.00    +0.000 A 
ATOM     22  C   UNL     1      -5.145  11.468  18.244  0.00  0.00    +0.000 A 
ATOM     23 CL   UNL     1      -4.325  11.246  16.749  0.00  0.00    +0.000 Cl
ATOM     24  C   UNL     1      -4.601  12.296  19.218  0.00  0.00    +0.000 A 
ATOM     25  C   UNL     1      -5.293  12.532  20.430  0.00  0.00    +0.000 A 
BRANCH  17  26
ATOM     26  C   UNL     1      -7.712  13.251  23.837  0.00  0.00    +0.000 C 
ATOM     27  F   UNL     1      -7.271  12.760  25.032  0.00  0.00    +0.000 F 
ATOM     28  F   UNL     1      -7.916  14.588  24.034  0.00  0.00    +0.000 F 
ENDBRANCH  17  26
ENDBRANCH  10  15
BRANCH   6  29
ATOM     29  C   UNL     1      -0.303  10.353  20.838  0.00  0.00    +0.000 C 
ATOM     30  C   UNL     1       0.730   9.197  20.850  0.00  0.00    +0.000 C 
ATOM     31  C   UNL     1       1.674   9.241  19.642  0.00  0.00    +0.000 C 
ATOM     32  C   UNL     1       0.920   9.273  18.317  0.00  0.00    +0.000 C 
ATOM     33  C   UNL     1      -0.191  10.323  18.291  0.00  0.00    +0.000 C 
ATOM     34  C   UNL     1      -1.084  10.256  19.527  0.00  0.00    +0.000 C 
BRANCH  32  35
ATOM     35  O   UNL     1       1.821   9.517  17.243  0.00  0.00    +0.000 OA
ATOM     36  H   UNL     1       1.309   9.855  16.486  0.00  0.00    +0.000 HD
ENDBRANCH  32  35
ENDBRANCH   6  29
TORSDOF 4
ENDMDL
MODEL 4
REMARK VINA RESULT:      -7.7      8.968     11.877
REMARK  Name = 
REMARK  4 active torsions:
REMARK  status: ('A' for Active; 'I' for Inactive)
REMARK    1  A    between atoms: C_6  and  C_8
REMARK    2  A    between atoms: C_11  and  O_12
REMARK    3  A    between atoms: N_17  and  C_18
REMARK    4  A    between atoms: C_20  and  C_21
REMARK                            x       y       z     vdW  Elec       q    Type
REMARK                         _______ _______ _______ _____ _____    ______ ____
ROOT
ATOM      1  O   UNL     1      -4.313  17.174  23.272  0.00  0.00    +0.000 OA
ATOM      2  C   UNL     1      -4.716  16.309  24.041  0.00  0.00    +0.000 C 
ATOM      3  C   UNL     1      -6.079  15.674  23.912  0.00  0.00    +0.000 C 
ATOM      4  C   UNL     1      -6.332  15.291  22.455  0.00  0.00    +0.000 C 
ATOM      5  N   UNL     1      -5.829  13.954  22.031  0.00  0.00    +0.000 N 
ATOM      6  C   UNL     1      -6.750  13.175  21.327  0.00  0.00    +0.000 C 
ATOM      7  O   UNL     1      -7.916  13.562  21.214  0.00  0.00    +0.000 OA
ATOM      8  C   UNL     1      -4.358  13.793  21.961  0.00  0.00    +0.000 C 
ATOM      9  C   UNL     1      -3.682  13.260  23.253  0.00  0.00    +0.000 C 
ATOM     10  N   UNL     1      -2.324  13.835  23.379  0.00  0.00    +0.000 N 
ATOM     11  C   UNL     1      -1.931  14.356  24.707  0.00  0.00    +0.000 C 
ATOM     12  C   UNL     1      -2.505  15.778  24.964  0.00  0.00    +0.000 C 
ATOM     13  N   UNL     1      -3.955  15.779  25.058  0.00  0.00    +0.000 N 
ATOM     14  H   UNL     1      -4.388  15.151  25.725  0.00  0.00    +0.000 HD
ENDROOT
BRANCH  10  15
ATOM     15  C   UNL     1      -1.323  13.089  22.713  0.00  0.00    +0.000 A 
ATOM     16  N   UNL     1      -1.047  11.839  23.135  0.00  0.00    +0.000 NA
ATOM     17  C   UNL     1      -0.186  11.090  22.408  0.00  0.00    +0.000 A 
ATOM     18  N   UNL     1       0.409  11.513  21.277  0.00  0.00    +0.000 NA
ATOM     19  C   UNL     1       0.112  12.738  20.847  0.00  0.00    +0.000 A 
ATOM     20  C   UNL     1       0.632  13.133  19.617  0.00  0.00    +0.000 A 
ATOM     21  C   UNL     1       0.321  14.373  19.054  0.00  0.00    +0.000 A 
ATOM     22  C   UNL     1      -0.495  15.249  19.755  0.00  0.00    +0.000 A 
ATOM     23 CL   UNL     1      -0.897  16.774  19.071  0.00  0.00    +0.000 Cl
ATOM     24  C   UNL     1      -1.014  14.883  20.990  0.00  0.00    +0.000 A 
ATOM     25  C   UNL     1      -0.738  13.608  21.539  0.00  0.00    +0.000 A 
BRANCH  17  26
ATOM     26  C   UNL     1       0.053   9.638  22.799  0.00  0.00    +0.000 C 
ATOM     27  F   UNL     1       0.128   9.426  24.146  0.00  0.00    +0.000 F 
ATOM     28  F   UNL     1      -0.918   8.792  22.340  0.00  0.00    +0.000 F 
ENDBRANCH  17  26
ENDBRANCH  10  15
BRANCH   6  29
ATOM     29  C   UNL     1      -6.346  11.849  20.636  0.00  0.00    +0.000 C 
ATOM     30  C   UNL     1      -5.014  12.042  19.866  0.00  0.00    +0.000 C 
ATOM     31  C   UNL     1      -5.174  12.938  18.632  0.00  0.00    +0.000 C 
ATOM     32  C   UNL     1      -6.269  12.442  17.693  0.00  0.00    +0.000 C 
ATOM     33  C   UNL     1      -7.576  12.125  18.420  0.00  0.00    +0.000 C 
ATOM     34  C   UNL     1      -7.359  11.256  19.656  0.00  0.00    +0.000 C 
BRANCH  32  35
ATOM     35  O   UNL     1      -6.520  13.405  16.676  0.00  0.00    +0.000 OA
ATOM     36  H   UNL     1      -7.460  13.347  16.426  0.00  0.00    +0.000 HD
ENDBRANCH  32  35
ENDBRANCH   6  29
TORSDOF 4
ENDMDL
MODEL 5
REMARK VINA RESULT:      -7.7     10.001     13.406
REMARK  Name = 
REMARK  4 active torsions:
REMARK  status: ('A' for Active; 'I' for Inactive)
REMARK    1  A    between atoms: C_6  and  C_8
REMARK    2  A    between atoms: C_11  and  O_12
REMARK    3  A    between atoms: N_17  and  C_18
REMARK    4  A    between atoms: C_20  and  C_21
REMARK                            x       y       z     vdW  Elec       q    Type
REMARK                         _______ _______ _______ _____ _____    ______ ____
ROOT
ATOM      1  O   UNL     1      -5.985  11.939  24.072  0.00  0.00    +0.000 OA
ATOM      2  C   UNL     1      -5.425  12.986  24.375  0.00  0.00    +0.000 C 
ATOM      3  C   UNL     1      -3.942  13.067  24.646  0.00  0.00    +0.000 C 
ATOM      4  C   UNL     1      -3.177  12.316  23.558  0.00  0.00    +0.000 C 
ATOM      5  N   UNL     1      -2.848  13.094  22.329  0.00  0.00    +0.000 N 
ATOM      6  C   UNL     1      -1.523  12.987  21.903  0.00  0.00    +0.000 C 
ATOM      7  O   UNL     1      -0.703  12.390  22.606  0.00  0.00    +0.000 OA
ATOM      8  C   UNL     1      -3.987  13.471  21.461  0.00  0.00    +0.000 C 
ATOM      9  C   UNL     1      -4.623  14.856  21.757  0.00  0.00    +0.000 C 
ATOM     10  N   UNL     1      -6.071  14.814  21.455  0.00  0.00    +0.000 N 
ATOM     11  C   UNL     1      -6.988  15.411  22.454  0.00  0.00    +0.000 C 
ATOM     12  C   UNL     1      -7.256  14.446  23.643  0.00  0.00    +0.000 C 
ATOM     13  N   UNL     1      -6.064  14.204  24.436  0.00  0.00    +0.000 N 
ATOM     14  H   UNL     1      -5.565  15.006  24.802  0.00  0.00    +0.000 HD
ENDROOT
BRANCH  10  15
ATOM     15  C   UNL     1      -6.384  15.114  20.109  0.00  0.00    +0.000 A 
ATOM     16  N   UNL     1      -6.286  16.387  19.680  0.00  0.00    +0.000 NA
ATOM     17  C   UNL     1      -6.457  16.637  18.361  0.00  0.00    +0.000 A 
ATOM     18  N   UNL     1      -6.710  15.687  17.442  0.00  0.00    +0.000 NA
ATOM     19  C   UNL     1      -6.778  14.426  17.864  0.00  0.00    +0.000 A 
ATOM     20  C   UNL     1      -6.920  13.431  16.900  0.00  0.00    +0.000 A 
ATOM     21  C   UNL     1      -6.933  12.076  17.242  0.00  0.00    +0.000 A 
ATOM     22  C   UNL     1      -6.840  11.714  18.578  0.00  0.00    +0.000 A 
ATOM     23 CL   UNL     1      -6.842  10.052  19.015  0.00  0.00    +0.000 Cl
ATOM     24  C   UNL     1      -6.711  12.689  19.559  0.00  0.00    +0.000 A 
ATOM     25  C   UNL     1      -6.651  14.060  19.209  0.00  0.00    +0.000 A 
BRANCH  17  26
ATOM     26  C   UNL     1      -6.239  18.050  17.836  0.00  0.00    +0.000 C 
ATOM     27  F   UNL     1      -4.984  18.542  18.055  0.00  0.00    +0.000 F 
ATOM     28  F   UNL     1      -6.454  18.160  16.490  0.00  0.00    +0.000 F 
ENDBRANCH  17  26
ENDBRANCH  10  15
BRANCH   6  29
ATOM     29  C   UNL     1      -1.048  13.558  20.544  0.00  0.00    +0.000 C 
ATOM     30  C   UNL     1      -0.025  12.591  19.896  0.00  0.00    +0.000 C 
ATOM     31  C   UNL     1       1.313  12.565  20.646  0.00  0.00    +0.000 C 
ATOM     32  C   UNL     1       1.916  13.956  20.805  0.00  0.00    +0.000 C 
ATOM     33  C   UNL     1       0.913  14.981  21.335  0.00  0.00    +0.000 C 
ATOM     34  C   UNL     1      -0.410  14.947  20.575  0.00  0.00    +0.000 C 
BRANCH  32  35
ATOM     35  O   UNL     1       3.042  13.910  21.675  0.00  0.00    +0.000 OA
ATOM     36  H   UNL     1       3.764  14.420  21.267  0.00  0.00    +0.000 HD
ENDBRANCH  32  35
ENDBRANCH   6  29
TORSDOF 4
ENDMDL
MODEL 6
REMARK VINA RESULT:      -7.7      7.747     11.589
REMARK  Name = 
REMARK  4 active torsions:
REMARK  status: ('A' for Active; 'I' for Inactive)
REMARK    1  A    between atoms: C_6  and  C_8
REMARK    2  A    between atoms: C_11  and  O_12
REMARK    3  A    between atoms: N_17  and  C_18
REMARK    4  A    between atoms: C_20  and  C_21
REMARK                            x       y       z     vdW  Elec       q    Type
REMARK                         _______ _______ _______ _____ _____    ______ ____
ROOT
ATOM      1  O   UNL     1      -0.101  10.369  18.448  0.00  0.00    +0.000 OA
ATOM      2  C   UNL     1       0.777  10.636  19.261  0.00  0.00    +0.000 C 
ATOM      3  C   UNL     1       1.911  11.583  18.954  0.00  0.00    +0.000 C 
ATOM      4  C   UNL     1       1.363  12.843  18.287  0.00  0.00    +0.000 C 
ATOM      5  N   UNL     1       0.901  13.924  19.205  0.00  0.00    +0.000 N 
ATOM      6  C   UNL     1       1.374  15.201  18.895  0.00  0.00    +0.000 C 
ATOM      7  O   UNL     1       2.213  15.340  18.001  0.00  0.00    +0.000 OA
ATOM      8  C   UNL     1      -0.320  13.643  19.994  0.00  0.00    +0.000 C 
ATOM      9  C   UNL     1      -0.083  13.021  21.396  0.00  0.00    +0.000 C 
ATOM     10  N   UNL     1      -1.206  12.121  21.739  0.00  0.00    +0.000 N 
ATOM     11  C   UNL     1      -0.863  10.799  22.310  0.00  0.00    +0.000 C 
ATOM     12  C   UNL     1      -0.448   9.783  21.209  0.00  0.00    +0.000 C 
ATOM     13  N   UNL     1       0.793  10.158  20.552  0.00  0.00    +0.000 N 
ATOM     14  H   UNL     1       1.606  10.326  21.132  0.00  0.00    +0.000 HD
ENDROOT
BRANCH  10  15
ATOM     15  C   UNL     1      -2.292  12.775  22.367  0.00  0.00    +0.000 A 
ATOM     16  N   UNL     1      -2.093  13.389  23.550  0.00  0.00    +0.000 NA
ATOM     17  C   UNL     1      -3.103  14.123  24.071  0.00  0.00    +0.000 A 
ATOM     18  N   UNL     1      -4.298  14.289  23.475  0.00  0.00    +0.000 NA
ATOM     19  C   UNL     1      -4.482  13.705  22.293  0.00  0.00    +0.000 A 
ATOM     20  C   UNL     1      -5.672  13.972  21.620  0.00  0.00    +0.000 A 
ATOM     21  C   UNL     1      -5.924  13.459  20.345  0.00  0.00    +0.000 A 
ATOM     22  C   UNL     1      -4.982  12.631  19.750  0.00  0.00    +0.000 A 
ATOM     23 CL   UNL     1      -5.272  12.001  18.178  0.00  0.00    +0.000 Cl
ATOM     24  C   UNL     1      -3.794  12.339  20.408  0.00  0.00    +0.000 A 
ATOM     25  C   UNL     1      -3.518  12.897  21.680  0.00  0.00    +0.000 A 
BRANCH  17  26
ATOM     26  C   UNL     1      -2.865  14.918  25.349  0.00  0.00    +0.000 C 
ATOM     27  F   UNL     1      -1.560  15.257  25.563  0.00  0.00    +0.000 F 
ATOM     28  F   UNL     1      -3.568  16.090  25.390  0.00  0.00    +0.000 F 
ENDBRANCH  17  26
ENDBRANCH  10  15
BRANCH   6  29
ATOM     29  C   UNL     1       0.844  16.469  19.609  0.00  0.00    +0.000 C 
ATOM     30  C   UNL     1      -0.636  16.712  19.217  0.00  0.00    +0.000 C 
ATOM     31  C   UNL     1      -0.791  17.155  17.757  0.00  0.00    +0.000 C 
ATOM     32  C   UNL     1       0.059  18.378  17.428  0.00  0.00    +0.000 C 
ATOM     33  C   UNL     1       1.507  18.237  17.897  0.00  0.00    +0.000 C 
ATOM     34  C   UNL     1       1.607  17.767  19.346  0.00  0.00    +0.000 C 
BRANCH  32  35
ATOM     35  O   UNL     1       0.042  18.627  16.027  0.00  0.00    +0.000 OA
ATOM     36  H   UNL     1      -0.206  17.802  15.573  0.00  0.00    +0.000 HD
ENDBRANCH  32  35
ENDBRANCH   6  29
TORSDOF 4
ENDMDL
MODEL 7
REMARK VINA RESULT:      -7.6      8.434     12.867
REMARK  Name = 
REMARK  4 active torsions:
REMARK  status: ('A' for Active; 'I' for Inactive)
REMARK    1  A    between atoms: C_6  and  C_8
REMARK    2  A    between atoms: C_11  and  O_12
REMARK    3  A    between atoms: N_17  and  C_18
REMARK    4  A    between atoms: C_20  and  C_21
REMARK                            x       y       z     vdW  Elec       q    Type
REMARK                         _______ _______ _______ _____ _____    ______ ____
ROOT
ATOM      1  O   UNL     1      -6.034  12.936  16.889  0.00  0.00    +0.000 OA
ATOM      2  C   UNL     1      -6.110  11.936  17.594  0.00  0.00    +0.000 C 
ATOM      3  C   UNL     1      -5.176  10.760  17.444  0.00  0.00    +0.000 C 
ATOM      4  C   UNL     1      -3.737  11.257  17.329  0.00  0.00    +0.000 C 
ATOM      5  N   UNL     1      -3.015  11.481  18.614  0.00  0.00    +0.000 N 
ATOM      6  C   UNL     1      -1.736  10.923  18.675  0.00  0.00    +0.000 C 
ATOM      7  O   UNL     1      -1.342  10.198  17.757  0.00  0.00    +0.000 OA
ATOM      8  C   UNL     1      -3.484  12.611  19.448  0.00  0.00    +0.000 C 
ATOM      9  C   UNL     1      -4.562  12.257  20.508  0.00  0.00    +0.000 C 
ATOM     10  N   UNL     1      -5.465  13.413  20.706  0.00  0.00    +0.000 N 
ATOM     11  C   UNL     1      -6.919  13.137  20.743  0.00  0.00    +0.000 C 
ATOM     12  C   UNL     1      -7.514  12.977  19.316  0.00  0.00    +0.000 C 
ATOM     13  N   UNL     1      -7.003  11.802  18.633  0.00  0.00    +0.000 N 
ATOM     14  H   UNL     1      -7.088  10.907  19.100  0.00  0.00    +0.000 HD
ENDROOT
BRANCH  10  15
ATOM     15  C   UNL     1      -5.010  14.334  21.679  0.00  0.00    +0.000 A 
ATOM     16  N   UNL     1      -4.455  13.868  22.815  0.00  0.00    +0.000 NA
ATOM     17  C   UNL     1      -3.903  14.756  23.673  0.00  0.00    +0.000 A 
ATOM     18  N   UNL     1      -3.864  16.085  23.458  0.00  0.00    +0.000 NA
ATOM     19  C   UNL     1      -4.388  16.539  22.322  0.00  0.00    +0.000 A 
ATOM     20  C   UNL     1      -4.243  17.897  22.044  0.00  0.00    +0.000 A 
ATOM     21  C   UNL     1      -4.699  18.452  20.846  0.00  0.00    +0.000 A 
ATOM     22  C   UNL     1      -5.348  17.639  19.927  0.00  0.00    +0.000 A 
ATOM     23 CL   UNL     1      -5.906  18.304  18.444  0.00  0.00    +0.000 Cl
ATOM     24  C   UNL     1      -5.518  16.285  20.189  0.00  0.00    +0.000 A 
ATOM     25  C   UNL     1      -5.013  15.713  21.382  0.00  0.00    +0.000 A 
BRANCH  17  26
ATOM     26  C   UNL     1      -3.170  14.245  24.906  0.00  0.00    +0.000 C 
ATOM     27  F   UNL     1      -3.007  15.179  25.889  0.00  0.00    +0.000 F 
ATOM     28  F   UNL     1      -3.795  13.183  25.499  0.00  0.00    +0.000 F 
ENDBRANCH  17  26
ENDBRANCH  10  15
BRANCH   6  29
ATOM     29  C   UNL     1      -0.765  11.221  19.844  0.00  0.00    +0.000 C 
ATOM     30  C   UNL     1      -0.278  12.690  19.762  0.00  0.00    +0.000 C 
ATOM     31  C   UNL     1       0.664  12.931  18.576  0.00  0.00    +0.000 C 
ATOM     32  C   UNL     1       1.850  11.972  18.574  0.00  0.00    +0.000 C 
ATOM     33  C   UNL     1       1.435  10.513  18.768  0.00  0.00    +0.000 C 
ATOM     34  C   UNL     1       0.476  10.333  19.941  0.00  0.00    +0.000 C 
BRANCH  32  35
ATOM     35  O   UNL     1       2.581  12.094  17.359  0.00  0.00    +0.000 OA
ATOM     36  H   UNL     1       2.079  11.646  16.654  0.00  0.00    +0.000 HD
ENDBRANCH  32  35
ENDBRANCH   6  29
TORSDOF 4
ENDMDL
MODEL 8
REMARK VINA RESULT:      -7.6      8.385     11.481
REMARK  Name = 
REMARK  4 active torsions:
REMARK  status: ('A' for Active; 'I' for Inactive)
REMARK    1  A    between atoms: C_6  and  C_8
REMARK    2  A    between atoms: C_11  and  O_12
REMARK    3  A    between atoms: N_17  and  C_18
REMARK    4  A    between atoms: C_20  and  C_21
REMARK                            x       y       z     vdW  Elec       q    Type
REMARK                         _______ _______ _______ _____ _____    ______ ____
ROOT
ATOM      1  O   UNL     1      -2.796  17.754  21.390  0.00  0.00    +0.000 OA
ATOM      2  C   UNL     1      -3.259  17.304  22.432  0.00  0.00    +0.000 C 
ATOM      3  C   UNL     1      -4.712  16.927  22.583  0.00  0.00    +0.000 C 
ATOM      4  C   UNL     1      -5.161  16.110  21.372  0.00  0.00    +0.000 C 
ATOM      5  N   UNL     1      -4.922  14.641  21.447  0.00  0.00    +0.000 N 
ATOM      6  C   UNL     1      -6.018  13.848  21.102  0.00  0.00    +0.000 C 
ATOM      7  O   UNL     1      -7.112  14.379  20.891  0.00  0.00    +0.000 OA
ATOM      8  C   UNL     1      -3.509  14.197  21.397  0.00  0.00    +0.000 C 
ATOM      9  C   UNL     1      -2.809  14.038  22.773  0.00  0.00    +0.000 C 
ATOM     10  N   UNL     1      -1.371  14.359  22.641  0.00  0.00    +0.000 N 
ATOM     11  C   UNL     1      -0.775  15.233  23.677  0.00  0.00    +0.000 C 
ATOM     12  C   UNL     1      -1.086  16.733  23.418  0.00  0.00    +0.000 C 
ATOM     13  N   UNL     1      -2.501  17.035  23.549  0.00  0.00    +0.000 N 
ATOM     14  H   UNL     1      -2.965  16.773  24.410  0.00  0.00    +0.000 HD
ENDROOT
BRANCH  10  15
ATOM     15  C   UNL     1      -0.570  13.256  22.262  0.00  0.00    +0.000 A 
ATOM     16  N   UNL     1      -0.788  12.059  22.841  0.00  0.00    +0.000 NA
ATOM     17  C   UNL     1      -0.109  10.986  22.373  0.00  0.00    +0.000 A 
ATOM     18  N   UNL     1       0.769  11.037  21.353  0.00  0.00    +0.000 NA
ATOM     19  C   UNL     1       0.960  12.216  20.765  0.00  0.00    +0.000 A 
ATOM     20  C   UNL     1       1.775  12.248  19.636  0.00  0.00    +0.000 A 
ATOM     21  C   UNL     1       1.979  13.425  18.913  0.00  0.00    +0.000 A 
ATOM     22  C   UNL     1       1.387  14.601  19.353  0.00  0.00    +0.000 A 
ATOM     23 CL   UNL     1       1.619  16.056  18.468  0.00  0.00    +0.000 Cl
ATOM     24  C   UNL     1       0.582  14.597  20.484  0.00  0.00    +0.000 A 
ATOM     25  C   UNL     1       0.336  13.394  21.190  0.00  0.00    +0.000 A 
BRANCH  17  26
ATOM     26  C   UNL     1      -0.420   9.604  22.933  0.00  0.00    +0.000 C 
ATOM     27  F   UNL     1      -0.099   8.574  22.097  0.00  0.00    +0.000 F 
ATOM     28  F   UNL     1       0.225   9.345  24.111  0.00  0.00    +0.000 F 
ENDBRANCH  17  26
ENDBRANCH  10  15
BRANCH   6  29
ATOM     29  C   UNL     1      -5.901  12.314  20.927  0.00  0.00    +0.000 C 
ATOM     30  C   UNL     1      -4.774  11.985  19.915  0.00  0.00    +0.000 C 
ATOM     31  C   UNL     1      -5.141  12.381  18.479  0.00  0.00    +0.000 C 
ATOM     32  C   UNL     1      -6.462  11.767  18.029  0.00  0.00    +0.000 C 
ATOM     33  C   UNL     1      -7.586  11.963  19.047  0.00  0.00    +0.000 C 
ATOM     34  C   UNL     1      -7.161  11.583  20.463  0.00  0.00    +0.000 C 
BRANCH  32  35
ATOM     35  O   UNL     1      -6.862  12.319  16.779  0.00  0.00    +0.000 OA
ATOM     36  H   UNL     1      -6.776  13.288  16.831  0.00  0.00    +0.000 HD
ENDBRANCH  32  35
ENDBRANCH   6  29
TORSDOF 4
ENDMDL
MODEL 9
REMARK VINA RESULT:      -7.5      8.920     12.988
REMARK  Name = 
REMARK  4 active torsions:
REMARK  status: ('A' for Active; 'I' for Inactive)
REMARK    1  A    between atoms: C_6  and  C_8
REMARK    2  A    between atoms: C_11  and  O_12
REMARK    3  A    between atoms: N_17  and  C_18
REMARK    4  A    between atoms: C_20  and  C_21
REMARK                            x       y       z     vdW  Elec       q    Type
REMARK                         _______ _______ _______ _____ _____    ______ ____
ROOT
ATOM      1  O   UNL     1      -5.280  12.021  16.722  0.00  0.00    +0.000 OA
ATOM      2  C   UNL     1      -5.259  11.189  17.622  0.00  0.00    +0.000 C 
ATOM      3  C   UNL     1      -4.081  10.276  17.860  0.00  0.00    +0.000 C 
ATOM      4  C   UNL     1      -2.786  11.083  17.813  0.00  0.00    +0.000 C 
ATOM      5  N   UNL     1      -2.364  11.723  19.092  0.00  0.00    +0.000 N 
ATOM      6  C   UNL     1      -1.025  11.523  19.436  0.00  0.00    +0.000 C 
ATOM      7  O   UNL     1      -0.331  10.756  18.763  0.00  0.00    +0.000 OA
ATOM      8  C   UNL     1      -3.205  12.839  19.582  0.00  0.00    +0.000 C 
ATOM      9  C   UNL     1      -4.347  12.440  20.553  0.00  0.00    +0.000 C 
ATOM     10  N   UNL     1      -5.499  13.351  20.369  0.00  0.00    +0.000 N 
ATOM     11  C   UNL     1      -6.843  12.735  20.289  0.00  0.00    +0.000 C 
ATOM     12  C   UNL     1      -7.132  12.160  18.874  0.00  0.00    +0.000 C 
ATOM     13  N   UNL     1      -6.268  11.039  18.546  0.00  0.00    +0.000 N 
ATOM     14  H   UNL     1      -6.237  10.259  19.191  0.00  0.00    +0.000 HD
ENDROOT
BRANCH  10  15
ATOM     15  C   UNL     1      -5.431  14.526  21.154  0.00  0.00    +0.000 A 
ATOM     16  N   UNL     1      -4.951  14.447  22.411  0.00  0.00    +0.000 NA
ATOM     17  C   UNL     1      -4.765  15.596  23.101  0.00  0.00    +0.000 A 
ATOM     18  N   UNL     1      -5.021  16.822  22.606  0.00  0.00    +0.000 NA
ATOM     19  C   UNL     1      -5.467  16.897  21.354  0.00  0.00    +0.000 A 
ATOM     20  C   UNL     1      -5.618  18.166  20.799  0.00  0.00    +0.000 A 
ATOM     21  C   UNL     1      -6.016  18.343  19.472  0.00  0.00    +0.000 A 
ATOM     22  C   UNL     1      -6.305  17.228  18.698  0.00  0.00    +0.000 A 
ATOM     23 CL   UNL     1      -6.784  17.428  17.059  0.00  0.00    +0.000 Cl
ATOM     24  C   UNL     1      -6.175  15.953  19.233  0.00  0.00    +0.000 A 
ATOM     25  C   UNL     1      -5.727  15.772  20.563  0.00  0.00    +0.000 A 
BRANCH  17  26
ATOM     26  C   UNL     1      -4.119  15.542  24.479  0.00  0.00    +0.000 C 
ATOM     27  F   UNL     1      -2.779  15.281  24.460  0.00  0.00    +0.000 F 
ATOM     28  F   UNL     1      -4.264  16.704  25.186  0.00  0.00    +0.000 F 
ENDBRANCH  17  26
ENDBRANCH  10  15
BRANCH   6  29
ATOM     29  C   UNL     1      -0.360  12.273  20.617  0.00  0.00    +0.000 C 
ATOM     30  C   UNL     1       0.933  11.533  21.047  0.00  0.00    +0.000 C 
ATOM     31  C   UNL     1       0.642  10.189  21.726  0.00  0.00    +0.000 C 
ATOM     32  C   UNL     1      -0.313  10.330  22.906  0.00  0.00    +0.000 C 
ATOM     33  C   UNL     1      -1.558  11.152  22.568  0.00  0.00    +0.000 C 
ATOM     34  C   UNL     1      -1.215  12.465  21.869  0.00  0.00    +0.000 C 
BRANCH  32  35
ATOM     35  O   UNL     1      -0.712   9.047  23.374  0.00  0.00    +0.000 OA
ATOM     36  H   UNL     1      -0.431   8.382  22.720  0.00  0.00    +0.000 HD
ENDBRANCH  32  35
ENDBRANCH   6  29
TORSDOF 4
ENDMDL
