MODEL 1
REMARK VINA RESULT:      -8.4      0.000      0.000
REMARK  Name = 
REMARK  9 active torsions:
REMARK  status: ('A' for Active; 'I' for Inactive)
REMARK    1  A    between atoms: C_1  and  C_2
REMARK    2  A    between atoms: C_4  and  C_5
REMARK    3  A    between atoms: C_12  and  C_13
REMARK    4  A    between atoms: C_13  and  C_14
REMARK    5  A    between atoms: C_14  and  O_15
REMARK    6  A    between atoms: O_15  and  C_16
REMARK    7  A    between atoms: C_19  and  C_20
REMARK    8  A    between atoms: C_20  and  N_21
REMARK    9  A    between atoms: N_21  and  O_22
REMARK                            x       y       z     vdW  Elec       q    Type
REMARK                         _______ _______ _______ _____ _____    ______ ____
ROOT
ATOM      1  O   UNL     1       3.996   5.889  18.258  0.00  0.00    +0.000 OA
ENDROOT
BRANCH   1   2
ATOM      2  C   UNL     1       3.158   6.951  18.490  0.00  0.00    +0.000 A 
ATOM      3  C   UNL     1       2.473   6.930  19.706  0.00  0.00    +0.000 A 
ATOM      4  C   UNL     1       1.597   7.968  20.051  0.00  0.00    +0.000 A 
ATOM      5  C   UNL     1       1.396   9.053  19.185  0.00  0.00    +0.000 A 
ATOM      6  C   UNL     1       2.087   9.066  17.967  0.00  0.00    +0.000 A 
ATOM      7  C   UNL     1       2.969   8.033  17.629  0.00  0.00    +0.000 A 
BRANCH   5   8
ATOM      8  C   UNL     1       0.448  10.174  19.556  0.00  0.00    +0.000 C 
BRANCH   8   9
ATOM      9  N   UNL     1      -0.099  10.866  18.387  0.00  0.00    +0.000 N 
ATOM     10  C   UNL     1      -0.452  12.197  18.462  0.00  0.00    +0.000 C 
ATOM     11  N   UNL     1      -1.230  12.631  17.433  0.00  0.00    +0.000 N 
ATOM     12  O   UNL     1      -0.071  12.979  19.331  0.00  0.00    +0.000 OA
ATOM     13  H   UNL     1      -1.584  11.966  16.764  0.00  0.00    +0.000 HD
ATOM     14  H   UNL     1      -1.531  13.593  17.421  0.00  0.00    +0.000 HD
BRANCH   9  15
ATOM     15  O   UNL     1      -0.987  10.058  17.624  0.00  0.00    +0.000 OA
ATOM     16  H   UNL     1      -1.514   9.658  18.341  0.00  0.00    +0.000 HD
ENDBRANCH   9  15
ENDBRANCH   8   9
ENDBRANCH   5   8
ENDBRANCH   1   2
BRANCH   1  17
ATOM     17  C   UNL     1       4.507   5.246  19.432  0.00  0.00    +0.000 C 
BRANCH  17  18
ATOM     18  C   UNL     1       5.995   4.941  19.269  0.00  0.00    +0.000 C 
BRANCH  18  24
ATOM     19  C   UNL     1       7.861   7.521  18.108  0.00  0.00    +0.000 C 
ATOM     20  C   UNL     1       7.239   6.349  17.471  0.00  0.00    +0.000 A 
ATOM     21  O   UNL     1       7.428   6.211  16.126  0.00  0.00    +0.000 OA
ATOM     22  C   UNL     1       6.748   5.069  15.796  0.00  0.00    +0.000 A 
ATOM     23  N   UNL     1       6.159   4.484  16.825  0.00  0.00    +0.000 NA
ATOM     24  C   UNL     1       6.469   5.290  17.902  0.00  0.00    +0.000 A 
BRANCH  22  25
ATOM     25  C   UNL     1       6.759   4.687  14.388  0.00  0.00    +0.000 A 
ATOM     26  C   UNL     1       5.883   3.707  13.886  0.00  0.00    +0.000 A 
ATOM     27  C   UNL     1       5.922   3.334  12.539  0.00  0.00    +0.000 A 
ATOM     28  C   UNL     1       6.831   3.940  11.675  0.00  0.00    +0.000 A 
ATOM     29  C   UNL     1       7.700   4.920  12.154  0.00  0.00    +0.000 A 
ATOM     30  C   UNL     1       7.661   5.290  13.500  0.00  0.00    +0.000 A 
ENDBRANCH  22  25
ENDBRANCH  18  24
ENDBRANCH  17  18
ENDBRANCH   1  17
TORSDOF 8
ENDMDL
MODEL 2
REMARK VINA RESULT:      -8.3      0.758      1.201
REMARK  Name = 
REMARK  9 active torsions:
REMARK  status: ('A' for Active; 'I' for Inactive)
REMARK    1  A    between atoms: C_1  and  C_2
REMARK    2  A    between atoms: C_4  and  C_5
REMARK    3  A    between atoms: C_12  and  C_13
REMARK    4  A    between atoms: C_13  and  C_14
REMARK    5  A    between atoms: C_14  and  O_15
REMARK    6  A    between atoms: O_15  and  C_16
REMARK    7  A    between atoms: C_19  and  C_20
REMARK    8  A    between atoms: C_20  and  N_21
REMARK    9  A    between atoms: N_21  and  O_22
REMARK                            x       y       z     vdW  Elec       q    Type
REMARK                         _______ _______ _______ _____ _____    ______ ____
ROOT
ATOM      1  O   UNL     1       3.246   5.686  18.532  0.00  0.00    +0.000 OA
ENDROOT
BRANCH   1   2
ATOM      2  C   UNL     1       2.613   6.886  18.741  0.00  0.00    +0.000 A 
ATOM      3  C   UNL     1       2.131   7.102  20.032  0.00  0.00    +0.000 A 
ATOM      4  C   UNL     1       1.476   8.297  20.361  0.00  0.00    +0.000 A 
ATOM      5  C   UNL     1       1.297   9.303  19.400  0.00  0.00    +0.000 A 
ATOM      6  C   UNL     1       1.783   9.078  18.107  0.00  0.00    +0.000 A 
ATOM      7  C   UNL     1       2.446   7.888  17.783  0.00  0.00    +0.000 A 
BRANCH   5   8
ATOM      8  C   UNL     1       0.587  10.593  19.754  0.00  0.00    +0.000 C 
BRANCH   8   9
ATOM      9  N   UNL     1      -0.408  10.985  18.755  0.00  0.00    +0.000 N 
ATOM     10  C   UNL     1      -0.615  12.316  18.455  0.00  0.00    +0.000 C 
ATOM     11  N   UNL     1      -1.761  12.566  17.767  0.00  0.00    +0.000 N 
ATOM     12  O   UNL     1       0.171  13.226  18.714  0.00  0.00    +0.000 OA
ATOM     13  H   UNL     1      -2.423  11.821  17.617  0.00  0.00    +0.000 HD
ATOM     14  H   UNL     1      -1.982  13.517  17.515  0.00  0.00    +0.000 HD
BRANCH   9  15
ATOM     15  O   UNL     1      -1.592  10.199  18.805  0.00  0.00    +0.000 OA
ATOM     16  H   UNL     1      -1.287   9.466  19.373  0.00  0.00    +0.000 HD
ENDBRANCH   9  15
ENDBRANCH   8   9
ENDBRANCH   5   8
ENDBRANCH   1   2
BRANCH   1  17
ATOM     17  C   UNL     1       4.113   5.261  19.590  0.00  0.00    +0.000 C 
BRANCH  17  18
ATOM     18  C   UNL     1       4.978   4.087  19.131  0.00  0.00    +0.000 C 
BRANCH  18  24
ATOM     19  C   UNL     1       7.837   5.902  18.994  0.00  0.00    +0.000 C 
ATOM     20  C   UNL     1       7.021   5.211  17.981  0.00  0.00    +0.000 A 
ATOM     21  O   UNL     1       7.466   5.271  16.693  0.00  0.00    +0.000 OA
ATOM     22  C   UNL     1       6.536   4.571  15.971  0.00  0.00    +0.000 A 
ATOM     23  N   UNL     1       5.554   4.078  16.707  0.00  0.00    +0.000 NA
ATOM     24  C   UNL     1       5.854   4.476  17.994  0.00  0.00    +0.000 A 
BRANCH  22  25
ATOM     25  C   UNL     1       6.751   4.492  14.531  0.00  0.00    +0.000 A 
ATOM     26  C   UNL     1       7.665   5.339  13.877  0.00  0.00    +0.000 A 
ATOM     27  C   UNL     1       7.843   5.268  12.492  0.00  0.00    +0.000 A 
ATOM     28  C   UNL     1       7.115   4.346  11.744  0.00  0.00    +0.000 A 
ATOM     29  C   UNL     1       6.211   3.494  12.376  0.00  0.00    +0.000 A 
ATOM     30  C   UNL     1       6.034   3.567  13.760  0.00  0.00    +0.000 A 
ENDBRANCH  22  25
ENDBRANCH  18  24
ENDBRANCH  17  18
ENDBRANCH   1  17
TORSDOF 8
ENDMDL
MODEL 3
REMARK VINA RESULT:      -8.2      1.137      1.599
REMARK  Name = 
REMARK  9 active torsions:
REMARK  status: ('A' for Active; 'I' for Inactive)
REMARK    1  A    between atoms: C_1  and  C_2
REMARK    2  A    between atoms: C_4  and  C_5
REMARK    3  A    between atoms: C_12  and  C_13
REMARK    4  A    between atoms: C_13  and  C_14
REMARK    5  A    between atoms: C_14  and  O_15
REMARK    6  A    between atoms: O_15  and  C_16
REMARK    7  A    between atoms: C_19  and  C_20
REMARK    8  A    between atoms: C_20  and  N_21
REMARK    9  A    between atoms: N_21  and  O_22
REMARK                            x       y       z     vdW  Elec       q    Type
REMARK                         _______ _______ _______ _____ _____    ______ ____
ROOT
ATOM      1  O   UNL     1       4.032   5.675  18.256  0.00  0.00    +0.000 OA
ENDROOT
BRANCH   1   2
ATOM      2  C   UNL     1       3.212   6.758  18.450  0.00  0.00    +0.000 A 
ATOM      3  C   UNL     1       2.535   6.796  19.670  0.00  0.00    +0.000 A 
ATOM      4  C   UNL     1       1.677   7.860  19.979  0.00  0.00    +0.000 A 
ATOM      5  C   UNL     1       1.485   8.913  19.071  0.00  0.00    +0.000 A 
ATOM      6  C   UNL     1       2.168   8.866  17.850  0.00  0.00    +0.000 A 
ATOM      7  C   UNL     1       3.033   7.808  17.548  0.00  0.00    +0.000 A 
BRANCH   5   8
ATOM      8  C   UNL     1       0.556  10.062  19.404  0.00  0.00    +0.000 C 
BRANCH   8   9
ATOM      9  N   UNL     1       1.243  11.355  19.436  0.00  0.00    +0.000 N 
ATOM     10  C   UNL     1       1.211  12.136  20.573  0.00  0.00    +0.000 C 
ATOM     11  N   UNL     1       1.600  13.426  20.380  0.00  0.00    +0.000 N 
ATOM     12  O   UNL     1       0.922  11.732  21.698  0.00  0.00    +0.000 OA
ATOM     13  H   UNL     1       1.774  13.756  19.444  0.00  0.00    +0.000 HD
ATOM     14  H   UNL     1       1.600  14.058  21.165  0.00  0.00    +0.000 HD
BRANCH   9  15
ATOM     15  O   UNL     1       1.133  12.077  18.217  0.00  0.00    +0.000 OA
ATOM     16  H   UNL     1       1.770  11.584  17.667  0.00  0.00    +0.000 HD
ENDBRANCH   9  15
ENDBRANCH   8   9
ENDBRANCH   5   8
ENDBRANCH   1   2
BRANCH   1  17
ATOM     17  C   UNL     1       4.658   5.163  19.439  0.00  0.00    +0.000 C 
BRANCH  17  18
ATOM     18  C   UNL     1       6.178   5.283  19.333  0.00  0.00    +0.000 C 
BRANCH  18  24
ATOM     19  C   UNL     1       7.887   7.865  17.955  0.00  0.00    +0.000 C 
ATOM     20  C   UNL     1       7.307   6.625  17.412  0.00  0.00    +0.000 A 
ATOM     21  O   UNL     1       7.467   6.408  16.075  0.00  0.00    +0.000 OA
ATOM     22  C   UNL     1       6.835   5.216  15.838  0.00  0.00    +0.000 A 
ATOM     23  N   UNL     1       6.302   4.674  16.920  0.00  0.00    +0.000 NA
ATOM     24  C   UNL     1       6.599   5.562  17.933  0.00  0.00    +0.000 A 
BRANCH  22  25
ATOM     25  C   UNL     1       6.829   4.744  14.458  0.00  0.00    +0.000 A 
ATOM     26  C   UNL     1       7.733   5.248  13.505  0.00  0.00    +0.000 A 
ATOM     27  C   UNL     1       7.698   4.803  12.180  0.00  0.00    +0.000 A 
ATOM     28  C   UNL     1       6.765   3.844  11.792  0.00  0.00    +0.000 A 
ATOM     29  C   UNL     1       5.868   3.328  12.725  0.00  0.00    +0.000 A 
ATOM     30  C   UNL     1       5.903   3.775  14.048  0.00  0.00    +0.000 A 
ENDBRANCH  22  25
ENDBRANCH  18  24
ENDBRANCH  17  18
ENDBRANCH   1  17
TORSDOF 8
ENDMDL
MODEL 4
REMARK VINA RESULT:      -8.1      1.102      1.678
REMARK  Name = 
REMARK  9 active torsions:
REMARK  status: ('A' for Active; 'I' for Inactive)
REMARK    1  A    between atoms: C_1  and  C_2
REMARK    2  A    between atoms: C_4  and  C_5
REMARK    3  A    between atoms: C_12  and  C_13
REMARK    4  A    between atoms: C_13  and  C_14
REMARK    5  A    between atoms: C_14  and  O_15
REMARK    6  A    between atoms: O_15  and  C_16
REMARK    7  A    between atoms: C_19  and  C_20
REMARK    8  A    between atoms: C_20  and  N_21
REMARK    9  A    between atoms: N_21  and  O_22
REMARK                            x       y       z     vdW  Elec       q    Type
REMARK                         _______ _______ _______ _____ _____    ______ ____
ROOT
ATOM      1  O   UNL     1       2.980   5.457  19.803  0.00  0.00    +0.000 OA
ENDROOT
BRANCH   1   2
ATOM      2  C   UNL     1       2.486   6.685  19.440  0.00  0.00    +0.000 A 
ATOM      3  C   UNL     1       1.871   7.416  20.457  0.00  0.00    +0.000 A 
ATOM      4  C   UNL     1       1.338   8.687  20.202  0.00  0.00    +0.000 A 
ATOM      5  C   UNL     1       1.417   9.253  18.921  0.00  0.00    +0.000 A 
ATOM      6  C   UNL     1       2.035   8.512  17.907  0.00  0.00    +0.000 A 
ATOM      7  C   UNL     1       2.576   7.247  18.166  0.00  0.00    +0.000 A 
BRANCH   5   8
ATOM      8  C   UNL     1       0.839  10.625  18.644  0.00  0.00    +0.000 C 
BRANCH   8   9
ATOM      9  N   UNL     1       0.280  11.257  19.841  0.00  0.00    +0.000 N 
ATOM     10  C   UNL     1      -1.051  11.618  19.886  0.00  0.00    +0.000 C 
ATOM     11  N   UNL     1      -1.368  12.469  20.900  0.00  0.00    +0.000 N 
ATOM     12  O   UNL     1      -1.923  11.187  19.135  0.00  0.00    +0.000 OA
ATOM     13  H   UNL     1      -0.633  12.860  21.467  0.00  0.00    +0.000 HD
ATOM     14  H   UNL     1      -2.322  12.779  20.995  0.00  0.00    +0.000 HD
BRANCH   9  15
ATOM     15  O   UNL     1       1.168  12.186  20.449  0.00  0.00    +0.000 OA
ATOM     16  H   UNL     1       2.023  11.758  20.256  0.00  0.00    +0.000 HD
ENDBRANCH   9  15
ENDBRANCH   8   9
ENDBRANCH   5   8
ENDBRANCH   1   2
BRANCH   1  17
ATOM     17  C   UNL     1       3.900   4.870  18.874  0.00  0.00    +0.000 C 
BRANCH  17  18
ATOM     18  C   UNL     1       5.320   5.367  19.141  0.00  0.00    +0.000 C 
BRANCH  18  24
ATOM     19  C   UNL     1       8.005   7.271  18.336  0.00  0.00    +0.000 C 
ATOM     20  C   UNL     1       7.181   6.308  17.587  0.00  0.00    +0.000 A 
ATOM     21  O   UNL     1       7.530   6.083  16.288  0.00  0.00    +0.000 OA
ATOM     22  C   UNL     1       6.612   5.174  15.834  0.00  0.00    +0.000 A 
ATOM     23  N   UNL     1       5.727   4.811  16.747  0.00  0.00    +0.000 NA
ATOM     24  C   UNL     1       6.081   5.526  17.873  0.00  0.00    +0.000 A 
BRANCH  22  25
ATOM     25  C   UNL     1       6.734   4.764  14.439  0.00  0.00    +0.000 A 
ATOM     26  C   UNL     1       7.677   5.357  13.579  0.00  0.00    +0.000 A 
ATOM     27  C   UNL     1       7.766   4.970  12.238  0.00  0.00    +0.000 A 
ATOM     28  C   UNL     1       6.917   3.984  11.741  0.00  0.00    +0.000 A 
ATOM     29  C   UNL     1       5.983   3.381  12.581  0.00  0.00    +0.000 A 
ATOM     30  C   UNL     1       5.895   3.769  13.920  0.00  0.00    +0.000 A 
ENDBRANCH  22  25
ENDBRANCH  18  24
ENDBRANCH  17  18
ENDBRANCH   1  17
TORSDOF 8
ENDMDL
MODEL 5
REMARK VINA RESULT:      -8.0      1.710      2.222
REMARK  Name = 
REMARK  9 active torsions:
REMARK  status: ('A' for Active; 'I' for Inactive)
REMARK    1  A    between atoms: C_1  and  C_2
REMARK    2  A    between atoms: C_4  and  C_5
REMARK    3  A    between atoms: C_12  and  C_13
REMARK    4  A    between atoms: C_13  and  C_14
REMARK    5  A    between atoms: C_14  and  O_15
REMARK    6  A    between atoms: O_15  and  C_16
REMARK    7  A    between atoms: C_19  and  C_20
REMARK    8  A    between atoms: C_20  and  N_21
REMARK    9  A    between atoms: N_21  and  O_22
REMARK                            x       y       z     vdW  Elec       q    Type
REMARK                         _______ _______ _______ _____ _____    ______ ____
ROOT
ATOM      1  O   UNL     1       2.801   5.813  19.718  0.00  0.00    +0.000 OA
ENDROOT
BRANCH   1   2
ATOM      2  C   UNL     1       2.263   7.073  19.635  0.00  0.00    +0.000 A 
ATOM      3  C   UNL     1       2.409   7.716  18.405  0.00  0.00    +0.000 A 
ATOM      4  C   UNL     1       1.891   9.002  18.204  0.00  0.00    +0.000 A 
ATOM      5  C   UNL     1       1.209   9.668  19.234  0.00  0.00    +0.000 A 
ATOM      6  C   UNL     1       1.068   9.016  20.465  0.00  0.00    +0.000 A 
ATOM      7  C   UNL     1       1.577   7.727  20.660  0.00  0.00    +0.000 A 
BRANCH   5   8
ATOM      8  C   UNL     1       0.651  11.060  19.019  0.00  0.00    +0.000 C 
BRANCH   8   9
ATOM      9  N   UNL     1       1.691  12.090  18.991  0.00  0.00    +0.000 N 
ATOM     10  C   UNL     1       1.875  12.929  20.070  0.00  0.00    +0.000 C 
ATOM     11  N   UNL     1       2.634  14.027  19.805  0.00  0.00    +0.000 N 
ATOM     12  O   UNL     1       1.460  12.715  21.207  0.00  0.00    +0.000 OA
ATOM     13  H   UNL     1       2.914  14.220  18.856  0.00  0.00    +0.000 HD
ATOM     14  H   UNL     1       2.810  14.689  20.545  0.00  0.00    +0.000 HD
BRANCH   9  15
ATOM     15  O   UNL     1       1.822  12.718  17.722  0.00  0.00    +0.000 OA
ATOM     16  H   UNL     1       1.273  12.122  17.178  0.00  0.00    +0.000 HD
ENDBRANCH   9  15
ENDBRANCH   8   9
ENDBRANCH   5   8
ENDBRANCH   1   2
BRANCH   1  17
ATOM     17  C   UNL     1       2.371   4.897  18.704  0.00  0.00    +0.000 C 
BRANCH  17  18
ATOM     18  C   UNL     1       3.376   3.754  18.556  0.00  0.00    +0.000 C 
BRANCH  18  24
ATOM     19  C   UNL     1       6.298   5.352  19.184  0.00  0.00    +0.000 C 
ATOM     20  C   UNL     1       5.689   4.787  17.969  0.00  0.00    +0.000 A 
ATOM     21  O   UNL     1       6.414   4.889  16.817  0.00  0.00    +0.000 OA
ATOM     22  C   UNL     1       5.627   4.306  15.859  0.00  0.00    +0.000 A 
ATOM     23  N   UNL     1       4.477   3.846  16.323  0.00  0.00    +0.000 NA
ATOM     24  C   UNL     1       4.506   4.144  17.671  0.00  0.00    +0.000 A 
BRANCH  22  25
ATOM     25  C   UNL     1       6.153   4.297  14.499  0.00  0.00    +0.000 A 
ATOM     26  C   UNL     1       5.584   3.491  13.496  0.00  0.00    +0.000 A 
ATOM     27  C   UNL     1       6.115   3.475  12.202  0.00  0.00    +0.000 A 
ATOM     28  C   UNL     1       7.217   4.267  11.893  0.00  0.00    +0.000 A 
ATOM     29  C   UNL     1       7.789   5.078  12.872  0.00  0.00    +0.000 A 
ATOM     30  C   UNL     1       7.258   5.092  14.164  0.00  0.00    +0.000 A 
ENDBRANCH  22  25
ENDBRANCH  18  24
ENDBRANCH  17  18
ENDBRANCH   1  17
TORSDOF 8
ENDMDL
MODEL 6
REMARK VINA RESULT:      -8.0      2.305      2.854
REMARK  Name = 
REMARK  9 active torsions:
REMARK  status: ('A' for Active; 'I' for Inactive)
REMARK    1  A    between atoms: C_1  and  C_2
REMARK    2  A    between atoms: C_4  and  C_5
REMARK    3  A    between atoms: C_12  and  C_13
REMARK    4  A    between atoms: C_13  and  C_14
REMARK    5  A    between atoms: C_14  and  O_15
REMARK    6  A    between atoms: O_15  and  C_16
REMARK    7  A    between atoms: C_19  and  C_20
REMARK    8  A    between atoms: C_20  and  N_21
REMARK    9  A    between atoms: N_21  and  O_22
REMARK                            x       y       z     vdW  Elec       q    Type
REMARK                         _______ _______ _______ _____ _____    ______ ____
ROOT
ATOM      1  O   UNL     1       2.942   3.544  18.672  0.00  0.00    +0.000 OA
ENDROOT
BRANCH   1   2
ATOM      2  C   UNL     1       2.633   4.834  19.025  0.00  0.00    +0.000 A 
ATOM      3  C   UNL     1       2.141   5.009  20.319  0.00  0.00    +0.000 A 
ATOM      4  C   UNL     1       1.802   6.284  20.789  0.00  0.00    +0.000 A 
ATOM      5  C   UNL     1       1.955   7.414  19.970  0.00  0.00    +0.000 A 
ATOM      6  C   UNL     1       2.449   7.229  18.674  0.00  0.00    +0.000 A 
ATOM      7  C   UNL     1       2.798   5.955  18.210  0.00  0.00    +0.000 A 
BRANCH   5   8
ATOM      8  C   UNL     1       1.586   8.792  20.477  0.00  0.00    +0.000 C 
BRANCH   8   9
ATOM      9  N   UNL     1       1.207   8.794  21.891  0.00  0.00    +0.000 N 
ATOM     10  C   UNL     1      -0.067   9.160  22.274  0.00  0.00    +0.000 C 
ATOM     11  N   UNL     1      -0.200   9.428  23.602  0.00  0.00    +0.000 N 
ATOM     12  O   UNL     1      -1.044   9.196  21.528  0.00  0.00    +0.000 OA
ATOM     13  H   UNL     1       0.620   9.455  24.187  0.00  0.00    +0.000 HD
ATOM     14  H   UNL     1      -1.102   9.705  23.956  0.00  0.00    +0.000 HD
BRANCH   9  15
ATOM     15  O   UNL     1       2.241   9.262  22.748  0.00  0.00    +0.000 OA
ATOM     16  H   UNL     1       1.719   9.486  23.541  0.00  0.00    +0.000 HD
ENDBRANCH   9  15
ENDBRANCH   8   9
ENDBRANCH   5   8
ENDBRANCH   1   2
BRANCH   1  17
ATOM     17  C   UNL     1       4.267   3.118  19.009  0.00  0.00    +0.000 C 
BRANCH  17  18
ATOM     18  C   UNL     1       5.164   4.326  19.279  0.00  0.00    +0.000 C 
BRANCH  18  24
ATOM     19  C   UNL     1       7.980   6.175  18.913  0.00  0.00    +0.000 C 
ATOM     20  C   UNL     1       7.134   5.417  17.978  0.00  0.00    +0.000 A 
ATOM     21  O   UNL     1       7.520   5.412  16.669  0.00  0.00    +0.000 OA
ATOM     22  C   UNL     1       6.571   4.659  16.030  0.00  0.00    +0.000 A 
ATOM     23  N   UNL     1       5.632   4.192  16.835  0.00  0.00    +0.000 NA
ATOM     24  C   UNL     1       5.982   4.666  18.083  0.00  0.00    +0.000 A 
BRANCH  22  25
ATOM     25  C   UNL     1       6.723   4.504  14.588  0.00  0.00    +0.000 A 
ATOM     26  C   UNL     1       7.667   5.256  13.864  0.00  0.00    +0.000 A 
ATOM     27  C   UNL     1       7.785   5.114  12.478  0.00  0.00    +0.000 A 
ATOM     28  C   UNL     1       6.967   4.215  11.799  0.00  0.00    +0.000 A 
ATOM     29  C   UNL     1       6.032   3.456  12.501  0.00  0.00    +0.000 A 
ATOM     30  C   UNL     1       5.915   3.600  13.885  0.00  0.00    +0.000 A 
ENDBRANCH  22  25
ENDBRANCH  18  24
ENDBRANCH  17  18
ENDBRANCH   1  17
TORSDOF 8
ENDMDL
MODEL 7
REMARK VINA RESULT:      -7.9      5.098      8.091
REMARK  Name = 
REMARK  9 active torsions:
REMARK  status: ('A' for Active; 'I' for Inactive)
REMARK    1  A    between atoms: C_1  and  C_2
REMARK    2  A    between atoms: C_4  and  C_5
REMARK    3  A    between atoms: C_12  and  C_13
REMARK    4  A    between atoms: C_13  and  C_14
REMARK    5  A    between atoms: C_14  and  O_15
REMARK    6  A    between atoms: O_15  and  C_16
REMARK    7  A    between atoms: C_19  and  C_20
REMARK    8  A    between atoms: C_20  and  N_21
REMARK    9  A    between atoms: N_21  and  O_22
REMARK                            x       y       z     vdW  Elec       q    Type
REMARK                         _______ _______ _______ _____ _____    ______ ____
ROOT
ATOM      1  O   UNL     1       7.276   8.705  17.852  0.00  0.00    +0.000 OA
ENDROOT
BRANCH   1   2
ATOM      2  C   UNL     1       8.139   9.723  18.170  0.00  0.00    +0.000 A 
ATOM      3  C   UNL     1       7.931  10.928  17.497  0.00  0.00    +0.000 A 
ATOM      4  C   UNL     1       8.749  12.038  17.749  0.00  0.00    +0.000 A 
ATOM      5  C   UNL     1       9.789  11.963  18.688  0.00  0.00    +0.000 A 
ATOM      6  C   UNL     1       9.991  10.750  19.357  0.00  0.00    +0.000 A 
ATOM      7  C   UNL     1       9.167   9.646  19.111  0.00  0.00    +0.000 A 
BRANCH   5   8
ATOM      8  C   UNL     1      10.674  13.161  18.959  0.00  0.00    +0.000 C 
BRANCH   8   9
ATOM      9  N   UNL     1      10.499  14.231  17.975  0.00  0.00    +0.000 N 
ATOM     10  C   UNL     1      11.353  14.339  16.897  0.00  0.00    +0.000 C 
ATOM     11  N   UNL     1      11.290  15.532  16.246  0.00  0.00    +0.000 N 
ATOM     12  O   UNL     1      12.084  13.439  16.485  0.00  0.00    +0.000 OA
ATOM     13  H   UNL     1      10.733  16.278  16.633  0.00  0.00    +0.000 HD
ATOM     14  H   UNL     1      11.888  15.686  15.450  0.00  0.00    +0.000 HD
BRANCH   9  15
ATOM     15  O   UNL     1      10.120  15.471  18.558  0.00  0.00    +0.000 OA
ATOM     16  H   UNL     1      10.462  16.089  17.885  0.00  0.00    +0.000 HD
ENDBRANCH   9  15
ENDBRANCH   8   9
ENDBRANCH   5   8
ENDBRANCH   1   2
BRANCH   1  17
ATOM     17  C   UNL     1       7.898   7.471  17.474  0.00  0.00    +0.000 C 
BRANCH  17  18
ATOM     18  C   UNL     1       7.820   6.461  18.618  0.00  0.00    +0.000 C 
BRANCH  18  24
ATOM     19  C   UNL     1       6.768   4.421  16.125  0.00  0.00    +0.000 C 
ATOM     20  C   UNL     1       6.233   4.762  17.453  0.00  0.00    +0.000 A 
ATOM     21  O   UNL     1       5.071   4.149  17.821  0.00  0.00    +0.000 OA
ATOM     22  C   UNL     1       4.797   4.643  19.068  0.00  0.00    +0.000 A 
ATOM     23  N   UNL     1       5.697   5.507  19.507  0.00  0.00    +0.000 NA
ATOM     24  C   UNL     1       6.622   5.589  18.486  0.00  0.00    +0.000 A 
BRANCH  22  25
ATOM     25  C   UNL     1       3.573   4.168  19.704  0.00  0.00    +0.000 A 
ATOM     26  C   UNL     1       3.547   2.972  20.445  0.00  0.00    +0.000 A 
ATOM     27  C   UNL     1       2.361   2.517  21.029  0.00  0.00    +0.000 A 
ATOM     28  C   UNL     1       1.188   3.254  20.885  0.00  0.00    +0.000 A 
ATOM     29  C   UNL     1       1.197   4.445  20.161  0.00  0.00    +0.000 A 
ATOM     30  C   UNL     1       2.383   4.897  19.578  0.00  0.00    +0.000 A 
ENDBRANCH  22  25
ENDBRANCH  18  24
ENDBRANCH  17  18
ENDBRANCH   1  17
TORSDOF 8
ENDMDL
MODEL 8
REMARK VINA RESULT:      -7.8      1.695      2.220
REMARK  Name = 
REMARK  9 active torsions:
REMARK  status: ('A' for Active; 'I' for Inactive)
REMARK    1  A    between atoms: C_1  and  C_2
REMARK    2  A    between atoms: C_4  and  C_5
REMARK    3  A    between atoms: C_12  and  C_13
REMARK    4  A    between atoms: C_13  and  C_14
REMARK    5  A    between atoms: C_14  and  O_15
REMARK    6  A    between atoms: O_15  and  C_16
REMARK    7  A    between atoms: C_19  and  C_20
REMARK    8  A    between atoms: C_20  and  N_21
REMARK    9  A    between atoms: N_21  and  O_22
REMARK                            x       y       z     vdW  Elec       q    Type
REMARK                         _______ _______ _______ _____ _____    ______ ____
ROOT
ATOM      1  O   UNL     1       2.588   3.762  18.136  0.00  0.00    +0.000 OA
ENDROOT
BRANCH   1   2
ATOM      2  C   UNL     1       2.368   4.952  18.784  0.00  0.00    +0.000 A 
ATOM      3  C   UNL     1       1.859   4.852  20.080  0.00  0.00    +0.000 A 
ATOM      4  C   UNL     1       1.604   6.002  20.839  0.00  0.00    +0.000 A 
ATOM      5  C   UNL     1       1.861   7.278  20.314  0.00  0.00    +0.000 A 
ATOM      6  C   UNL     1       2.371   7.368  19.014  0.00  0.00    +0.000 A 
ATOM      7  C   UNL     1       2.635   6.218  18.261  0.00  0.00    +0.000 A 
BRANCH   5   8
ATOM      8  C   UNL     1       1.584   8.521  21.133  0.00  0.00    +0.000 C 
BRANCH   8   9
ATOM      9  N   UNL     1       0.289   9.129  20.820  0.00  0.00    +0.000 N 
ATOM     10  C   UNL     1       0.224  10.369  20.218  0.00  0.00    +0.000 C 
ATOM     11  N   UNL     1      -1.002  10.957  20.272  0.00  0.00    +0.000 N 
ATOM     12  O   UNL     1       1.152  10.911  19.620  0.00  0.00    +0.000 OA
ATOM     13  H   UNL     1      -1.733  10.529  20.818  0.00  0.00    +0.000 HD
ATOM     14  H   UNL     1      -1.126  11.866  19.855  0.00  0.00    +0.000 HD
BRANCH   9  15
ATOM     15  O   UNL     1      -0.692   8.906  21.825  0.00  0.00    +0.000 OA
ATOM     16  H   UNL     1      -1.296   8.309  21.345  0.00  0.00    +0.000 HD
ENDBRANCH   9  15
ENDBRANCH   8   9
ENDBRANCH   5   8
ENDBRANCH   1   2
BRANCH   1  17
ATOM     17  C   UNL     1       3.769   3.057  18.537  0.00  0.00    +0.000 C 
BRANCH  17  18
ATOM     18  C   UNL     1       4.842   4.037  19.011  0.00  0.00    +0.000 C 
BRANCH  18  24
ATOM     19  C   UNL     1       7.802   5.685  18.978  0.00  0.00    +0.000 C 
ATOM     20  C   UNL     1       6.971   5.067  17.932  0.00  0.00    +0.000 A 
ATOM     21  O   UNL     1       7.448   5.131  16.654  0.00  0.00    +0.000 OA
ATOM     22  C   UNL     1       6.494   4.504  15.897  0.00  0.00    +0.000 A 
ATOM     23  N   UNL     1       5.470   4.051  16.600  0.00  0.00    +0.000 NA
ATOM     24  C   UNL     1       5.764   4.402  17.902  0.00  0.00    +0.000 A 
BRANCH  22  25
ATOM     25  C   UNL     1       6.737   4.447  14.460  0.00  0.00    +0.000 A 
ATOM     26  C   UNL     1       7.659   5.307  13.835  0.00  0.00    +0.000 A 
ATOM     27  C   UNL     1       7.863   5.257  12.453  0.00  0.00    +0.000 A 
ATOM     28  C   UNL     1       7.153   4.343  11.678  0.00  0.00    +0.000 A 
ATOM     29  C   UNL     1       6.242   3.477  12.281  0.00  0.00    +0.000 A 
ATOM     30  C   UNL     1       6.038   3.530  13.662  0.00  0.00    +0.000 A 
ENDBRANCH  22  25
ENDBRANCH  18  24
ENDBRANCH  17  18
ENDBRANCH   1  17
TORSDOF 8
ENDMDL
MODEL 9
REMARK VINA RESULT:      -7.8      1.266      1.882
REMARK  Name = 
REMARK  9 active torsions:
REMARK  status: ('A' for Active; 'I' for Inactive)
REMARK    1  A    between atoms: C_1  and  C_2
REMARK    2  A    between atoms: C_4  and  C_5
REMARK    3  A    between atoms: C_12  and  C_13
REMARK    4  A    between atoms: C_13  and  C_14
REMARK    5  A    between atoms: C_14  and  O_15
REMARK    6  A    between atoms: O_15  and  C_16
REMARK    7  A    between atoms: C_19  and  C_20
REMARK    8  A    between atoms: C_20  and  N_21
REMARK    9  A    between atoms: N_21  and  O_22
REMARK                            x       y       z     vdW  Elec       q    Type
REMARK                         _______ _______ _______ _____ _____    ______ ____
ROOT
ATOM      1  O   UNL     1       3.119   6.432  18.052  0.00  0.00    +0.000 OA
ENDROOT
BRANCH   1   2
ATOM      2  C   UNL     1       2.409   7.322  18.818  0.00  0.00    +0.000 A 
ATOM      3  C   UNL     1       2.018   8.498  18.178  0.00  0.00    +0.000 A 
ATOM      4  C   UNL     1       1.282   9.474  18.862  0.00  0.00    +0.000 A 
ATOM      5  C   UNL     1       0.916   9.286  20.204  0.00  0.00    +0.000 A 
ATOM      6  C   UNL     1       1.313   8.103  20.838  0.00  0.00    +0.000 A 
ATOM      7  C   UNL     1       2.040   7.125  20.150  0.00  0.00    +0.000 A 
BRANCH   5   8
ATOM      8  C   UNL     1       0.122  10.342  20.945  0.00  0.00    +0.000 C 
BRANCH   8   9
ATOM      9  N   UNL     1      -0.145  11.527  20.128  0.00  0.00    +0.000 N 
ATOM     10  C   UNL     1       0.251  12.778  20.557  0.00  0.00    +0.000 C 
ATOM     11  N   UNL     1      -0.325  13.811  19.885  0.00  0.00    +0.000 N 
ATOM     12  O   UNL     1       1.094  12.989  21.427  0.00  0.00    +0.000 OA
ATOM     13  H   UNL     1      -1.059  13.623  19.220  0.00  0.00    +0.000 HD
ATOM     14  H   UNL     1      -0.087  14.755  20.145  0.00  0.00    +0.000 HD
BRANCH   9  15
ATOM     15  O   UNL     1      -1.417  11.494  19.493  0.00  0.00    +0.000 OA
ATOM     16  H   UNL     1      -1.958  11.944  20.168  0.00  0.00    +0.000 HD
ENDBRANCH   9  15
ENDBRANCH   8   9
ENDBRANCH   5   8
ENDBRANCH   1   2
BRANCH   1  17
ATOM     17  C   UNL     1       3.212   5.105  18.584  0.00  0.00    +0.000 C 
BRANCH  17  18
ATOM     18  C   UNL     1       4.632   4.825  19.075  0.00  0.00    +0.000 C 
BRANCH  18  24
ATOM     19  C   UNL     1       7.830   5.947  19.003  0.00  0.00    +0.000 C 
ATOM     20  C   UNL     1       6.920   5.402  17.982  0.00  0.00    +0.000 A 
ATOM     21  O   UNL     1       7.418   5.292  16.716  0.00  0.00    +0.000 OA
ATOM     22  C   UNL     1       6.382   4.780  15.980  0.00  0.00    +0.000 A 
ATOM     23  N   UNL     1       5.286   4.558  16.686  0.00  0.00    +0.000 NA
ATOM     24  C   UNL     1       5.618   4.948  17.968  0.00  0.00    +0.000 A 
BRANCH  22  25
ATOM     25  C   UNL     1       6.631   4.577  14.557  0.00  0.00    +0.000 A 
ATOM     26  C   UNL     1       7.573   5.354  13.858  0.00  0.00    +0.000 A 
ATOM     27  C   UNL     1       7.783   5.165  12.489  0.00  0.00    +0.000 A 
ATOM     28  C   UNL     1       7.059   4.194  11.802  0.00  0.00    +0.000 A 
ATOM     29  C   UNL     1       6.128   3.410  12.480  0.00  0.00    +0.000 A 
ATOM     30  C   UNL     1       5.918   3.601  13.847  0.00  0.00    +0.000 A 
ENDBRANCH  22  25
ENDBRANCH  18  24
ENDBRANCH  17  18
ENDBRANCH   1  17
TORSDOF 8
ENDMDL
