MODEL 1
REMARK VINA RESULT:      -8.2      0.000      0.000
REMARK  Name = 
REMARK  6 active torsions:
REMARK  status: ('A' for Active; 'I' for Inactive)
REMARK    1  A    between atoms: O_1  and  C_2
REMARK    2  A    between atoms: C_2  and  C_3
REMARK    3  A    between atoms: C_2  and  C_21
REMARK    4  A    between atoms: C_3  and  C_4
REMARK    5  A    between atoms: C_4  and  N_5
REMARK    6  A    between atoms: N_8  and  C_9
REMARK                            x       y       z     vdW  Elec       q    Type
REMARK                         _______ _______ _______ _____ _____    ______ ____
ROOT
ATOM      1  N   UNL     1       0.448   9.896  19.781  0.00  0.00    +0.000 NA
ATOM      2  C   UNL     1       0.698   9.697  18.336  0.00  0.00    +0.000 C 
ATOM      3  C   UNL     1       2.049   9.034  17.966  0.00  0.00    +0.000 C 
ATOM      4  N   UNL     1       2.236   7.770  18.712  0.00  0.00    +0.000 N 
ATOM      5  C   UNL     1       1.988   7.879  20.155  0.00  0.00    +0.000 C 
ATOM      6  C   UNL     1       0.641   8.583  20.447  0.00  0.00    +0.000 C 
ENDROOT
BRANCH   4   7
ATOM      7  C   UNL     1       2.984   6.737  18.135  0.00  0.00    +0.000 A 
ATOM      8  C   UNL     1       4.128   7.125  17.395  0.00  0.00    +0.000 A 
ATOM      9  C   UNL     1       4.935   6.217  16.715  0.00  0.00    +0.000 A 
ATOM     10  C   UNL     1       4.611   4.873  16.732  0.00  0.00    +0.000 A 
ATOM     11  C   UNL     1       3.492   4.417  17.431  0.00  0.00    +0.000 A 
ATOM     12  C   UNL     1       3.211   3.039  17.393  0.00  0.00    +0.000 A 
ATOM     13  C   UNL     1       2.118   2.504  18.063  0.00  0.00    +0.000 A 
ATOM     14  C   UNL     1       1.308   3.343  18.805  0.00  0.00    +0.000 A 
ATOM     15  C   UNL     1       1.590   4.714  18.866  0.00  0.00    +0.000 A 
ATOM     16  C   UNL     1       2.663   5.326  18.158  0.00  0.00    +0.000 A 
ENDBRANCH   4   7
BRANCH   1  17
ATOM     17  C   UNL     1       1.287  10.943  20.398  0.00  0.00    +0.000 C 
BRANCH  17  18
ATOM     18  C   UNL     1       0.516  12.262  20.597  0.00  0.00    +0.000 C 
BRANCH  18  19
ATOM     19  C   UNL     1      -0.442  12.261  21.799  0.00  0.00    +0.000 C 
BRANCH  19  20
ATOM     20  C   UNL     1      -1.892  12.427  21.415  0.00  0.00    +0.000 A 
ATOM     21  C   UNL     1      -2.338  12.478  20.108  0.00  0.00    +0.000 A 
ATOM     22  S   UNL     1      -4.010  12.728  19.974  0.00  0.00    +0.000 S 
ATOM     23  C   UNL     1      -4.220  12.723  21.678  0.00  0.00    +0.000 A 
ATOM     24  C   UNL     1      -5.439  12.881  22.370  0.00  0.00    +0.000 A 
ATOM     25  C   UNL     1      -5.438  12.831  23.763  0.00  0.00    +0.000 A 
ATOM     26  C   UNL     1      -4.251  12.629  24.442  0.00  0.00    +0.000 A 
ATOM     27  F   UNL     1      -4.264  12.565  25.780  0.00  0.00    +0.000 F 
ATOM     28  C   UNL     1      -3.039  12.487  23.764  0.00  0.00    +0.000 A 
ATOM     29  C   UNL     1      -3.004  12.536  22.349  0.00  0.00    +0.000 A 
ENDBRANCH  19  20
BRANCH  19  30
ATOM     30  O   UNL     1      -0.241  11.066  22.561  0.00  0.00    +0.000 OA
ATOM     31  H   UNL     1       0.679  11.077  22.875  0.00  0.00    +0.000 HD
ENDBRANCH  19  30
ENDBRANCH  18  19
ENDBRANCH  17  18
ENDBRANCH   1  17
TORSDOF 6
ENDMDL
MODEL 2
REMARK VINA RESULT:      -7.9      3.838      9.858
REMARK  Name = 
REMARK  6 active torsions:
REMARK  status: ('A' for Active; 'I' for Inactive)
REMARK    1  A    between atoms: O_1  and  C_2
REMARK    2  A    between atoms: C_2  and  C_3
REMARK    3  A    between atoms: C_2  and  C_21
REMARK    4  A    between atoms: C_3  and  C_4
REMARK    5  A    between atoms: C_4  and  N_5
REMARK    6  A    between atoms: N_8  and  C_9
REMARK                            x       y       z     vdW  Elec       q    Type
REMARK                         _______ _______ _______ _____ _____    ______ ____
ROOT
ATOM      1  N   UNL     1       1.223  10.942  19.116  0.00  0.00    +0.000 NA
ATOM      2  C   UNL     1       0.729  12.243  18.613  0.00  0.00    +0.000 C 
ATOM      3  C   UNL     1      -0.806  12.366  18.441  0.00  0.00    +0.000 C 
ATOM      4  N   UNL     1      -1.507  11.982  19.686  0.00  0.00    +0.000 N 
ATOM      5  C   UNL     1      -1.061  10.707  20.261  0.00  0.00    +0.000 C 
ATOM      6  C   UNL     1       0.482  10.642  20.367  0.00  0.00    +0.000 C 
ENDROOT
BRANCH   4   7
ATOM      7  C   UNL     1      -2.737  12.577  19.993  0.00  0.00    +0.000 A 
ATOM      8  C   UNL     1      -2.741  13.497  21.069  0.00  0.00    +0.000 A 
ATOM      9  C   UNL     1      -3.897  14.122  21.528  0.00  0.00    +0.000 A 
ATOM     10  C   UNL     1      -5.111  13.829  20.934  0.00  0.00    +0.000 A 
ATOM     11  C   UNL     1      -5.187  12.923  19.874  0.00  0.00    +0.000 A 
ATOM     12  C   UNL     1      -6.455  12.659  19.327  0.00  0.00    +0.000 A 
ATOM     13  C   UNL     1      -6.617  11.774  18.269  0.00  0.00    +0.000 A 
ATOM     14  C   UNL     1      -5.503  11.162  17.727  0.00  0.00    +0.000 A 
ATOM     15  C   UNL     1      -4.232  11.434  18.252  0.00  0.00    +0.000 A 
ATOM     16  C   UNL     1      -4.010  12.289  19.368  0.00  0.00    +0.000 A 
ENDBRANCH   4   7
BRANCH   1  17
ATOM     17  C   UNL     1       1.105   9.838  18.142  0.00  0.00    +0.000 C 
BRANCH  17  18
ATOM     18  C   UNL     1       2.347   8.926  18.146  0.00  0.00    +0.000 C 
BRANCH  18  19
ATOM     19  C   UNL     1       2.105   7.528  18.738  0.00  0.00    +0.000 C 
BRANCH  19  20
ATOM     20  C   UNL     1       2.985   6.458  18.137  0.00  0.00    +0.000 A 
ATOM     21  C   UNL     1       4.226   6.709  17.582  0.00  0.00    +0.000 A 
ATOM     22  S   UNL     1       4.966   5.328  16.933  0.00  0.00    +0.000 S 
ATOM     23  C   UNL     1       3.669   4.315  17.422  0.00  0.00    +0.000 A 
ATOM     24  C   UNL     1       3.575   2.922  17.218  0.00  0.00    +0.000 A 
ATOM     25  C   UNL     1       2.457   2.242  17.700  0.00  0.00    +0.000 A 
ATOM     26  C   UNL     1       1.465   2.937  18.365  0.00  0.00    +0.000 A 
ATOM     27  F   UNL     1       0.404   2.270  18.839  0.00  0.00    +0.000 F 
ATOM     28  C   UNL     1       1.545   4.316  18.558  0.00  0.00    +0.000 A 
ATOM     29  C   UNL     1       2.665   5.039  18.078  0.00  0.00    +0.000 A 
ENDBRANCH  19  20
BRANCH  19  30
ATOM     30  O   UNL     1       2.257   7.585  20.160  0.00  0.00    +0.000 OA
ATOM     31  H   UNL     1       1.389   7.817  20.532  0.00  0.00    +0.000 HD
ENDBRANCH  19  30
ENDBRANCH  18  19
ENDBRANCH  17  18
ENDBRANCH   1  17
TORSDOF 6
ENDMDL
MODEL 3
REMARK VINA RESULT:      -7.9      4.990     10.386
REMARK  Name = 
REMARK  6 active torsions:
REMARK  status: ('A' for Active; 'I' for Inactive)
REMARK    1  A    between atoms: O_1  and  C_2
REMARK    2  A    between atoms: C_2  and  C_3
REMARK    3  A    between atoms: C_2  and  C_21
REMARK    4  A    between atoms: C_3  and  C_4
REMARK    5  A    between atoms: C_4  and  N_5
REMARK    6  A    between atoms: N_8  and  C_9
REMARK                            x       y       z     vdW  Elec       q    Type
REMARK                         _______ _______ _______ _____ _____    ______ ____
ROOT
ATOM      1  N   UNL     1       3.039   6.826  18.588  0.00  0.00    +0.000 NA
ATOM      2  C   UNL     1       2.989   8.100  17.837  0.00  0.00    +0.000 C 
ATOM      3  C   UNL     1       1.640   8.862  17.883  0.00  0.00    +0.000 C 
ATOM      4  N   UNL     1       1.194   9.056  19.280  0.00  0.00    +0.000 N 
ATOM      5  C   UNL     1       1.231   7.839  20.100  0.00  0.00    +0.000 C 
ATOM      6  C   UNL     1       2.593   7.113  19.974  0.00  0.00    +0.000 C 
ENDROOT
BRANCH   4   7
ATOM      7  C   UNL     1       0.424  10.180  19.605  0.00  0.00    +0.000 A 
ATOM      8  C   UNL     1       0.922  11.006  20.643  0.00  0.00    +0.000 A 
ATOM      9  C   UNL     1       0.241  12.123  21.116  0.00  0.00    +0.000 A 
ATOM     10  C   UNL     1      -0.992  12.447  20.578  0.00  0.00    +0.000 A 
ATOM     11  C   UNL     1      -1.552  11.673  19.560  0.00  0.00    +0.000 A 
ATOM     12  C   UNL     1      -2.815  12.049  19.069  0.00  0.00    +0.000 A 
ATOM     13  C   UNL     1      -3.441  11.335  18.056  0.00  0.00    +0.000 A 
ATOM     14  C   UNL     1      -2.792  10.248  17.500  0.00  0.00    +0.000 A 
ATOM     15  C   UNL     1      -1.525   9.876  17.968  0.00  0.00    +0.000 A 
ATOM     16  C   UNL     1      -0.859  10.537  19.039  0.00  0.00    +0.000 A 
ENDBRANCH   4   7
BRANCH   1  17
ATOM     17  C   UNL     1       2.246   5.739  17.980  0.00  0.00    +0.000 C 
BRANCH  17  18
ATOM     18  C   UNL     1       2.356   4.425  18.777  0.00  0.00    +0.000 C 
BRANCH  18  19
ATOM     19  C   UNL     1       3.378   3.424  18.214  0.00  0.00    +0.000 C 
BRANCH  19  20
ATOM     20  C   UNL     1       4.743   4.026  17.977  0.00  0.00    +0.000 A 
ATOM     21  C   UNL     1       5.577   4.457  18.991  0.00  0.00    +0.000 A 
ATOM     22  S   UNL     1       7.024   5.141  18.429  0.00  0.00    +0.000 S 
ATOM     23  C   UNL     1       6.616   4.834  16.789  0.00  0.00    +0.000 A 
ATOM     24  C   UNL     1       7.404   5.144  15.660  0.00  0.00    +0.000 A 
ATOM     25  C   UNL     1       6.932   4.805  14.393  0.00  0.00    +0.000 A 
ATOM     26  C   UNL     1       5.709   4.176  14.261  0.00  0.00    +0.000 A 
ATOM     27  F   UNL     1       5.274   3.840  13.039  0.00  0.00    +0.000 F 
ATOM     28  C   UNL     1       4.919   3.879  15.372  0.00  0.00    +0.000 A 
ATOM     29  C   UNL     1       5.366   4.212  16.674  0.00  0.00    +0.000 A 
ENDBRANCH  19  20
BRANCH  19  30
ATOM     30  O   UNL     1       3.456   2.291  19.084  0.00  0.00    +0.000 OA
ATOM     31  H   UNL     1       3.187   1.513  18.567  0.00  0.00    +0.000 HD
ENDBRANCH  19  30
ENDBRANCH  18  19
ENDBRANCH  17  18
ENDBRANCH   1  17
TORSDOF 6
ENDMDL
MODEL 4
REMARK VINA RESULT:      -7.8      2.318      2.748
REMARK  Name = 
REMARK  6 active torsions:
REMARK  status: ('A' for Active; 'I' for Inactive)
REMARK    1  A    between atoms: O_1  and  C_2
REMARK    2  A    between atoms: C_2  and  C_3
REMARK    3  A    between atoms: C_2  and  C_21
REMARK    4  A    between atoms: C_3  and  C_4
REMARK    5  A    between atoms: C_4  and  N_5
REMARK    6  A    between atoms: N_8  and  C_9
REMARK                            x       y       z     vdW  Elec       q    Type
REMARK                         _______ _______ _______ _____ _____    ______ ____
ROOT
ATOM      1  N   UNL     1       0.197  10.239  19.668  0.00  0.00    +0.000 NA
ATOM      2  C   UNL     1       0.474   9.737  18.304  0.00  0.00    +0.000 C 
ATOM      3  C   UNL     1       1.802   8.958  18.124  0.00  0.00    +0.000 C 
ATOM      4  N   UNL     1       1.911   7.868  19.118  0.00  0.00    +0.000 N 
ATOM      5  C   UNL     1       1.632   8.282  20.499  0.00  0.00    +0.000 C 
ATOM      6  C   UNL     1       0.312   9.085  20.595  0.00  0.00    +0.000 C 
ENDROOT
BRANCH   4   7
ATOM      7  C   UNL     1       2.624   6.708  18.791  0.00  0.00    +0.000 A 
ATOM      8  C   UNL     1       3.645   6.850  17.820  0.00  0.00    +0.000 A 
ATOM      9  C   UNL     1       4.398   5.779  17.349  0.00  0.00    +0.000 A 
ATOM     10  C   UNL     1       4.140   4.505  17.821  0.00  0.00    +0.000 A 
ATOM     11  C   UNL     1       3.140   4.286  18.771  0.00  0.00    +0.000 A 
ATOM     12  C   UNL     1       2.918   2.964  19.197  0.00  0.00    +0.000 A 
ATOM     13  C   UNL     1       1.945   2.660  20.140  0.00  0.00    +0.000 A 
ATOM     14  C   UNL     1       1.200   3.686  20.692  0.00  0.00    +0.000 A 
ATOM     15  C   UNL     1       1.427   5.009  20.290  0.00  0.00    +0.000 A 
ATOM     16  C   UNL     1       2.371   5.374  19.289  0.00  0.00    +0.000 A 
ENDBRANCH   4   7
BRANCH   1  17
ATOM     17  C   UNL     1       1.069  11.356  20.085  0.00  0.00    +0.000 C 
BRANCH  17  18
ATOM     18  C   UNL     1       0.493  12.725  19.676  0.00  0.00    +0.000 C 
BRANCH  18  19
ATOM     19  C   UNL     1      -0.907  12.661  19.045  0.00  0.00    +0.000 C 
BRANCH  19  20
ATOM     20  C   UNL     1      -2.026  12.872  20.036  0.00  0.00    +0.000 A 
ATOM     21  C   UNL     1      -1.859  13.495  21.259  0.00  0.00    +0.000 A 
ATOM     22  S   UNL     1      -3.276  13.542  22.191  0.00  0.00    +0.000 S 
ATOM     23  C   UNL     1      -4.196  12.774  20.961  0.00  0.00    +0.000 A 
ATOM     24  C   UNL     1      -5.571  12.461  21.019  0.00  0.00    +0.000 A 
ATOM     25  C   UNL     1      -6.173  11.854  19.918  0.00  0.00    +0.000 A 
ATOM     26  C   UNL     1      -5.420  11.567  18.795  0.00  0.00    +0.000 A 
ATOM     27  F   UNL     1      -6.013  10.999  17.736  0.00  0.00    +0.000 F 
ATOM     28  C   UNL     1      -4.057  11.861  18.736  0.00  0.00    +0.000 A 
ATOM     29  C   UNL     1      -3.413  12.476  19.838  0.00  0.00    +0.000 A 
ENDBRANCH  19  20
BRANCH  19  30
ATOM     30  O   UNL     1      -0.983  13.603  17.970  0.00  0.00    +0.000 OA
ATOM     31  H   UNL     1      -0.617  13.168  17.181  0.00  0.00    +0.000 HD
ENDBRANCH  19  30
ENDBRANCH  18  19
ENDBRANCH  17  18
ENDBRANCH   1  17
TORSDOF 6
ENDMDL
MODEL 5
REMARK VINA RESULT:      -7.8      2.786      4.243
REMARK  Name = 
REMARK  6 active torsions:
REMARK  status: ('A' for Active; 'I' for Inactive)
REMARK    1  A    between atoms: O_1  and  C_2
REMARK    2  A    between atoms: C_2  and  C_3
REMARK    3  A    between atoms: C_2  and  C_21
REMARK    4  A    between atoms: C_3  and  C_4
REMARK    5  A    between atoms: C_4  and  N_5
REMARK    6  A    between atoms: N_8  and  C_9
REMARK                            x       y       z     vdW  Elec       q    Type
REMARK                         _______ _______ _______ _____ _____    ______ ____
ROOT
ATOM      1  N   UNL     1       1.380   9.748  19.825  0.00  0.00    +0.000 NA
ATOM      2  C   UNL     1       1.928   8.602  20.585  0.00  0.00    +0.000 C 
ATOM      3  C   UNL     1       1.770   7.210  19.922  0.00  0.00    +0.000 C 
ATOM      4  N   UNL     1       2.293   7.224  18.539  0.00  0.00    +0.000 N 
ATOM      5  C   UNL     1       1.809   8.344  17.721  0.00  0.00    +0.000 C 
ATOM      6  C   UNL     1       1.965   9.694  18.462  0.00  0.00    +0.000 C 
ENDROOT
BRANCH   4   7
ATOM      7  C   UNL     1       2.829   6.049  17.995  0.00  0.00    +0.000 A 
ATOM      8  C   UNL     1       1.980   4.916  17.984  0.00  0.00    +0.000 A 
ATOM      9  C   UNL     1       2.390   3.666  17.531  0.00  0.00    +0.000 A 
ATOM     10  C   UNL     1       3.690   3.494  17.089  0.00  0.00    +0.000 A 
ATOM     11  C   UNL     1       4.588   4.564  17.083  0.00  0.00    +0.000 A 
ATOM     12  C   UNL     1       5.898   4.316  16.636  0.00  0.00    +0.000 A 
ATOM     13  C   UNL     1       6.852   5.325  16.595  0.00  0.00    +0.000 A 
ATOM     14  C   UNL     1       6.494   6.605  16.976  0.00  0.00    +0.000 A 
ATOM     15  C   UNL     1       5.186   6.866  17.404  0.00  0.00    +0.000 A 
ATOM     16  C   UNL     1       4.182   5.863  17.518  0.00  0.00    +0.000 A 
ENDBRANCH   4   7
BRANCH   1  17
ATOM     17  C   UNL     1      -0.096   9.786  19.778  0.00  0.00    +0.000 C 
BRANCH  17  18
ATOM     18  C   UNL     1      -0.685  10.748  20.826  0.00  0.00    +0.000 C 
BRANCH  18  19
ATOM     19  C   UNL     1      -1.079  12.127  20.271  0.00  0.00    +0.000 C 
BRANCH  19  20
ATOM     20  C   UNL     1      -2.511  12.201  19.798  0.00  0.00    +0.000 A 
ATOM     21  C   UNL     1      -3.546  12.703  20.563  0.00  0.00    +0.000 A 
ATOM     22  S   UNL     1      -5.057  12.610  19.799  0.00  0.00    +0.000 S 
ATOM     23  C   UNL     1      -4.374  11.938  18.373  0.00  0.00    +0.000 A 
ATOM     24  C   UNL     1      -5.075  11.575  17.203  0.00  0.00    +0.000 A 
ATOM     25  C   UNL     1      -4.362  11.060  16.122  0.00  0.00    +0.000 A 
ATOM     26  C   UNL     1      -2.991  10.912  16.210  0.00  0.00    +0.000 A 
ATOM     27  F   UNL     1      -2.314  10.432  15.158  0.00  0.00    +0.000 F 
ATOM     28  C   UNL     1      -2.294  11.256  17.370  0.00  0.00    +0.000 A 
ATOM     29  C   UNL     1      -2.988  11.779  18.488  0.00  0.00    +0.000 A 
ENDBRANCH  19  20
BRANCH  19  30
ATOM     30  O   UNL     1      -0.807  13.127  21.259  0.00  0.00    +0.000 OA
ATOM     31  H   UNL     1      -0.877  13.991  20.818  0.00  0.00    +0.000 HD
ENDBRANCH  19  30
ENDBRANCH  18  19
ENDBRANCH  17  18
ENDBRANCH   1  17
TORSDOF 6
ENDMDL
MODEL 6
REMARK VINA RESULT:      -7.8      1.989      2.686
REMARK  Name = 
REMARK  6 active torsions:
REMARK  status: ('A' for Active; 'I' for Inactive)
REMARK    1  A    between atoms: O_1  and  C_2
REMARK    2  A    between atoms: C_2  and  C_3
REMARK    3  A    between atoms: C_2  and  C_21
REMARK    4  A    between atoms: C_3  and  C_4
REMARK    5  A    between atoms: C_4  and  N_5
REMARK    6  A    between atoms: N_8  and  C_9
REMARK                            x       y       z     vdW  Elec       q    Type
REMARK                         _______ _______ _______ _____ _____    ______ ____
ROOT
ATOM      1  N   UNL     1       1.070   9.897  19.771  0.00  0.00    +0.000 NA
ATOM      2  C   UNL     1       1.677   8.808  20.567  0.00  0.00    +0.000 C 
ATOM      3  C   UNL     1       1.780   7.430  19.866  0.00  0.00    +0.000 C 
ATOM      4  N   UNL     1       2.448   7.557  18.553  0.00  0.00    +0.000 N 
ATOM      5  C   UNL     1       1.915   8.632  17.706  0.00  0.00    +0.000 C 
ATOM      6  C   UNL     1       1.806   9.965  18.484  0.00  0.00    +0.000 C 
ENDROOT
BRANCH   4   7
ATOM      7  C   UNL     1       3.193   6.481  18.054  0.00  0.00    +0.000 A 
ATOM      8  C   UNL     1       4.397   6.806  17.382  0.00  0.00    +0.000 A 
ATOM      9  C   UNL     1       5.212   5.850  16.783  0.00  0.00    +0.000 A 
ATOM     10  C   UNL     1       4.836   4.519  16.813  0.00  0.00    +0.000 A 
ATOM     11  C   UNL     1       3.657   4.125  17.447  0.00  0.00    +0.000 A 
ATOM     12  C   UNL     1       3.326   2.758  17.427  0.00  0.00    +0.000 A 
ATOM     13  C   UNL     1       2.173   2.282  18.036  0.00  0.00    +0.000 A 
ATOM     14  C   UNL     1       1.348   3.171  18.700  0.00  0.00    +0.000 A 
ATOM     15  C   UNL     1       1.678   4.532  18.743  0.00  0.00    +0.000 A 
ATOM     16  C   UNL     1       2.817   5.085  18.093  0.00  0.00    +0.000 A 
ENDBRANCH   4   7
BRANCH   1  17
ATOM     17  C   UNL     1      -0.383   9.745  19.554  0.00  0.00    +0.000 C 
BRANCH  17  18
ATOM     18  C   UNL     1      -0.840  10.374  18.224  0.00  0.00    +0.000 C 
BRANCH  18  19
ATOM     19  C   UNL     1      -1.653  11.669  18.381  0.00  0.00    +0.000 C 
BRANCH  19  20
ATOM     20  C   UNL     1      -0.975  12.707  19.243  0.00  0.00    +0.000 A 
ATOM     21  C   UNL     1      -0.039  13.606  18.767  0.00  0.00    +0.000 A 
ATOM     22  S   UNL     1       0.598  14.617  19.970  0.00  0.00    +0.000 S 
ATOM     23  C   UNL     1      -0.403  13.926  21.182  0.00  0.00    +0.000 A 
ATOM     24  C   UNL     1      -0.440  14.293  22.544  0.00  0.00    +0.000 A 
ATOM     25  C   UNL     1      -1.331  13.643  23.395  0.00  0.00    +0.000 A 
ATOM     26  C   UNL     1      -2.159  12.654  22.898  0.00  0.00    +0.000 A 
ATOM     27  F   UNL     1      -3.023  12.047  23.722  0.00  0.00    +0.000 F 
ATOM     28  C   UNL     1      -2.117  12.276  21.555  0.00  0.00    +0.000 A 
ATOM     29  C   UNL     1      -1.221  12.914  20.663  0.00  0.00    +0.000 A 
ENDBRANCH  19  20
BRANCH  19  30
ATOM     30  O   UNL     1      -1.960  12.193  17.085  0.00  0.00    +0.000 OA
ATOM     31  H   UNL     1      -1.143  12.155  16.559  0.00  0.00    +0.000 HD
ENDBRANCH  19  30
ENDBRANCH  18  19
ENDBRANCH  17  18
ENDBRANCH   1  17
TORSDOF 6
ENDMDL
MODEL 7
REMARK VINA RESULT:      -7.8      3.693     10.129
REMARK  Name = 
REMARK  6 active torsions:
REMARK  status: ('A' for Active; 'I' for Inactive)
REMARK    1  A    between atoms: O_1  and  C_2
REMARK    2  A    between atoms: C_2  and  C_3
REMARK    3  A    between atoms: C_2  and  C_21
REMARK    4  A    between atoms: C_3  and  C_4
REMARK    5  A    between atoms: C_4  and  N_5
REMARK    6  A    between atoms: N_8  and  C_9
REMARK                            x       y       z     vdW  Elec       q    Type
REMARK                         _______ _______ _______ _____ _____    ______ ____
ROOT
ATOM      1  N   UNL     1       0.227   9.711  19.525  0.00  0.00    +0.000 NA
ATOM      2  C   UNL     1       0.214  10.142  20.940  0.00  0.00    +0.000 C 
ATOM      3  C   UNL     1       0.130  11.670  21.184  0.00  0.00    +0.000 C 
ATOM      4  N   UNL     1      -1.007  12.259  20.443  0.00  0.00    +0.000 N 
ATOM      5  C   UNL     1      -1.075  11.864  19.030  0.00  0.00    +0.000 C 
ATOM      6  C   UNL     1      -0.947  10.331  18.863  0.00  0.00    +0.000 C 
ENDROOT
BRANCH   4   7
ATOM      7  C   UNL     1      -1.651  13.391  20.959  0.00  0.00    +0.000 A 
ATOM      8  C   UNL     1      -1.367  14.622  20.320  0.00  0.00    +0.000 A 
ATOM      9  C   UNL     1      -1.883  15.839  20.755  0.00  0.00    +0.000 A 
ATOM     10  C   UNL     1      -2.695  15.873  21.874  0.00  0.00    +0.000 A 
ATOM     11  C   UNL     1      -3.009  14.700  22.563  0.00  0.00    +0.000 A 
ATOM     12  C   UNL     1      -3.827  14.807  23.702  0.00  0.00    +0.000 A 
ATOM     13  C   UNL     1      -4.189  13.689  24.442  0.00  0.00    +0.000 A 
ATOM     14  C   UNL     1      -3.758  12.442  24.031  0.00  0.00    +0.000 A 
ATOM     15  C   UNL     1      -2.959  12.322  22.886  0.00  0.00    +0.000 A 
ATOM     16  C   UNL     1      -2.513  13.435  22.119  0.00  0.00    +0.000 A 
ENDBRANCH   4   7
BRANCH   1  17
ATOM     17  C   UNL     1       1.480  10.032  18.812  0.00  0.00    +0.000 C 
BRANCH  17  18
ATOM     18  C   UNL     1       2.006   8.836  17.996  0.00  0.00    +0.000 C 
BRANCH  18  19
ATOM     19  C   UNL     1       1.989   7.496  18.750  0.00  0.00    +0.000 C 
BRANCH  19  20
ATOM     20  C   UNL     1       2.892   6.450  18.143  0.00  0.00    +0.000 A 
ATOM     21  C   UNL     1       4.118   6.734  17.572  0.00  0.00    +0.000 A 
ATOM     22  S   UNL     1       4.890   5.373  16.918  0.00  0.00    +0.000 S 
ATOM     23  C   UNL     1       3.628   4.324  17.427  0.00  0.00    +0.000 A 
ATOM     24  C   UNL     1       3.571   2.929  17.228  0.00  0.00    +0.000 A 
ATOM     25  C   UNL     1       2.480   2.219  17.726  0.00  0.00    +0.000 A 
ATOM     26  C   UNL     1       1.476   2.887  18.401  0.00  0.00    +0.000 A 
ATOM     27  F   UNL     1       0.440   2.193  18.890  0.00  0.00    +0.000 F 
ATOM     28  C   UNL     1       1.519   4.270  18.588  0.00  0.00    +0.000 A 
ATOM     29  C   UNL     1       2.612   5.022  18.092  0.00  0.00    +0.000 A 
ENDBRANCH  19  20
BRANCH  19  30
ATOM     30  O   UNL     1       2.313   7.726  20.125  0.00  0.00    +0.000 OA
ATOM     31  H   UNL     1       3.282   7.696  20.200  0.00  0.00    +0.000 HD
ENDBRANCH  19  30
ENDBRANCH  18  19
ENDBRANCH  17  18
ENDBRANCH   1  17
TORSDOF 6
ENDMDL
MODEL 8
REMARK VINA RESULT:      -7.8      2.406      3.640
REMARK  Name = 
REMARK  6 active torsions:
REMARK  status: ('A' for Active; 'I' for Inactive)
REMARK    1  A    between atoms: O_1  and  C_2
REMARK    2  A    between atoms: C_2  and  C_3
REMARK    3  A    between atoms: C_2  and  C_21
REMARK    4  A    between atoms: C_3  and  C_4
REMARK    5  A    between atoms: C_4  and  N_5
REMARK    6  A    between atoms: N_8  and  C_9
REMARK                            x       y       z     vdW  Elec       q    Type
REMARK                         _______ _______ _______ _____ _____    ______ ____
ROOT
ATOM      1  N   UNL     1       1.226   9.847  19.758  0.00  0.00    +0.000 NA
ATOM      2  C   UNL     1       1.740   8.707  20.550  0.00  0.00    +0.000 C 
ATOM      3  C   UNL     1       1.641   7.314  19.878  0.00  0.00    +0.000 C 
ATOM      4  N   UNL     1       2.250   7.336  18.530  0.00  0.00    +0.000 N 
ATOM      5  C   UNL     1       1.804   8.451  17.685  0.00  0.00    +0.000 C 
ATOM      6  C   UNL     1       1.896   9.802  18.434  0.00  0.00    +0.000 C 
ENDROOT
BRANCH   4   7
ATOM      7  C   UNL     1       2.834   6.169  18.022  0.00  0.00    +0.000 A 
ATOM      8  C   UNL     1       2.015   5.014  17.998  0.00  0.00    +0.000 A 
ATOM      9  C   UNL     1       2.472   3.769  17.577  0.00  0.00    +0.000 A 
ATOM     10  C   UNL     1       3.789   3.625  17.180  0.00  0.00    +0.000 A 
ATOM     11  C   UNL     1       4.659   4.718  17.188  0.00  0.00    +0.000 A 
ATOM     12  C   UNL     1       5.990   4.499  16.788  0.00  0.00    +0.000 A 
ATOM     13  C   UNL     1       6.918   5.531  16.764  0.00  0.00    +0.000 A 
ATOM     14  C   UNL     1       6.515   6.806  17.115  0.00  0.00    +0.000 A 
ATOM     15  C   UNL     1       5.187   7.039  17.496  0.00  0.00    +0.000 A 
ATOM     16  C   UNL     1       4.206   6.012  17.591  0.00  0.00    +0.000 A 
ENDBRANCH   4   7
BRANCH   1  17
ATOM     17  C   UNL     1      -0.244   9.866  19.618  0.00  0.00    +0.000 C 
BRANCH  17  18
ATOM     18  C   UNL     1      -0.830  11.272  19.851  0.00  0.00    +0.000 C 
BRANCH  18  19
ATOM     19  C   UNL     1      -1.112  12.063  18.563  0.00  0.00    +0.000 C 
BRANCH  19  20
ATOM     20  C   UNL     1      -2.385  11.645  17.865  0.00  0.00    +0.000 A 
ATOM     21  C   UNL     1      -2.417  11.077  16.606  0.00  0.00    +0.000 A 
ATOM     22  S   UNL     1      -3.988  10.762  16.048  0.00  0.00    +0.000 S 
ATOM     23  C   UNL     1      -4.696  11.326  17.507  0.00  0.00    +0.000 A 
ATOM     24  C   UNL     1      -6.075  11.366  17.805  0.00  0.00    +0.000 A 
ATOM     25  C   UNL     1      -6.484  11.836  19.052  0.00  0.00    +0.000 A 
ATOM     26  C   UNL     1      -5.540  12.255  19.971  0.00  0.00    +0.000 A 
ATOM     27  F   UNL     1      -5.944  12.689  21.172  0.00  0.00    +0.000 F 
ATOM     28  C   UNL     1      -4.176  12.231  19.677  0.00  0.00    +0.000 A 
ATOM     29  C   UNL     1      -3.727  11.763  18.419  0.00  0.00    +0.000 A 
ENDBRANCH  19  20
BRANCH  19  30
ATOM     30  O   UNL     1      -1.121  13.462  18.862  0.00  0.00    +0.000 OA
ATOM     31  H   UNL     1      -1.341  13.930  18.038  0.00  0.00    +0.000 HD
ENDBRANCH  19  30
ENDBRANCH  18  19
ENDBRANCH  17  18
ENDBRANCH   1  17
TORSDOF 6
ENDMDL
MODEL 9
REMARK VINA RESULT:      -7.8      2.485      3.129
REMARK  Name = 
REMARK  6 active torsions:
REMARK  status: ('A' for Active; 'I' for Inactive)
REMARK    1  A    between atoms: O_1  and  C_2
REMARK    2  A    between atoms: C_2  and  C_3
REMARK    3  A    between atoms: C_2  and  C_21
REMARK    4  A    between atoms: C_3  and  C_4
REMARK    5  A    between atoms: C_4  and  N_5
REMARK    6  A    between atoms: N_8  and  C_9
REMARK                            x       y       z     vdW  Elec       q    Type
REMARK                         _______ _______ _______ _____ _____    ______ ____
ROOT
ATOM      1  N   UNL     1       0.710  10.428  19.621  0.00  0.00    +0.000 NA
ATOM      2  C   UNL     1       1.332   9.585  20.667  0.00  0.00    +0.000 C 
ATOM      3  C   UNL     1       1.438   8.072  20.346  0.00  0.00    +0.000 C 
ATOM      4  N   UNL     1       2.093   7.857  19.037  0.00  0.00    +0.000 N 
ATOM      5  C   UNL     1       1.545   8.673  17.946  0.00  0.00    +0.000 C 
ATOM      6  C   UNL     1       1.434  10.162  18.353  0.00  0.00    +0.000 C 
ENDROOT
BRANCH   4   7
ATOM      7  C   UNL     1       2.841   6.692  18.827  0.00  0.00    +0.000 A 
ATOM      8  C   UNL     1       3.897   6.781  17.888  0.00  0.00    +0.000 A 
ATOM      9  C   UNL     1       4.688   5.694  17.531  0.00  0.00    +0.000 A 
ATOM     10  C   UNL     1       4.434   4.454  18.089  0.00  0.00    +0.000 A 
ATOM     11  C   UNL     1       3.402   4.287  19.014  0.00  0.00    +0.000 A 
ATOM     12  C   UNL     1       3.187   2.996  19.531  0.00  0.00    +0.000 A 
ATOM     13  C   UNL     1       2.183   2.744  20.457  0.00  0.00    +0.000 A 
ATOM     14  C   UNL     1       1.398   3.792  20.899  0.00  0.00    +0.000 A 
ATOM     15  C   UNL     1       1.616   5.085  20.405  0.00  0.00    +0.000 A 
ATOM     16  C   UNL     1       2.593   5.394  19.417  0.00  0.00    +0.000 A 
ENDBRANCH   4   7
BRANCH   1  17
ATOM     17  C   UNL     1      -0.743  10.218  19.467  0.00  0.00    +0.000 C 
BRANCH  17  18
ATOM     18  C   UNL     1      -1.227  10.537  18.039  0.00  0.00    +0.000 C 
BRANCH  18  19
ATOM     19  C   UNL     1      -1.882  11.920  17.885  0.00  0.00    +0.000 C 
BRANCH  19  20
ATOM     20  C   UNL     1      -2.675  12.349  19.096  0.00  0.00    +0.000 A 
ATOM     21  C   UNL     1      -2.151  13.108  20.126  0.00  0.00    +0.000 A 
ATOM     22  S   UNL     1      -3.255  13.393  21.382  0.00  0.00    +0.000 S 
ATOM     23  C   UNL     1      -4.511  12.553  20.566  0.00  0.00    +0.000 A 
ATOM     24  C   UNL     1      -5.830  12.367  21.031  0.00  0.00    +0.000 A 
ATOM     25  C   UNL     1      -6.737  11.675  20.231  0.00  0.00    +0.000 A 
ATOM     26  C   UNL     1      -6.336  11.185  19.003  0.00  0.00    +0.000 A 
ATOM     27  F   UNL     1      -7.221  10.536  18.235  0.00  0.00    +0.000 F 
ATOM     28  C   UNL     1      -5.029  11.353  18.543  0.00  0.00    +0.000 A 
ATOM     29  C   UNL     1      -4.080  12.048  19.333  0.00  0.00    +0.000 A 
ENDBRANCH  19  20
BRANCH  19  30
ATOM     30  O   UNL     1      -0.877  12.883  17.556  0.00  0.00    +0.000 OA
ATOM     31  H   UNL     1      -1.334  13.717  17.352  0.00  0.00    +0.000 HD
ENDBRANCH  19  30
ENDBRANCH  18  19
ENDBRANCH  17  18
ENDBRANCH   1  17
TORSDOF 6
ENDMDL
