MODEL 1
REMARK VINA RESULT:      -8.0      0.000      0.000
REMARK  Name = 
REMARK  3 active torsions:
REMARK  status: ('A' for Active; 'I' for Inactive)
REMARK    1  A    between atoms: C_1  and  C_2
REMARK    2  A    between atoms: C_4  and  N_5
REMARK    3  A    between atoms: N_16  and  C_17
REMARK                            x       y       z     vdW  Elec       q    Type
REMARK                         _______ _______ _______ _____ _____    ______ ____
ROOT
ATOM      1  C   UNL     1       3.207   3.793  19.977  0.00  0.00    +0.000 C 
ATOM      2  C   UNL     1       3.068   5.194  19.441  0.00  0.00    +0.000 A 
ATOM      3  C   UNL     1       2.197   6.098  20.090  0.00  0.00    +0.000 A 
ATOM      4  C   UNL     1       2.053   7.411  19.644  0.00  0.00    +0.000 A 
ATOM      5  C   UNL     1       2.757   7.762  18.487  0.00  0.00    +0.000 A 
ATOM      6  C   UNL     1       3.622   6.894  17.846  0.00  0.00    +0.000 A 
ATOM      7  N   UNL     1       4.288   7.319  16.771  0.00  0.00    +0.000 NA
ATOM      8  N   UNL     1       5.171   6.489  16.174  0.00  0.00    +0.000 NA
ATOM      9  C   UNL     1       5.362   5.243  16.656  0.00  0.00    +0.000 A 
ATOM     10  N   UNL     1       6.304   4.405  16.053  0.00  0.00    +0.000 N 
ATOM     11  N   UNL     1       4.695   4.763  17.718  0.00  0.00    +0.000 NA
ATOM     12  C   UNL     1       3.813   5.593  18.321  0.00  0.00    +0.000 A 
ATOM     13  H   UNL     1       6.206   3.484  16.459  0.00  0.00    +0.000 HD
ENDROOT
BRANCH   4  14
ATOM     14  N   UNL     1       1.255   8.368  20.258  0.00  0.00    +0.000 N 
ATOM     15  C   UNL     1       1.310   8.600  21.703  0.00  0.00    +0.000 C 
ATOM     16  C   UNL     1      -0.045   9.156  22.156  0.00  0.00    +0.000 C 
ATOM     17  C   UNL     1      -0.474  10.382  21.344  0.00  0.00    +0.000 C 
ATOM     18  C   UNL     1      -0.376  10.124  19.842  0.00  0.00    +0.000 C 
ATOM     19  C   UNL     1       1.003   9.588  19.470  0.00  0.00    +0.000 C 
ENDBRANCH   4  14
BRANCH  10  20
ATOM     20  C   UNL     1       6.612   4.387  14.680  0.00  0.00    +0.000 A 
ATOM     21  C   UNL     1       5.899   3.549  13.822  0.00  0.00    +0.000 A 
ATOM     22  C   UNL     1       6.177   3.551  12.455  0.00  0.00    +0.000 A 
ATOM     23  C   UNL     1       7.146   4.417  11.977  0.00  0.00    +0.000 A 
ATOM     24  N   UNL     1       7.840   5.264  12.764  0.00  0.00    +0.000 NA
ATOM     25  C   UNL     1       7.564   5.222  14.090  0.00  0.00    +0.000 A 
ENDBRANCH  10  20
TORSDOF 2
ENDMDL
MODEL 2
REMARK VINA RESULT:      -7.9      1.173      1.821
REMARK  Name = 
REMARK  3 active torsions:
REMARK  status: ('A' for Active; 'I' for Inactive)
REMARK    1  A    between atoms: C_1  and  C_2
REMARK    2  A    between atoms: C_4  and  N_5
REMARK    3  A    between atoms: N_16  and  C_17
REMARK                            x       y       z     vdW  Elec       q    Type
REMARK                         _______ _______ _______ _____ _____    ______ ____
ROOT
ATOM      1  C   UNL     1       1.995   4.361  21.017  0.00  0.00    +0.000 C 
ATOM      2  C   UNL     1       2.018   5.755  20.446  0.00  0.00    +0.000 A 
ATOM      3  C   UNL     1       1.151   6.734  20.981  0.00  0.00    +0.000 A 
ATOM      4  C   UNL     1       1.154   8.043  20.501  0.00  0.00    +0.000 A 
ATOM      5  C   UNL     1       2.003   8.315  19.422  0.00  0.00    +0.000 A 
ATOM      6  C   UNL     1       2.866   7.373  18.894  0.00  0.00    +0.000 A 
ATOM      7  N   UNL     1       3.674   7.723  17.893  0.00  0.00    +0.000 NA
ATOM      8  N   UNL     1       4.554   6.818  17.410  0.00  0.00    +0.000 NA
ATOM      9  C   UNL     1       4.598   5.574  17.930  0.00  0.00    +0.000 A 
ATOM     10  N   UNL     1       5.536   4.656  17.448  0.00  0.00    +0.000 N 
ATOM     11  N   UNL     1       3.787   5.168  18.920  0.00  0.00    +0.000 NA
ATOM     12  C   UNL     1       2.908   6.073  19.409  0.00  0.00    +0.000 A 
ATOM     13  H   UNL     1       5.327   3.754  17.856  0.00  0.00    +0.000 HD
ENDROOT
BRANCH   4  14
ATOM     14  N   UNL     1       0.366   9.070  21.007  0.00  0.00    +0.000 N 
ATOM     15  C   UNL     1      -0.311  10.022  20.124  0.00  0.00    +0.000 C 
ATOM     16  C   UNL     1      -0.511  11.334  20.891  0.00  0.00    +0.000 C 
ATOM     17  C   UNL     1      -1.213  11.123  22.236  0.00  0.00    +0.000 C 
ATOM     18  C   UNL     1      -0.545  10.019  23.053  0.00  0.00    +0.000 C 
ATOM     19  C   UNL     1      -0.396   8.746  22.227  0.00  0.00    +0.000 C 
ENDBRANCH   4  14
BRANCH  10  20
ATOM     20  C   UNL     1       5.990   4.583  16.118  0.00  0.00    +0.000 A 
ATOM     21  C   UNL     1       5.206   3.945  15.154  0.00  0.00    +0.000 A 
ATOM     22  C   UNL     1       5.634   3.898  13.828  0.00  0.00    +0.000 A 
ATOM     23  C   UNL     1       6.826   4.519  13.493  0.00  0.00    +0.000 A 
ATOM     24  N   UNL     1       7.601   5.171  14.384  0.00  0.00    +0.000 NA
ATOM     25  C   UNL     1       7.170   5.179  15.669  0.00  0.00    +0.000 A 
ENDBRANCH  10  20
TORSDOF 2
ENDMDL
MODEL 3
REMARK VINA RESULT:      -7.8      3.975      5.931
REMARK  Name = 
REMARK  3 active torsions:
REMARK  status: ('A' for Active; 'I' for Inactive)
REMARK    1  A    between atoms: C_1  and  C_2
REMARK    2  A    between atoms: C_4  and  N_5
REMARK    3  A    between atoms: N_16  and  C_17
REMARK                            x       y       z     vdW  Elec       q    Type
REMARK                         _______ _______ _______ _____ _____    ______ ____
ROOT
ATOM      1  C   UNL     1      -0.027   9.434  23.112  0.00  0.00    +0.000 C 
ATOM      2  C   UNL     1       0.385   9.863  21.728  0.00  0.00    +0.000 A 
ATOM      3  C   UNL     1       0.150  11.195  21.320  0.00  0.00    +0.000 A 
ATOM      4  C   UNL     1       0.535  11.644  20.057  0.00  0.00    +0.000 A 
ATOM      5  C   UNL     1       1.097  10.694  19.197  0.00  0.00    +0.000 A 
ATOM      6  C   UNL     1       1.345   9.389  19.584  0.00  0.00    +0.000 A 
ATOM      7  N   UNL     1       1.922   8.556  18.718  0.00  0.00    +0.000 NA
ATOM      8  N   UNL     1       2.212   7.295  19.111  0.00  0.00    +0.000 NA
ATOM      9  C   UNL     1       1.904   6.889  20.361  0.00  0.00    +0.000 A 
ATOM     10  N   UNL     1       2.240   5.595  20.770  0.00  0.00    +0.000 N 
ATOM     11  N   UNL     1       1.299   7.684  21.258  0.00  0.00    +0.000 NA
ATOM     12  C   UNL     1       1.012   8.948  20.869  0.00  0.00    +0.000 A 
ATOM     13  H   UNL     1       1.814   5.433  21.673  0.00  0.00    +0.000 HD
ENDROOT
BRANCH   4  14
ATOM     14  N   UNL     1       0.380  12.948  19.604  0.00  0.00    +0.000 N 
ATOM     15  C   UNL     1       1.230  13.497  18.545  0.00  0.00    +0.000 C 
ATOM     16  C   UNL     1       1.301  15.018  18.722  0.00  0.00    +0.000 C 
ATOM     17  C   UNL     1      -0.086  15.662  18.804  0.00  0.00    +0.000 C 
ATOM     18  C   UNL     1      -0.975  14.956  19.826  0.00  0.00    +0.000 C 
ATOM     19  C   UNL     1      -1.005  13.452  19.574  0.00  0.00    +0.000 C 
ENDBRANCH   4  14
BRANCH  10  20
ATOM     20  C   UNL     1       2.252   4.460  19.939  0.00  0.00    +0.000 A 
ATOM     21  C   UNL     1       1.055   3.803  19.649  0.00  0.00    +0.000 A 
ATOM     22  C   UNL     1       1.054   2.697  18.800  0.00  0.00    +0.000 A 
ATOM     23  C   UNL     1       2.253   2.294  18.236  0.00  0.00    +0.000 A 
ATOM     24  N   UNL     1       3.428   2.914  18.464  0.00  0.00    +0.000 NA
ATOM     25  C   UNL     1       3.400   3.971  19.312  0.00  0.00    +0.000 A 
ENDBRANCH  10  20
TORSDOF 2
ENDMDL
MODEL 4
REMARK VINA RESULT:      -7.7      0.443      1.097
REMARK  Name = 
REMARK  3 active torsions:
REMARK  status: ('A' for Active; 'I' for Inactive)
REMARK    1  A    between atoms: C_1  and  C_2
REMARK    2  A    between atoms: C_4  and  N_5
REMARK    3  A    between atoms: N_16  and  C_17
REMARK                            x       y       z     vdW  Elec       q    Type
REMARK                         _______ _______ _______ _____ _____    ______ ____
ROOT
ATOM      1  C   UNL     1       2.895   3.743  19.608  0.00  0.00    +0.000 C 
ATOM      2  C   UNL     1       2.938   5.182  19.168  0.00  0.00    +0.000 A 
ATOM      3  C   UNL     1       2.151   6.137  19.850  0.00  0.00    +0.000 A 
ATOM      4  C   UNL     1       2.176   7.485  19.494  0.00  0.00    +0.000 A 
ATOM      5  C   UNL     1       2.961   7.827  18.387  0.00  0.00    +0.000 A 
ATOM      6  C   UNL     1       3.746   6.909  17.715  0.00  0.00    +0.000 A 
ATOM      7  N   UNL     1       4.499   7.323  16.695  0.00  0.00    +0.000 NA
ATOM      8  N   UNL     1       5.306   6.438  16.069  0.00  0.00    +0.000 NA
ATOM      9  C   UNL     1       5.333   5.149  16.468  0.00  0.00    +0.000 A 
ATOM     10  N   UNL     1       6.197   4.248  15.838  0.00  0.00    +0.000 N 
ATOM     11  N   UNL     1       4.574   4.680  17.472  0.00  0.00    +0.000 NA
ATOM     12  C   UNL     1       3.769   5.565  18.104  0.00  0.00    +0.000 A 
ATOM     13  H   UNL     1       5.978   3.319  16.176  0.00  0.00    +0.000 HD
ENDROOT
BRANCH   4  14
ATOM     14  N   UNL     1       1.468   8.486  20.147  0.00  0.00    +0.000 N 
ATOM     15  C   UNL     1       0.759   9.531  19.406  0.00  0.00    +0.000 C 
ATOM     16  C   UNL     1       0.667  10.776  20.295  0.00  0.00    +0.000 C 
ATOM     17  C   UNL     1       0.066  10.470  21.669  0.00  0.00    +0.000 C 
ATOM     18  C   UNL     1       0.756   9.280  22.333  0.00  0.00    +0.000 C 
ATOM     19  C   UNL     1       0.793   8.080  21.393  0.00  0.00    +0.000 C 
ENDBRANCH   4  14
BRANCH  10  20
ATOM     20  C   UNL     1       6.556   4.285  14.479  0.00  0.00    +0.000 A 
ATOM     21  C   UNL     1       5.862   3.498  13.558  0.00  0.00    +0.000 A 
ATOM     22  C   UNL     1       6.191   3.555  12.204  0.00  0.00    +0.000 A 
ATOM     23  C   UNL     1       7.190   4.425  11.801  0.00  0.00    +0.000 A 
ATOM     24  N   UNL     1       7.867   5.225  12.649  0.00  0.00    +0.000 NA
ATOM     25  C   UNL     1       7.541   5.129  13.961  0.00  0.00    +0.000 A 
ENDBRANCH  10  20
TORSDOF 2
ENDMDL
MODEL 5
REMARK VINA RESULT:      -7.7      1.073      1.203
REMARK  Name = 
REMARK  3 active torsions:
REMARK  status: ('A' for Active; 'I' for Inactive)
REMARK    1  A    between atoms: C_1  and  C_2
REMARK    2  A    between atoms: C_4  and  N_5
REMARK    3  A    between atoms: N_16  and  C_17
REMARK                            x       y       z     vdW  Elec       q    Type
REMARK                         _______ _______ _______ _____ _____    ______ ____
ROOT
ATOM      1  C   UNL     1       1.948   4.043  20.646  0.00  0.00    +0.000 C 
ATOM      2  C   UNL     1       2.085   5.476  20.202  0.00  0.00    +0.000 A 
ATOM      3  C   UNL     1       1.289   6.468  20.815  0.00  0.00    +0.000 A 
ATOM      4  C   UNL     1       1.397   7.810  20.454  0.00  0.00    +0.000 A 
ATOM      5  C   UNL     1       2.279   8.110  19.409  0.00  0.00    +0.000 A 
ATOM      6  C   UNL     1       3.074   7.153  18.805  0.00  0.00    +0.000 A 
ATOM      7  N   UNL     1       3.920   7.527  17.844  0.00  0.00    +0.000 NA
ATOM      8  N   UNL     1       4.734   6.603  17.288  0.00  0.00    +0.000 NA
ATOM      9  C   UNL     1       4.677   5.318  17.696  0.00  0.00    +0.000 A 
ATOM     10  N   UNL     1       5.548   4.376  17.140  0.00  0.00    +0.000 N 
ATOM     11  N   UNL     1       3.824   4.890  18.641  0.00  0.00    +0.000 NA
ATOM     12  C   UNL     1       3.011   5.814  19.203  0.00  0.00    +0.000 A 
ATOM     13  H   UNL     1       5.266   3.461  17.465  0.00  0.00    +0.000 HD
ENDROOT
BRANCH   4  14
ATOM     14  N   UNL     1       0.683   8.846  21.044  0.00  0.00    +0.000 N 
ATOM     15  C   UNL     1       0.781   9.122  22.479  0.00  0.00    +0.000 C 
ATOM     16  C   UNL     1      -0.521   9.795  22.931  0.00  0.00    +0.000 C 
ATOM     17  C   UNL     1      -0.870  11.021  22.082  0.00  0.00    +0.000 C 
ATOM     18  C   UNL     1      -0.817  10.705  20.589  0.00  0.00    +0.000 C 
ATOM     19  C   UNL     1       0.511  10.054  20.217  0.00  0.00    +0.000 C 
ENDBRANCH   4  14
BRANCH  10  20
ATOM     20  C   UNL     1       6.012   4.386  15.812  0.00  0.00    +0.000 A 
ATOM     21  C   UNL     1       5.252   3.781  14.809  0.00  0.00    +0.000 A 
ATOM     22  C   UNL     1       5.690   3.816  13.486  0.00  0.00    +0.000 A 
ATOM     23  C   UNL     1       6.868   4.484  13.194  0.00  0.00    +0.000 A 
ATOM     24  N   UNL     1       7.620   5.106  14.125  0.00  0.00    +0.000 NA
ATOM     25  C   UNL     1       7.180   5.034  15.405  0.00  0.00    +0.000 A 
ENDBRANCH  10  20
TORSDOF 2
ENDMDL
MODEL 6
REMARK VINA RESULT:      -7.5      3.771      5.743
REMARK  Name = 
REMARK  3 active torsions:
REMARK  status: ('A' for Active; 'I' for Inactive)
REMARK    1  A    between atoms: C_1  and  C_2
REMARK    2  A    between atoms: C_4  and  N_5
REMARK    3  A    between atoms: N_16  and  C_17
REMARK                            x       y       z     vdW  Elec       q    Type
REMARK                         _______ _______ _______ _____ _____    ______ ____
ROOT
ATOM      1  C   UNL     1       0.050   9.273  22.907  0.00  0.00    +0.000 C 
ATOM      2  C   UNL     1       0.436   9.801  21.551  0.00  0.00    +0.000 A 
ATOM      3  C   UNL     1       0.150  11.146  21.226  0.00  0.00    +0.000 A 
ATOM      4  C   UNL     1       0.510  11.686  19.992  0.00  0.00    +0.000 A 
ATOM      5  C   UNL     1       1.101  10.812  19.072  0.00  0.00    +0.000 A 
ATOM      6  C   UNL     1       1.399   9.496  19.377  0.00  0.00    +0.000 A 
ATOM      7  N   UNL     1       2.000   8.739  18.459  0.00  0.00    +0.000 NA
ATOM      8  N   UNL     1       2.339   7.469  18.772  0.00  0.00    +0.000 NA
ATOM      9  C   UNL     1       2.054   6.975  19.995  0.00  0.00    +0.000 A 
ATOM     10  N   UNL     1       2.440   5.671  20.322  0.00  0.00    +0.000 N 
ATOM     11  N   UNL     1       1.426   7.691  20.942  0.00  0.00    +0.000 NA
ATOM     12  C   UNL     1       1.091   8.965  20.633  0.00  0.00    +0.000 A 
ATOM     13  H   UNL     1       2.025   5.439  21.215  0.00  0.00    +0.000 HD
ENDROOT
BRANCH   4  14
ATOM     14  N   UNL     1       0.305  13.009  19.621  0.00  0.00    +0.000 N 
ATOM     15  C   UNL     1       1.092  13.637  18.558  0.00  0.00    +0.000 C 
ATOM     16  C   UNL     1       1.137  15.147  18.818  0.00  0.00    +0.000 C 
ATOM     17  C   UNL     1      -0.259  15.750  18.998  0.00  0.00    +0.000 C 
ATOM     18  C   UNL     1      -1.083  14.967  20.018  0.00  0.00    +0.000 C 
ATOM     19  C   UNL     1      -1.091  13.479  19.682  0.00  0.00    +0.000 C 
ENDBRANCH   4  14
BRANCH  10  20
ATOM     20  C   UNL     1       2.487   4.591  19.422  0.00  0.00    +0.000 A 
ATOM     21  C   UNL     1       3.722   4.107  18.987  0.00  0.00    +0.000 A 
ATOM     22  C   UNL     1       3.777   3.015  18.122  0.00  0.00    +0.000 A 
ATOM     23  C   UNL     1       2.590   2.414  17.736  0.00  0.00    +0.000 A 
ATOM     24  N   UNL     1       1.377   2.829  18.153  0.00  0.00    +0.000 NA
ATOM     25  C   UNL     1       1.355   3.906  18.975  0.00  0.00    +0.000 A 
ENDBRANCH  10  20
TORSDOF 2
ENDMDL
MODEL 7
REMARK VINA RESULT:      -7.4      3.862     10.071
REMARK  Name = 
REMARK  3 active torsions:
REMARK  status: ('A' for Active; 'I' for Inactive)
REMARK    1  A    between atoms: C_1  and  C_2
REMARK    2  A    between atoms: C_4  and  N_5
REMARK    3  A    between atoms: N_16  and  C_17
REMARK                            x       y       z     vdW  Elec       q    Type
REMARK                         _______ _______ _______ _____ _____    ______ ____
ROOT
ATOM      1  C   UNL     1       1.697  10.104  17.830  0.00  0.00    +0.000 C 
ATOM      2  C   UNL     1       1.653   9.138  18.985  0.00  0.00    +0.000 A 
ATOM      3  C   UNL     1       2.181   7.839  18.818  0.00  0.00    +0.000 A 
ATOM      4  C   UNL     1       2.184   6.918  19.866  0.00  0.00    +0.000 A 
ATOM      5  C   UNL     1       1.575   7.323  21.059  0.00  0.00    +0.000 A 
ATOM      6  C   UNL     1       1.064   8.594  21.244  0.00  0.00    +0.000 A 
ATOM      7  N   UNL     1       0.537   8.915  22.426  0.00  0.00    +0.000 NA
ATOM      8  N   UNL     1       0.083  10.173  22.625  0.00  0.00    +0.000 NA
ATOM      9  C   UNL     1       0.152  11.082  21.630  0.00  0.00    +0.000 A 
ATOM     10  N   UNL     1      -0.287  12.390  21.856  0.00  0.00    +0.000 N 
ATOM     11  N   UNL     1       0.649  10.797  20.415  0.00  0.00    +0.000 NA
ATOM     12  C   UNL     1       1.109   9.540  20.215  0.00  0.00    +0.000 A 
ATOM     13  H   UNL     1      -0.284  12.877  20.969  0.00  0.00    +0.000 HD
ENDROOT
BRANCH   4  14
ATOM     14  N   UNL     1       2.727   5.641  19.791  0.00  0.00    +0.000 N 
ATOM     15  C   UNL     1       4.105   5.420  19.345  0.00  0.00    +0.000 C 
ATOM     16  C   UNL     1       4.198   4.013  18.745  0.00  0.00    +0.000 C 
ATOM     17  C   UNL     1       3.670   2.935  19.697  0.00  0.00    +0.000 C 
ATOM     18  C   UNL     1       2.287   3.291  20.238  0.00  0.00    +0.000 C 
ATOM     19  C   UNL     1       2.280   4.697  20.830  0.00  0.00    +0.000 C 
ENDBRANCH   4  14
BRANCH  10  20
ATOM     20  C   UNL     1      -1.356  12.752  22.696  0.00  0.00    +0.000 A 
ATOM     21  C   UNL     1      -1.300  13.951  23.408  0.00  0.00    +0.000 A 
ATOM     22  C   UNL     1      -2.371  14.332  24.216  0.00  0.00    +0.000 A 
ATOM     23  C   UNL     1      -3.486  13.513  24.269  0.00  0.00    +0.000 A 
ATOM     24  N   UNL     1      -3.596  12.360  23.578  0.00  0.00    +0.000 NA
ATOM     25  C   UNL     1      -2.530  12.006  22.820  0.00  0.00    +0.000 A 
ENDBRANCH  10  20
TORSDOF 2
ENDMDL
MODEL 8
REMARK VINA RESULT:      -7.3      4.006      6.055
REMARK  Name = 
REMARK  3 active torsions:
REMARK  status: ('A' for Active; 'I' for Inactive)
REMARK    1  A    between atoms: C_1  and  C_2
REMARK    2  A    between atoms: C_4  and  N_5
REMARK    3  A    between atoms: N_16  and  C_17
REMARK                            x       y       z     vdW  Elec       q    Type
REMARK                         _______ _______ _______ _____ _____    ______ ____
ROOT
ATOM      1  C   UNL     1      -0.207   9.545  23.077  0.00  0.00    +0.000 C 
ATOM      2  C   UNL     1       0.347   9.977  21.745  0.00  0.00    +0.000 A 
ATOM      3  C   UNL     1       0.235  11.331  21.357  0.00  0.00    +0.000 A 
ATOM      4  C   UNL     1       0.755  11.782  20.144  0.00  0.00    +0.000 A 
ATOM      5  C   UNL     1       1.325  10.816  19.307  0.00  0.00    +0.000 A 
ATOM      6  C   UNL     1       1.454   9.490  19.675  0.00  0.00    +0.000 A 
ATOM      7  N   UNL     1       2.047   8.639  18.837  0.00  0.00    +0.000 NA
ATOM      8  N   UNL     1       2.220   7.354  19.217  0.00  0.00    +0.000 NA
ATOM      9  C   UNL     1       1.781   6.940  20.424  0.00  0.00    +0.000 A 
ATOM     10  N   UNL     1       1.996   5.617  20.822  0.00  0.00    +0.000 N 
ATOM     11  N   UNL     1       1.155   7.754  21.290  0.00  0.00    +0.000 NA
ATOM     12  C   UNL     1       0.985   9.043  20.915  0.00  0.00    +0.000 A 
ATOM     13  H   UNL     1       1.484   5.464  21.682  0.00  0.00    +0.000 HD
ENDROOT
BRANCH   4  14
ATOM     14  N   UNL     1       0.725  13.104  19.717  0.00  0.00    +0.000 N 
ATOM     15  C   UNL     1      -0.422  13.972  19.995  0.00  0.00    +0.000 C 
ATOM     16  C   UNL     1      -0.485  15.051  18.907  0.00  0.00    +0.000 C 
ATOM     17  C   UNL     1       0.841  15.801  18.750  0.00  0.00    +0.000 C 
ATOM     18  C   UNL     1       2.018  14.838  18.605  0.00  0.00    +0.000 C 
ATOM     19  C   UNL     1       2.019  13.808  19.729  0.00  0.00    +0.000 C 
ENDBRANCH   4  14
BRANCH  10  20
ATOM     20  C   UNL     1       2.004   4.504  19.963  0.00  0.00    +0.000 A 
ATOM     21  C   UNL     1       0.878   3.682  19.885  0.00  0.00    +0.000 A 
ATOM     22  C   UNL     1       0.866   2.596  19.010  0.00  0.00    +0.000 A 
ATOM     23  C   UNL     1       1.976   2.376  18.212  0.00  0.00    +0.000 A 
ATOM     24  N   UNL     1       3.074   3.158  18.233  0.00  0.00    +0.000 NA
ATOM     25  C   UNL     1       3.064   4.192  19.109  0.00  0.00    +0.000 A 
ENDBRANCH  10  20
TORSDOF 2
ENDMDL
MODEL 9
REMARK VINA RESULT:      -7.3      3.880     10.052
REMARK  Name = 
REMARK  3 active torsions:
REMARK  status: ('A' for Active; 'I' for Inactive)
REMARK    1  A    between atoms: C_1  and  C_2
REMARK    2  A    between atoms: C_4  and  N_5
REMARK    3  A    between atoms: N_16  and  C_17
REMARK                            x       y       z     vdW  Elec       q    Type
REMARK                         _______ _______ _______ _____ _____    ______ ____
ROOT
ATOM      1  C   UNL     1       1.632  10.147  17.779  0.00  0.00    +0.000 C 
ATOM      2  C   UNL     1       1.629   9.177  18.932  0.00  0.00    +0.000 A 
ATOM      3  C   UNL     1       2.177   7.888  18.750  0.00  0.00    +0.000 A 
ATOM      4  C   UNL     1       2.218   6.964  19.794  0.00  0.00    +0.000 A 
ATOM      5  C   UNL     1       1.628   7.355  21.002  0.00  0.00    +0.000 A 
ATOM      6  C   UNL     1       1.098   8.617  21.200  0.00  0.00    +0.000 A 
ATOM      7  N   UNL     1       0.590   8.925  22.395  0.00  0.00    +0.000 NA
ATOM      8  N   UNL     1       0.118  10.174  22.607  0.00  0.00    +0.000 NA
ATOM      9  C   UNL     1       0.150  11.086  21.613  0.00  0.00    +0.000 A 
ATOM     10  N   UNL     1      -0.307  12.386  21.853  0.00  0.00    +0.000 N 
ATOM     11  N   UNL     1       0.627  10.814  20.388  0.00  0.00    +0.000 NA
ATOM     12  C   UNL     1       1.105   9.566  20.174  0.00  0.00    +0.000 A 
ATOM     13  H   UNL     1      -0.332  12.875  20.967  0.00  0.00    +0.000 HD
ENDROOT
BRANCH   4  14
ATOM     14  N   UNL     1       2.782   5.698  19.704  0.00  0.00    +0.000 N 
ATOM     15  C   UNL     1       1.981   4.487  19.900  0.00  0.00    +0.000 C 
ATOM     16  C   UNL     1       2.907   3.370  20.395  0.00  0.00    +0.000 C 
ATOM     17  C   UNL     1       4.123   3.173  19.485  0.00  0.00    +0.000 C 
ATOM     18  C   UNL     1       4.836   4.494  19.204  0.00  0.00    +0.000 C 
ATOM     19  C   UNL     1       3.852   5.546  18.702  0.00  0.00    +0.000 C 
ENDBRANCH   4  14
BRANCH  10  20
ATOM     20  C   UNL     1      -1.364  12.726  22.716  0.00  0.00    +0.000 A 
ATOM     21  C   UNL     1      -1.318  13.928  23.426  0.00  0.00    +0.000 A 
ATOM     22  C   UNL     1      -2.378  14.287  24.258  0.00  0.00    +0.000 A 
ATOM     23  C   UNL     1      -3.475  13.445  24.335  0.00  0.00    +0.000 A 
ATOM     24  N   UNL     1      -3.576  12.290  23.647  0.00  0.00    +0.000 NA
ATOM     25  C   UNL     1      -2.520  11.957  22.866  0.00  0.00    +0.000 A 
ENDBRANCH  10  20
TORSDOF 2
ENDMDL
