MODEL 1
REMARK VINA RESULT:      -7.5      0.000      0.000
REMARK  Name = 
REMARK  10 active torsions:
REMARK  status: ('A' for Active; 'I' for Inactive)
REMARK    1  A    between atoms: C_1  and  C_2
REMARK    2  A    between atoms: C_2  and  C_4
REMARK    3  A    between atoms: C_7  and  C_8
REMARK    4  A    between atoms: N_10  and  C_11
REMARK    5  A    between atoms: C_11  and  N_13
REMARK    6  A    between atoms: N_13  and  C_14
REMARK    7  A    between atoms: C_14  and  C_15
REMARK    8  A    between atoms: C_15  and  C_16
REMARK    9  A    between atoms: N_19  and  C_20
REMARK   10  A    between atoms: C_20  and  C_21
REMARK                            x       y       z     vdW  Elec       q    Type
REMARK                         _______ _______ _______ _____ _____    ______ ____
ROOT
ATOM      1  N   UNL     1       2.298   6.316  20.689  0.00  0.00    +0.000 N 
ATOM      2  H   UNL     1       2.359   6.191  21.696  0.00  0.00    +0.000 HD
ENDROOT
BRANCH   1   3
ATOM      3  C   UNL     1       2.216   5.128  20.012  0.00  0.00    +0.000 C 
ATOM      4  S   UNL     1       1.200   3.963  20.637  0.00  0.00    +0.000 S 
BRANCH   3   7
ATOM      5  C   UNL     1       4.338   5.324  18.743  0.00  0.00    +0.000 C 
ATOM      6  O   UNL     1       5.092   5.509  19.692  0.00  0.00    +0.000 OA
ATOM      7  N   UNL     1       2.982   5.061  18.868  0.00  0.00    +0.000 N 
ATOM      8  H   UNL     1       2.465   4.823  18.042  0.00  0.00    +0.000 HD
BRANCH   5  12
ATOM      9  C   UNL     1       6.132   4.855  14.843  0.00  0.00    +0.000 A 
ATOM     10  C   UNL     1       6.100   3.819  15.776  0.00  0.00    +0.000 A 
ATOM     11  C   UNL     1       5.511   4.021  17.023  0.00  0.00    +0.000 A 
ATOM     12  C   UNL     1       4.941   5.252  17.373  0.00  0.00    +0.000 A 
ATOM     13  C   UNL     1       4.962   6.295  16.433  0.00  0.00    +0.000 A 
ATOM     14  C   UNL     1       5.559   6.090  15.175  0.00  0.00    +0.000 A 
BRANCH   9  16
ATOM     15  C   UNL     1       6.276   3.544  12.626  0.00  0.00    +0.000 C 
ATOM     16  C   UNL     1       6.769   4.667  13.507  0.00  0.00    +0.000 C 
ATOM     17  O   UNL     1       7.672   5.419  13.146  0.00  0.00    +0.000 OA
ENDBRANCH   9  16
ENDBRANCH   5  12
ENDBRANCH   3   7
ENDBRANCH   1   3
BRANCH   1  18
ATOM     18  C   UNL     1       1.917   7.636  20.212  0.00  0.00    +0.000 C 
BRANCH  18  19
ATOM     19  C   UNL     1       1.387   8.548  21.331  0.00  0.00    +0.000 C 
BRANCH  19  20
ATOM     20  C   UNL     1      -0.148   8.723  21.256  0.00  0.00    +0.000 C 
ATOM     21  C   UNL     1      -0.592   9.737  20.198  0.00  0.00    +0.000 C 
ATOM     22  C   UNL     1      -0.263  11.179  20.595  0.00  0.00    +0.000 C 
ATOM     23  N   UNL     1      -0.858  11.542  21.890  0.00  0.00    +0.000 NA
ATOM     24  C   UNL     1      -0.461  10.604  22.955  0.00  0.00    +0.000 C 
ATOM     25  C   UNL     1      -0.763   9.145  22.598  0.00  0.00    +0.000 C 
BRANCH  23  26
ATOM     26  C   UNL     1      -0.473  12.913  22.292  0.00  0.00    +0.000 C 
BRANCH  26  27
ATOM     27  C   UNL     1      -1.576  13.724  22.936  0.00  0.00    +0.000 A 
ATOM     28  C   UNL     1      -2.860  13.777  22.369  0.00  0.00    +0.000 A 
ATOM     29  C   UNL     1      -3.878  14.505  22.985  0.00  0.00    +0.000 A 
ATOM     30  C   UNL     1      -3.628  15.190  24.171  0.00  0.00    +0.000 A 
ATOM     31  C   UNL     1      -2.360  15.151  24.746  0.00  0.00    +0.000 A 
ATOM     32  C   UNL     1      -1.340  14.420  24.131  0.00  0.00    +0.000 A 
ENDBRANCH  26  27
ENDBRANCH  23  26
ENDBRANCH  19  20
ENDBRANCH  18  19
ENDBRANCH   1  18
TORSDOF 9
ENDMDL
MODEL 2
REMARK VINA RESULT:      -7.4      3.184     10.827
REMARK  Name = 
REMARK  10 active torsions:
REMARK  status: ('A' for Active; 'I' for Inactive)
REMARK    1  A    between atoms: C_1  and  C_2
REMARK    2  A    between atoms: C_2  and  C_4
REMARK    3  A    between atoms: C_7  and  C_8
REMARK    4  A    between atoms: N_10  and  C_11
REMARK    5  A    between atoms: C_11  and  N_13
REMARK    6  A    between atoms: N_13  and  C_14
REMARK    7  A    between atoms: C_14  and  C_15
REMARK    8  A    between atoms: C_15  and  C_16
REMARK    9  A    between atoms: N_19  and  C_20
REMARK   10  A    between atoms: C_20  and  C_21
REMARK                            x       y       z     vdW  Elec       q    Type
REMARK                         _______ _______ _______ _____ _____    ______ ____
ROOT
ATOM      1  N   UNL     1       2.271   7.219  20.492  0.00  0.00    +0.000 N 
ATOM      2  H   UNL     1       3.285   7.230  20.572  0.00  0.00    +0.000 HD
ENDROOT
BRANCH   1   3
ATOM      3  C   UNL     1       1.798   8.162  19.618  0.00  0.00    +0.000 C 
ATOM      4  S   UNL     1       2.341   8.080  18.043  0.00  0.00    +0.000 S 
BRANCH   3   7
ATOM      5  C   UNL     1       0.891   9.563  21.451  0.00  0.00    +0.000 C 
ATOM      6  O   UNL     1       1.798   9.399  22.260  0.00  0.00    +0.000 OA
ATOM      7  N   UNL     1       0.901   9.055  20.160  0.00  0.00    +0.000 N 
ATOM      8  H   UNL     1       0.164   9.326  19.537  0.00  0.00    +0.000 HD
BRANCH   5  12
ATOM      9  C   UNL     1      -2.351  12.285  22.305  0.00  0.00    +0.000 A 
ATOM     10  C   UNL     1      -1.726  12.241  21.059  0.00  0.00    +0.000 A 
ATOM     11  C   UNL     1      -0.681  11.346  20.833  0.00  0.00    +0.000 A 
ATOM     12  C   UNL     1      -0.234  10.475  21.835  0.00  0.00    +0.000 A 
ATOM     13  C   UNL     1      -0.867  10.509  23.088  0.00  0.00    +0.000 A 
ATOM     14  C   UNL     1      -1.920  11.415  23.315  0.00  0.00    +0.000 A 
BRANCH   9  16
ATOM     15  C   UNL     1      -4.497  12.875  23.609  0.00  0.00    +0.000 C 
ATOM     16  C   UNL     1      -3.462  13.244  22.574  0.00  0.00    +0.000 C 
ATOM     17  O   UNL     1      -3.517  14.307  21.958  0.00  0.00    +0.000 OA
ENDBRANCH   9  16
ENDBRANCH   5  12
ENDBRANCH   3   7
ENDBRANCH   1   3
BRANCH   1  18
ATOM     18  C   UNL     1       1.588   6.025  20.963  0.00  0.00    +0.000 C 
BRANCH  18  19
ATOM     19  C   UNL     1       1.048   5.151  19.819  0.00  0.00    +0.000 C 
BRANCH  19  20
ATOM     20  C   UNL     1       1.586   3.703  19.894  0.00  0.00    +0.000 C 
ATOM     21  C   UNL     1       3.067   3.625  20.275  0.00  0.00    +0.000 C 
ATOM     22  C   UNL     1       3.986   4.103  19.147  0.00  0.00    +0.000 C 
ATOM     23  N   UNL     1       3.768   3.351  17.903  0.00  0.00    +0.000 NA
ATOM     24  C   UNL     1       2.357   3.394  17.479  0.00  0.00    +0.000 C 
ATOM     25  C   UNL     1       1.397   2.932  18.580  0.00  0.00    +0.000 C 
BRANCH  23  26
ATOM     26  C   UNL     1       4.613   3.872  16.805  0.00  0.00    +0.000 C 
BRANCH  26  27
ATOM     27  C   UNL     1       5.635   4.907  17.221  0.00  0.00    +0.000 A 
ATOM     28  C   UNL     1       6.791   4.537  17.930  0.00  0.00    +0.000 A 
ATOM     29  C   UNL     1       7.741   5.495  18.286  0.00  0.00    +0.000 A 
ATOM     30  C   UNL     1       7.549   6.831  17.943  0.00  0.00    +0.000 A 
ATOM     31  C   UNL     1       6.408   7.215  17.245  0.00  0.00    +0.000 A 
ATOM     32  C   UNL     1       5.457   6.257  16.885  0.00  0.00    +0.000 A 
ENDBRANCH  26  27
ENDBRANCH  23  26
ENDBRANCH  19  20
ENDBRANCH  18  19
ENDBRANCH   1  18
TORSDOF 9
ENDMDL
MODEL 3
REMARK VINA RESULT:      -7.4      2.594      3.435
REMARK  Name = 
REMARK  10 active torsions:
REMARK  status: ('A' for Active; 'I' for Inactive)
REMARK    1  A    between atoms: C_1  and  C_2
REMARK    2  A    between atoms: C_2  and  C_4
REMARK    3  A    between atoms: C_7  and  C_8
REMARK    4  A    between atoms: N_10  and  C_11
REMARK    5  A    between atoms: C_11  and  N_13
REMARK    6  A    between atoms: N_13  and  C_14
REMARK    7  A    between atoms: C_14  and  C_15
REMARK    8  A    between atoms: C_15  and  C_16
REMARK    9  A    between atoms: N_19  and  C_20
REMARK   10  A    between atoms: C_20  and  C_21
REMARK                            x       y       z     vdW  Elec       q    Type
REMARK                         _______ _______ _______ _____ _____    ______ ____
ROOT
ATOM      1  N   UNL     1       2.558   5.487  20.919  0.00  0.00    +0.000 N 
ATOM      2  H   UNL     1       2.935   5.649  21.849  0.00  0.00    +0.000 HD
ENDROOT
BRANCH   1   3
ATOM      3  C   UNL     1       2.863   4.244  20.432  0.00  0.00    +0.000 C 
ATOM      4  S   UNL     1       2.333   2.930  21.312  0.00  0.00    +0.000 S 
BRANCH   3   7
ATOM      5  C   UNL     1       4.793   4.823  18.987  0.00  0.00    +0.000 C 
ATOM      6  O   UNL     1       5.522   5.296  19.853  0.00  0.00    +0.000 OA
ATOM      7  N   UNL     1       3.559   4.243  19.243  0.00  0.00    +0.000 N 
ATOM      8  H   UNL     1       3.080   3.792  18.487  0.00  0.00    +0.000 HD
BRANCH   5  12
ATOM      9  C   UNL     1       6.524   4.774  15.032  0.00  0.00    +0.000 A 
ATOM     10  C   UNL     1       7.080   5.511  16.076  0.00  0.00    +0.000 A 
ATOM     11  C   UNL     1       6.482   5.497  17.336  0.00  0.00    +0.000 A 
ATOM     12  C   UNL     1       5.323   4.751  17.587  0.00  0.00    +0.000 A 
ATOM     13  C   UNL     1       4.766   4.000  16.540  0.00  0.00    +0.000 A 
ATOM     14  C   UNL     1       5.369   4.017  15.269  0.00  0.00    +0.000 A 
BRANCH   9  16
ATOM     15  C   UNL     1       6.592   3.843  12.627  0.00  0.00    +0.000 C 
ATOM     16  C   UNL     1       7.139   4.785  13.671  0.00  0.00    +0.000 C 
ATOM     17  O   UNL     1       8.068   5.550  13.425  0.00  0.00    +0.000 OA
ENDBRANCH   9  16
ENDBRANCH   5  12
ENDBRANCH   3   7
ENDBRANCH   1   3
BRANCH   1  18
ATOM     18  C   UNL     1       1.494   6.376  20.478  0.00  0.00    +0.000 C 
BRANCH  18  19
ATOM     19  C   UNL     1       1.843   7.863  20.653  0.00  0.00    +0.000 C 
BRANCH  19  20
ATOM     20  C   UNL     1       0.971   8.538  21.737  0.00  0.00    +0.000 C 
ATOM     21  C   UNL     1      -0.523   8.542  21.399  0.00  0.00    +0.000 C 
ATOM     22  C   UNL     1      -0.861   9.512  20.263  0.00  0.00    +0.000 C 
ATOM     23  N   UNL     1      -0.431  10.885  20.565  0.00  0.00    +0.000 NA
ATOM     24  C   UNL     1       1.004  10.947  20.893  0.00  0.00    +0.000 C 
ATOM     25  C   UNL     1       1.392   9.986  22.021  0.00  0.00    +0.000 C 
BRANCH  23  26
ATOM     26  C   UNL     1      -0.702  11.795  19.429  0.00  0.00    +0.000 C 
BRANCH  26  27
ATOM     27  C   UNL     1      -1.894  11.416  18.577  0.00  0.00    +0.000 A 
ATOM     28  C   UNL     1      -3.187  11.857  18.906  0.00  0.00    +0.000 A 
ATOM     29  C   UNL     1      -4.276  11.525  18.099  0.00  0.00    +0.000 A 
ATOM     30  C   UNL     1      -4.089  10.748  16.959  0.00  0.00    +0.000 A 
ATOM     31  C   UNL     1      -2.815  10.300  16.620  0.00  0.00    +0.000 A 
ATOM     32  C   UNL     1      -1.723  10.634  17.425  0.00  0.00    +0.000 A 
ENDBRANCH  26  27
ENDBRANCH  23  26
ENDBRANCH  19  20
ENDBRANCH  18  19
ENDBRANCH   1  18
TORSDOF 9
ENDMDL
MODEL 4
REMARK VINA RESULT:      -7.4      3.208     10.913
REMARK  Name = 
REMARK  10 active torsions:
REMARK  status: ('A' for Active; 'I' for Inactive)
REMARK    1  A    between atoms: C_1  and  C_2
REMARK    2  A    between atoms: C_2  and  C_4
REMARK    3  A    between atoms: C_7  and  C_8
REMARK    4  A    between atoms: N_10  and  C_11
REMARK    5  A    between atoms: C_11  and  N_13
REMARK    6  A    between atoms: N_13  and  C_14
REMARK    7  A    between atoms: C_14  and  C_15
REMARK    8  A    between atoms: C_15  and  C_16
REMARK    9  A    between atoms: N_19  and  C_20
REMARK   10  A    between atoms: C_20  and  C_21
REMARK                            x       y       z     vdW  Elec       q    Type
REMARK                         _______ _______ _______ _____ _____    ______ ____
ROOT
ATOM      1  N   UNL     1       2.480   6.894  20.205  0.00  0.00    +0.000 N 
ATOM      2  H   UNL     1       3.482   6.786  20.066  0.00  0.00    +0.000 HD
ENDROOT
BRANCH   1   3
ATOM      3  C   UNL     1       1.968   7.984  19.554  0.00  0.00    +0.000 C 
ATOM      4  S   UNL     1       2.387   8.182  17.953  0.00  0.00    +0.000 S 
BRANCH   3   7
ATOM      5  C   UNL     1       0.298   9.788  19.878  0.00  0.00    +0.000 C 
ATOM      6  O   UNL     1       0.060  10.018  18.697  0.00  0.00    +0.000 OA
ATOM      7  N   UNL     1       1.137   8.776  20.318  0.00  0.00    +0.000 N 
ATOM      8  H   UNL     1       1.192   8.597  21.303  0.00  0.00    +0.000 HD
BRANCH   5  12
ATOM      9  C   UNL     1      -1.992  12.176  22.654  0.00  0.00    +0.000 A 
ATOM     10  C   UNL     1      -1.969  12.444  21.286  0.00  0.00    +0.000 A 
ATOM     11  C   UNL     1      -1.212  11.646  20.430  0.00  0.00    +0.000 A 
ATOM     12  C   UNL     1      -0.463  10.564  20.911  0.00  0.00    +0.000 A 
ATOM     13  C   UNL     1      -0.491  10.284  22.286  0.00  0.00    +0.000 A 
ATOM     14  C   UNL     1      -1.254  11.092  23.149  0.00  0.00    +0.000 A 
BRANCH   9  16
ATOM     15  C   UNL     1      -4.013  12.431  24.237  0.00  0.00    +0.000 C 
ATOM     16  C   UNL     1      -2.785  13.025  23.591  0.00  0.00    +0.000 C 
ATOM     17  O   UNL     1      -2.430  14.179  23.821  0.00  0.00    +0.000 OA
ENDBRANCH   9  16
ENDBRANCH   5  12
ENDBRANCH   3   7
ENDBRANCH   1   3
BRANCH   1  18
ATOM     18  C   UNL     1       1.756   5.728  20.688  0.00  0.00    +0.000 C 
BRANCH  18  19
ATOM     19  C   UNL     1       1.237   4.831  19.553  0.00  0.00    +0.000 C 
BRANCH  19  20
ATOM     20  C   UNL     1       1.763   3.382  19.673  0.00  0.00    +0.000 C 
ATOM     21  C   UNL     1       3.224   3.303  20.125  0.00  0.00    +0.000 C 
ATOM     22  C   UNL     1       4.198   3.761  19.036  0.00  0.00    +0.000 C 
ATOM     23  N   UNL     1       4.036   2.993  17.794  0.00  0.00    +0.000 NA
ATOM     24  C   UNL     1       2.647   3.036  17.303  0.00  0.00    +0.000 C 
ATOM     25  C   UNL     1       1.634   2.593  18.362  0.00  0.00    +0.000 C 
BRANCH  23  26
ATOM     26  C   UNL     1       4.936   3.494  16.730  0.00  0.00    +0.000 C 
BRANCH  26  27
ATOM     27  C   UNL     1       5.726   4.732  17.093  0.00  0.00    +0.000 A 
ATOM     28  C   UNL     1       6.925   4.637  17.821  0.00  0.00    +0.000 A 
ATOM     29  C   UNL     1       7.661   5.781  18.128  0.00  0.00    +0.000 A 
ATOM     30  C   UNL     1       7.210   7.033  17.717  0.00  0.00    +0.000 A 
ATOM     31  C   UNL     1       6.023   7.146  16.998  0.00  0.00    +0.000 A 
ATOM     32  C   UNL     1       5.286   6.001  16.687  0.00  0.00    +0.000 A 
ENDBRANCH  26  27
ENDBRANCH  23  26
ENDBRANCH  19  20
ENDBRANCH  18  19
ENDBRANCH   1  18
TORSDOF 9
ENDMDL
MODEL 5
REMARK VINA RESULT:      -7.3      3.166     10.774
REMARK  Name = 
REMARK  10 active torsions:
REMARK  status: ('A' for Active; 'I' for Inactive)
REMARK    1  A    between atoms: C_1  and  C_2
REMARK    2  A    between atoms: C_2  and  C_4
REMARK    3  A    between atoms: C_7  and  C_8
REMARK    4  A    between atoms: N_10  and  C_11
REMARK    5  A    between atoms: C_11  and  N_13
REMARK    6  A    between atoms: N_13  and  C_14
REMARK    7  A    between atoms: C_14  and  C_15
REMARK    8  A    between atoms: C_15  and  C_16
REMARK    9  A    between atoms: N_19  and  C_20
REMARK   10  A    between atoms: C_20  and  C_21
REMARK                            x       y       z     vdW  Elec       q    Type
REMARK                         _______ _______ _______ _____ _____    ______ ____
ROOT
ATOM      1  N   UNL     1       2.355   6.331  20.685  0.00  0.00    +0.000 N 
ATOM      2  H   UNL     1       3.358   6.270  20.840  0.00  0.00    +0.000 HD
ENDROOT
BRANCH   1   3
ATOM      3  C   UNL     1       2.003   7.395  19.899  0.00  0.00    +0.000 C 
ATOM      4  S   UNL     1       2.644   7.451  18.361  0.00  0.00    +0.000 S 
BRANCH   3   7
ATOM      5  C   UNL     1       0.865   9.589  20.098  0.00  0.00    +0.000 C 
ATOM      6  O   UNL     1       1.270  10.090  19.055  0.00  0.00    +0.000 OA
ATOM      7  N   UNL     1       1.130   8.284  20.487  0.00  0.00    +0.000 N 
ATOM      8  H   UNL     1       0.672   7.929  21.306  0.00  0.00    +0.000 HD
BRANCH   5  12
ATOM      9  C   UNL     1      -1.922  12.041  22.305  0.00  0.00    +0.000 A 
ATOM     10  C   UNL     1      -1.671  12.239  20.948  0.00  0.00    +0.000 A 
ATOM     11  C   UNL     1      -0.760  11.422  20.280  0.00  0.00    +0.000 A 
ATOM     12  C   UNL     1      -0.080  10.392  20.941  0.00  0.00    +0.000 A 
ATOM     13  C   UNL     1      -0.337  10.182  22.306  0.00  0.00    +0.000 A 
ATOM     14  C   UNL     1      -1.255  11.009  22.979  0.00  0.00    +0.000 A 
BRANCH   9  16
ATOM     15  C   UNL     1      -3.663  12.313  24.189  0.00  0.00    +0.000 C 
ATOM     16  C   UNL     1      -2.883  12.912  23.044  0.00  0.00    +0.000 C 
ATOM     17  O   UNL     1      -3.023  14.087  22.715  0.00  0.00    +0.000 OA
ENDBRANCH   9  16
ENDBRANCH   5  12
ENDBRANCH   3   7
ENDBRANCH   1   3
BRANCH   1  18
ATOM     18  C   UNL     1       1.575   5.134  20.958  0.00  0.00    +0.000 C 
BRANCH  18  19
ATOM     19  C   UNL     1       1.233   4.338  19.688  0.00  0.00    +0.000 C 
BRANCH  19  20
ATOM     20  C   UNL     1       2.030   3.016  19.601  0.00  0.00    +0.000 C 
ATOM     21  C   UNL     1       3.505   3.170  19.985  0.00  0.00    +0.000 C 
ATOM     22  C   UNL     1       4.306   3.938  18.930  0.00  0.00    +0.000 C 
ATOM     23  N   UNL     1       4.217   3.306  17.604  0.00  0.00    +0.000 NA
ATOM     24  C   UNL     1       2.818   3.136  17.175  0.00  0.00    +0.000 C 
ATOM     25  C   UNL     1       1.973   2.379  18.205  0.00  0.00    +0.000 C 
BRANCH  23  26
ATOM     26  C   UNL     1       4.939   4.098  16.583  0.00  0.00    +0.000 C 
BRANCH  26  27
ATOM     27  C   UNL     1       5.946   5.083  17.132  0.00  0.00    +0.000 A 
ATOM     28  C   UNL     1       5.886   6.445  16.791  0.00  0.00    +0.000 A 
ATOM     29  C   UNL     1       6.803   7.351  17.323  0.00  0.00    +0.000 A 
ATOM     30  C   UNL     1       7.792   6.911  18.200  0.00  0.00    +0.000 A 
ATOM     31  C   UNL     1       7.868   5.565  18.547  0.00  0.00    +0.000 A 
ATOM     32  C   UNL     1       6.949   4.656  18.016  0.00  0.00    +0.000 A 
ENDBRANCH  26  27
ENDBRANCH  23  26
ENDBRANCH  19  20
ENDBRANCH  18  19
ENDBRANCH   1  18
TORSDOF 9
ENDMDL
MODEL 6
REMARK VINA RESULT:      -7.3      3.235     10.942
REMARK  Name = 
REMARK  10 active torsions:
REMARK  status: ('A' for Active; 'I' for Inactive)
REMARK    1  A    between atoms: C_1  and  C_2
REMARK    2  A    between atoms: C_2  and  C_4
REMARK    3  A    between atoms: C_7  and  C_8
REMARK    4  A    between atoms: N_10  and  C_11
REMARK    5  A    between atoms: C_11  and  N_13
REMARK    6  A    between atoms: N_13  and  C_14
REMARK    7  A    between atoms: C_14  and  C_15
REMARK    8  A    between atoms: C_15  and  C_16
REMARK    9  A    between atoms: N_19  and  C_20
REMARK   10  A    between atoms: C_20  and  C_21
REMARK                            x       y       z     vdW  Elec       q    Type
REMARK                         _______ _______ _______ _____ _____    ______ ____
ROOT
ATOM      1  N   UNL     1       2.016   7.494  20.137  0.00  0.00    +0.000 N 
ATOM      2  H   UNL     1       2.380   7.740  21.054  0.00  0.00    +0.000 HD
ENDROOT
BRANCH   1   3
ATOM      3  C   UNL     1       1.664   8.589  19.394  0.00  0.00    +0.000 C 
ATOM      4  S   UNL     1       2.351   8.736  17.882  0.00  0.00    +0.000 S 
BRANCH   3   7
ATOM      5  C   UNL     1       0.688   9.782  21.336  0.00  0.00    +0.000 C 
ATOM      6  O   UNL     1       1.554   9.510  22.161  0.00  0.00    +0.000 OA
ATOM      7  N   UNL     1       0.752   9.428  19.997  0.00  0.00    +0.000 N 
ATOM      8  H   UNL     1       0.047   9.781  19.377  0.00  0.00    +0.000 HD
BRANCH   5  12
ATOM      9  C   UNL     1      -2.591  12.406  22.343  0.00  0.00    +0.000 A 
ATOM     10  C   UNL     1      -2.039  12.363  21.063  0.00  0.00    +0.000 A 
ATOM     11  C   UNL     1      -0.979  11.501  20.788  0.00  0.00    +0.000 A 
ATOM     12  C   UNL     1      -0.444  10.661  21.774  0.00  0.00    +0.000 A 
ATOM     13  C   UNL     1      -1.004  10.694  23.061  0.00  0.00    +0.000 A 
ATOM     14  C   UNL     1      -2.072  11.566  23.338  0.00  0.00    +0.000 A 
BRANCH   9  16
ATOM     15  C   UNL     1      -4.128  13.492  24.108  0.00  0.00    +0.000 C 
ATOM     16  C   UNL     1      -3.718  13.331  22.664  0.00  0.00    +0.000 C 
ATOM     17  O   UNL     1      -4.286  13.941  21.761  0.00  0.00    +0.000 OA
ENDBRANCH   9  16
ENDBRANCH   5  12
ENDBRANCH   3   7
ENDBRANCH   1   3
BRANCH   1  18
ATOM     18  C   UNL     1       2.300   6.151  19.656  0.00  0.00    +0.000 C 
BRANCH  18  19
ATOM     19  C   UNL     1       2.381   5.112  20.788  0.00  0.00    +0.000 C 
BRANCH  19  20
ATOM     20  C   UNL     1       2.080   3.682  20.282  0.00  0.00    +0.000 C 
ATOM     21  C   UNL     1       3.319   2.783  20.233  0.00  0.00    +0.000 C 
ATOM     22  C   UNL     1       4.281   3.175  19.108  0.00  0.00    +0.000 C 
ATOM     23  N   UNL     1       3.624   3.164  17.793  0.00  0.00    +0.000 NA
ATOM     24  C   UNL     1       2.423   4.019  17.775  0.00  0.00    +0.000 C 
ATOM     25  C   UNL     1       1.434   3.668  18.890  0.00  0.00    +0.000 C 
BRANCH  23  26
ATOM     26  C   UNL     1       4.547   3.612  16.727  0.00  0.00    +0.000 C 
BRANCH  26  27
ATOM     27  C   UNL     1       5.491   4.725  17.126  0.00  0.00    +0.000 A 
ATOM     28  C   UNL     1       5.126   6.073  16.968  0.00  0.00    +0.000 A 
ATOM     29  C   UNL     1       5.992   7.093  17.364  0.00  0.00    +0.000 A 
ATOM     30  C   UNL     1       7.231   6.782  17.918  0.00  0.00    +0.000 A 
ATOM     31  C   UNL     1       7.610   5.452  18.079  0.00  0.00    +0.000 A 
ATOM     32  C   UNL     1       6.743   4.429  17.686  0.00  0.00    +0.000 A 
ENDBRANCH  26  27
ENDBRANCH  23  26
ENDBRANCH  19  20
ENDBRANCH  18  19
ENDBRANCH   1  18
TORSDOF 9
ENDMDL
MODEL 7
REMARK VINA RESULT:      -7.3      3.204     10.951
REMARK  Name = 
REMARK  10 active torsions:
REMARK  status: ('A' for Active; 'I' for Inactive)
REMARK    1  A    between atoms: C_1  and  C_2
REMARK    2  A    between atoms: C_2  and  C_4
REMARK    3  A    between atoms: C_7  and  C_8
REMARK    4  A    between atoms: N_10  and  C_11
REMARK    5  A    between atoms: C_11  and  N_13
REMARK    6  A    between atoms: N_13  and  C_14
REMARK    7  A    between atoms: C_14  and  C_15
REMARK    8  A    between atoms: C_15  and  C_16
REMARK    9  A    between atoms: N_19  and  C_20
REMARK   10  A    between atoms: C_20  and  C_21
REMARK                            x       y       z     vdW  Elec       q    Type
REMARK                         _______ _______ _______ _____ _____    ______ ____
ROOT
ATOM      1  N   UNL     1       2.106   7.511  20.405  0.00  0.00    +0.000 N 
ATOM      2  H   UNL     1       2.487   7.913  21.258  0.00  0.00    +0.000 HD
ENDROOT
BRANCH   1   3
ATOM      3  C   UNL     1       1.691   8.460  19.510  0.00  0.00    +0.000 C 
ATOM      4  S   UNL     1       2.345   8.399  17.977  0.00  0.00    +0.000 S 
BRANCH   3   7
ATOM      5  C   UNL     1       0.671   9.867  21.279  0.00  0.00    +0.000 C 
ATOM      6  O   UNL     1       1.540   9.729  22.133  0.00  0.00    +0.000 OA
ATOM      7  N   UNL     1       0.752   9.343  19.997  0.00  0.00    +0.000 N 
ATOM      8  H   UNL     1       0.041   9.592  19.335  0.00  0.00    +0.000 HD
BRANCH   5  12
ATOM      9  C   UNL     1      -2.658  12.357  22.449  0.00  0.00    +0.000 A 
ATOM     10  C   UNL     1      -2.025  11.493  23.342  0.00  0.00    +0.000 A 
ATOM     11  C   UNL     1      -0.956  10.707  22.916  0.00  0.00    +0.000 A 
ATOM     12  C   UNL     1      -0.489  10.761  21.596  0.00  0.00    +0.000 A 
ATOM     13  C   UNL     1      -1.117  11.637  20.696  0.00  0.00    +0.000 A 
ATOM     14  C   UNL     1      -2.197  12.427  21.127  0.00  0.00    +0.000 A 
BRANCH   9  16
ATOM     15  C   UNL     1      -3.621  14.693  22.969  0.00  0.00    +0.000 C 
ATOM     16  C   UNL     1      -3.813  13.198  22.880  0.00  0.00    +0.000 C 
ATOM     17  O   UNL     1      -4.889  12.669  23.150  0.00  0.00    +0.000 OA
ENDBRANCH   9  16
ENDBRANCH   5  12
ENDBRANCH   3   7
ENDBRANCH   1   3
BRANCH   1  18
ATOM     18  C   UNL     1       2.430   6.119  20.134  0.00  0.00    +0.000 C 
BRANCH  18  19
ATOM     19  C   UNL     1       1.192   5.207  20.113  0.00  0.00    +0.000 C 
BRANCH  19  20
ATOM     20  C   UNL     1       1.574   3.710  20.170  0.00  0.00    +0.000 C 
ATOM     21  C   UNL     1       3.060   3.474  20.455  0.00  0.00    +0.000 C 
ATOM     22  C   UNL     1       3.950   3.844  19.265  0.00  0.00    +0.000 C 
ATOM     23  N   UNL     1       3.571   3.114  18.046  0.00  0.00    +0.000 NA
ATOM     24  C   UNL     1       2.148   3.308  17.714  0.00  0.00    +0.000 C 
ATOM     25  C   UNL     1       1.218   2.957  18.880  0.00  0.00    +0.000 C 
BRANCH  23  26
ATOM     26  C   UNL     1       4.394   3.535  16.891  0.00  0.00    +0.000 C 
BRANCH  26  27
ATOM     27  C   UNL     1       5.370   4.654  17.175  0.00  0.00    +0.000 A 
ATOM     28  C   UNL     1       6.633   4.388  17.733  0.00  0.00    +0.000 A 
ATOM     29  C   UNL     1       7.537   5.425  17.967  0.00  0.00    +0.000 A 
ATOM     30  C   UNL     1       7.194   6.736  17.651  0.00  0.00    +0.000 A 
ATOM     31  C   UNL     1       5.946   7.018  17.101  0.00  0.00    +0.000 A 
ATOM     32  C   UNL     1       5.040   5.982  16.863  0.00  0.00    +0.000 A 
ENDBRANCH  26  27
ENDBRANCH  23  26
ENDBRANCH  19  20
ENDBRANCH  18  19
ENDBRANCH   1  18
TORSDOF 9
ENDMDL
MODEL 8
REMARK VINA RESULT:      -7.3      3.306     10.968
REMARK  Name = 
REMARK  10 active torsions:
REMARK  status: ('A' for Active; 'I' for Inactive)
REMARK    1  A    between atoms: C_1  and  C_2
REMARK    2  A    between atoms: C_2  and  C_4
REMARK    3  A    between atoms: C_7  and  C_8
REMARK    4  A    between atoms: N_10  and  C_11
REMARK    5  A    between atoms: C_11  and  N_13
REMARK    6  A    between atoms: N_13  and  C_14
REMARK    7  A    between atoms: C_14  and  C_15
REMARK    8  A    between atoms: C_15  and  C_16
REMARK    9  A    between atoms: N_19  and  C_20
REMARK   10  A    between atoms: C_20  and  C_21
REMARK                            x       y       z     vdW  Elec       q    Type
REMARK                         _______ _______ _______ _____ _____    ______ ____
ROOT
ATOM      1  N   UNL     1       2.145   7.428  20.327  0.00  0.00    +0.000 N 
ATOM      2  H   UNL     1       3.143   7.512  20.507  0.00  0.00    +0.000 HD
ENDROOT
BRANCH   1   3
ATOM      3  C   UNL     1       1.661   8.439  19.540  0.00  0.00    +0.000 C 
ATOM      4  S   UNL     1       2.179   8.484  17.955  0.00  0.00    +0.000 S 
BRANCH   3   7
ATOM      5  C   UNL     1       0.679  10.663  20.024  0.00  0.00    +0.000 C 
ATOM      6  O   UNL     1       1.286  11.309  19.177  0.00  0.00    +0.000 OA
ATOM      7  N   UNL     1       0.775   9.287  20.167  0.00  0.00    +0.000 N 
ATOM      8  H   UNL     1       0.164   8.833  20.820  0.00  0.00    +0.000 HD
BRANCH   5  12
ATOM      9  C   UNL     1      -2.150  12.580  22.665  0.00  0.00    +0.000 A 
ATOM     10  C   UNL     1      -1.387  11.483  23.063  0.00  0.00    +0.000 A 
ATOM     11  C   UNL     1      -0.488  10.897  22.172  0.00  0.00    +0.000 A 
ATOM     12  C   UNL     1      -0.326  11.386  20.870  0.00  0.00    +0.000 A 
ATOM     13  C   UNL     1      -1.085  12.496  20.468  0.00  0.00    +0.000 A 
ATOM     14  C   UNL     1      -1.993  13.085  21.367  0.00  0.00    +0.000 A 
BRANCH   9  16
ATOM     15  C   UNL     1      -4.085  12.325  24.352  0.00  0.00    +0.000 C 
ATOM     16  C   UNL     1      -3.128  13.215  23.596  0.00  0.00    +0.000 C 
ATOM     17  O   UNL     1      -3.138  14.436  23.734  0.00  0.00    +0.000 OA
ENDBRANCH   9  16
ENDBRANCH   5  12
ENDBRANCH   3   7
ENDBRANCH   1   3
BRANCH   1  18
ATOM     18  C   UNL     1       1.541   6.128  20.572  0.00  0.00    +0.000 C 
BRANCH  18  19
ATOM     19  C   UNL     1       2.576   4.996  20.679  0.00  0.00    +0.000 C 
BRANCH  19  20
ATOM     20  C   UNL     1       2.095   3.704  19.978  0.00  0.00    +0.000 C 
ATOM     21  C   UNL     1       3.200   2.656  19.812  0.00  0.00    +0.000 C 
ATOM     22  C   UNL     1       4.235   3.061  18.760  0.00  0.00    +0.000 C 
ATOM     23  N   UNL     1       3.617   3.320  17.451  0.00  0.00    +0.000 NA
ATOM     24  C   UNL     1       2.547   4.329  17.544  0.00  0.00    +0.000 C 
ATOM     25  C   UNL     1       1.489   3.971  18.593  0.00  0.00    +0.000 C 
BRANCH  23  26
ATOM     26  C   UNL     1       4.621   3.777  16.464  0.00  0.00    +0.000 C 
BRANCH  26  27
ATOM     27  C   UNL     1       5.590   4.821  16.975  0.00  0.00    +0.000 A 
ATOM     28  C   UNL     1       5.356   6.190  16.765  0.00  0.00    +0.000 A 
ATOM     29  C   UNL     1       6.241   7.146  17.263  0.00  0.00    +0.000 A 
ATOM     30  C   UNL     1       7.371   6.749  17.973  0.00  0.00    +0.000 A 
ATOM     31  C   UNL     1       7.621   5.396  18.188  0.00  0.00    +0.000 A 
ATOM     32  C   UNL     1       6.734   4.438  17.693  0.00  0.00    +0.000 A 
ENDBRANCH  26  27
ENDBRANCH  23  26
ENDBRANCH  19  20
ENDBRANCH  18  19
ENDBRANCH   1  18
TORSDOF 9
ENDMDL
MODEL 9
REMARK VINA RESULT:      -7.2      3.134     10.817
REMARK  Name = 
REMARK  10 active torsions:
REMARK  status: ('A' for Active; 'I' for Inactive)
REMARK    1  A    between atoms: C_1  and  C_2
REMARK    2  A    between atoms: C_2  and  C_4
REMARK    3  A    between atoms: C_7  and  C_8
REMARK    4  A    between atoms: N_10  and  C_11
REMARK    5  A    between atoms: C_11  and  N_13
REMARK    6  A    between atoms: N_13  and  C_14
REMARK    7  A    between atoms: C_14  and  C_15
REMARK    8  A    between atoms: C_15  and  C_16
REMARK    9  A    between atoms: N_19  and  C_20
REMARK   10  A    between atoms: C_20  and  C_21
REMARK                            x       y       z     vdW  Elec       q    Type
REMARK                         _______ _______ _______ _____ _____    ______ ____
ROOT
ATOM      1  N   UNL     1       2.360   6.654  20.328  0.00  0.00    +0.000 N 
ATOM      2  H   UNL     1       3.347   6.412  20.293  0.00  0.00    +0.000 HD
ENDROOT
BRANCH   1   3
ATOM      3  C   UNL     1       2.067   7.790  19.622  0.00  0.00    +0.000 C 
ATOM      4  S   UNL     1       2.725   7.929  18.096  0.00  0.00    +0.000 S 
BRANCH   3   7
ATOM      5  C   UNL     1       0.441   9.661  19.697  0.00  0.00    +0.000 C 
ATOM      6  O   UNL     1       0.260   9.782  18.490  0.00  0.00    +0.000 OA
ATOM      7  N   UNL     1       1.230   8.673  20.268  0.00  0.00    +0.000 N 
ATOM      8  H   UNL     1       1.239   8.590  21.268  0.00  0.00    +0.000 HD
BRANCH   5  12
ATOM      9  C   UNL     1      -1.715  12.080  22.551  0.00  0.00    +0.000 A 
ATOM     10  C   UNL     1      -0.978  10.959  22.933  0.00  0.00    +0.000 A 
ATOM     11  C   UNL     1      -0.301  10.208  21.973  0.00  0.00    +0.000 A 
ATOM     12  C   UNL     1      -0.338  10.552  20.616  0.00  0.00    +0.000 A 
ATOM     13  C   UNL     1      -1.070  11.686  20.228  0.00  0.00    +0.000 A 
ATOM     14  C   UNL     1      -1.755  12.441  21.198  0.00  0.00    +0.000 A 
BRANCH   9  16
ATOM     15  C   UNL     1      -3.804  12.395  24.031  0.00  0.00    +0.000 C 
ATOM     16  C   UNL     1      -2.459  12.891  23.560  0.00  0.00    +0.000 C 
ATOM     17  O   UNL     1      -1.971  13.935  23.987  0.00  0.00    +0.000 OA
ENDBRANCH   9  16
ENDBRANCH   5  12
ENDBRANCH   3   7
ENDBRANCH   1   3
BRANCH   1  18
ATOM     18  C   UNL     1       1.442   5.605  20.742  0.00  0.00    +0.000 C 
BRANCH  18  19
ATOM     19  C   UNL     1       2.139   4.254  20.974  0.00  0.00    +0.000 C 
BRANCH  19  20
ATOM     20  C   UNL     1       1.618   3.161  20.013  0.00  0.00    +0.000 C 
ATOM     21  C   UNL     1       2.691   2.146  19.608  0.00  0.00    +0.000 C 
ATOM     22  C   UNL     1       3.732   2.745  18.658  0.00  0.00    +0.000 C 
ATOM     23  N   UNL     1       3.115   3.302  17.445  0.00  0.00    +0.000 NA
ATOM     24  C   UNL     1       2.074   4.293  17.770  0.00  0.00    +0.000 C 
ATOM     25  C   UNL     1       1.012   3.742  18.726  0.00  0.00    +0.000 C 
BRANCH  23  26
ATOM     26  C   UNL     1       4.126   3.938  16.571  0.00  0.00    +0.000 C 
BRANCH  26  27
ATOM     27  C   UNL     1       5.351   4.461  17.287  0.00  0.00    +0.000 A 
ATOM     28  C   UNL     1       5.233   5.221  18.463  0.00  0.00    +0.000 A 
ATOM     29  C   UNL     1       6.370   5.677  19.131  0.00  0.00    +0.000 A 
ATOM     30  C   UNL     1       7.637   5.381  18.635  0.00  0.00    +0.000 A 
ATOM     31  C   UNL     1       7.773   4.632  17.470  0.00  0.00    +0.000 A 
ATOM     32  C   UNL     1       6.636   4.173  16.801  0.00  0.00    +0.000 A 
ENDBRANCH  26  27
ENDBRANCH  23  26
ENDBRANCH  19  20
ENDBRANCH  18  19
ENDBRANCH   1  18
TORSDOF 9
ENDMDL
