MODEL 1
REMARK VINA RESULT:      -8.5      0.000      0.000
REMARK  Name = 
REMARK  5 active torsions:
REMARK  status: ('A' for Active; 'I' for Inactive)
REMARK    1  A    between atoms: C_1  and  O_2
REMARK    2  A    between atoms: O_2  and  C_3
REMARK    3  A    between atoms: C_7  and  N_8
REMARK    4  A    between atoms: N_11  and  S_12
REMARK    5  A    between atoms: S_12  and  C_15
REMARK                            x       y       z     vdW  Elec       q    Type
REMARK                         _______ _______ _______ _____ _____    ______ ____
ROOT
ATOM      1  N   UNL     1       2.089   5.874  19.437  0.00  0.00    +0.000 N 
ATOM      2  C   UNL     1       2.895   5.319  20.545  0.00  0.00    +0.000 C 
ATOM      3  C   UNL     1       2.526   3.839  20.809  0.00  0.00    +0.000 C 
ATOM      4  N   UNL     1       2.546   2.994  19.570  0.00  0.00    +0.000 NA
ATOM      5  C   UNL     1       1.677   3.634  18.517  0.00  0.00    +0.000 C 
ATOM      6  C   UNL     1       2.137   5.071  18.195  0.00  0.00    +0.000 C 
ENDROOT
BRANCH   1  11
ATOM      7  C   UNL     1       1.203   9.437  20.121  0.00  0.00    +0.000 A 
ATOM      8  C   UNL     1       1.489  10.008  18.882  0.00  0.00    +0.000 A 
ATOM      9  C   UNL     1       2.026   9.228  17.862  0.00  0.00    +0.000 A 
ATOM     10  C   UNL     1       2.259   7.868  18.077  0.00  0.00    +0.000 A 
ATOM     11  C   UNL     1       1.960   7.255  19.303  0.00  0.00    +0.000 A 
ATOM     12  C   UNL     1       1.449   8.074  20.324  0.00  0.00    +0.000 A 
BRANCH   7  14
ATOM     13  C   UNL     1       0.030   9.707  22.168  0.00  0.00    +0.000 C 
ATOM     14  O   UNL     1       0.674  10.297  21.045  0.00  0.00    +0.000 OA
ENDBRANCH   7  14
ENDBRANCH   1  11
BRANCH   4  15
ATOM     15  S   UNL     1       4.071   2.515  18.979  0.00  0.00    +0.000 S 
ATOM     16  O   UNL     1       4.999   2.459  20.088  0.00  0.00    +0.000 OA
ATOM     17  O   UNL     1       3.863   1.310  18.195  0.00  0.00    +0.000 OA
BRANCH  15  18
ATOM     18  C   UNL     1       4.613   3.769  17.848  0.00  0.00    +0.000 A 
ATOM     19  C   UNL     1       4.174   3.664  16.512  0.00  0.00    +0.000 A 
ATOM     20  C   UNL     1       4.814   4.381  15.512  0.00  0.00    +0.000 A 
ATOM     21  C   UNL     1       5.915   5.162  15.839  0.00  0.00    +0.000 A 
ATOM     22  C   UNL     1       6.337   5.281  17.175  0.00  0.00    +0.000 A 
ATOM     23  C   UNL     1       7.476   6.034  17.485  0.00  0.00    +0.000 A 
ATOM     24  C   UNL     1       7.870   6.187  18.806  0.00  0.00    +0.000 A 
ATOM     25  C   UNL     1       7.089   5.600  19.778  0.00  0.00    +0.000 A 
ATOM     26  N   UNL     1       6.011   4.831  19.511  0.00  0.00    +0.000 NA
ATOM     27  C   UNL     1       5.648   4.626  18.224  0.00  0.00    +0.000 A 
ENDBRANCH  15  18
ENDBRANCH   4  15
TORSDOF 4
ENDMDL
MODEL 2
REMARK VINA RESULT:      -8.3      2.902      7.270
REMARK  Name = 
REMARK  5 active torsions:
REMARK  status: ('A' for Active; 'I' for Inactive)
REMARK    1  A    between atoms: C_1  and  O_2
REMARK    2  A    between atoms: O_2  and  C_3
REMARK    3  A    between atoms: C_7  and  N_8
REMARK    4  A    between atoms: N_11  and  S_12
REMARK    5  A    between atoms: S_12  and  C_15
REMARK                            x       y       z     vdW  Elec       q    Type
REMARK                         _______ _______ _______ _____ _____    ______ ____
ROOT
ATOM      1  N   UNL     1       6.216   5.248  15.089  0.00  0.00    +0.000 N 
ATOM      2  C   UNL     1       7.321   5.070  16.055  0.00  0.00    +0.000 C 
ATOM      3  C   UNL     1       7.236   6.117  17.190  0.00  0.00    +0.000 C 
ATOM      4  N   UNL     1       5.882   6.185  17.833  0.00  0.00    +0.000 NA
ATOM      5  C   UNL     1       4.836   6.392  16.767  0.00  0.00    +0.000 C 
ATOM      6  C   UNL     1       4.872   5.272  15.707  0.00  0.00    +0.000 C 
ENDROOT
BRANCH   1  11
ATOM      7  C   UNL     1       5.504   3.262  12.006  0.00  0.00    +0.000 A 
ATOM      8  C   UNL     1       6.707   3.426  11.321  0.00  0.00    +0.000 A 
ATOM      9  C   UNL     1       7.707   4.236  11.850  0.00  0.00    +0.000 A 
ATOM     10  C   UNL     1       7.512   4.867  13.081  0.00  0.00    +0.000 A 
ATOM     11  C   UNL     1       6.324   4.704  13.810  0.00  0.00    +0.000 A 
ATOM     12  C   UNL     1       5.320   3.907  13.234  0.00  0.00    +0.000 A 
BRANCH   7  14
ATOM     13  C   UNL     1       3.499   3.074  10.748  0.00  0.00    +0.000 C 
ATOM     14  O   UNL     1       4.597   2.440  11.393  0.00  0.00    +0.000 OA
ENDBRANCH   7  14
ENDBRANCH   1  11
BRANCH   4  15
ATOM     15  S   UNL     1       5.480   4.949  18.934  0.00  0.00    +0.000 S 
ATOM     16  O   UNL     1       5.756   3.670  18.315  0.00  0.00    +0.000 OA
ATOM     17  O   UNL     1       6.144   5.264  20.187  0.00  0.00    +0.000 OA
BRANCH  15  18
ATOM     18  C   UNL     1       3.737   5.066  19.240  0.00  0.00    +0.000 A 
ATOM     19  C   UNL     1       3.294   6.141  20.037  0.00  0.00    +0.000 A 
ATOM     20  C   UNL     1       2.027   6.112  20.602  0.00  0.00    +0.000 A 
ATOM     21  C   UNL     1       1.226   4.994  20.409  0.00  0.00    +0.000 A 
ATOM     22  C   UNL     1       1.662   3.934  19.596  0.00  0.00    +0.000 A 
ATOM     23  C   UNL     1       0.864   2.793  19.447  0.00  0.00    +0.000 A 
ATOM     24  C   UNL     1       1.273   1.763  18.612  0.00  0.00    +0.000 A 
ATOM     25  C   UNL     1       2.461   1.925  17.932  0.00  0.00    +0.000 A 
ATOM     26  N   UNL     1       3.275   2.992  18.087  0.00  0.00    +0.000 NA
ATOM     27  C   UNL     1       2.916   3.977  18.940  0.00  0.00    +0.000 A 
ENDBRANCH  15  18
ENDBRANCH   4  15
TORSDOF 4
ENDMDL
MODEL 3
REMARK VINA RESULT:      -8.2      2.975      7.464
REMARK  Name = 
REMARK  5 active torsions:
REMARK  status: ('A' for Active; 'I' for Inactive)
REMARK    1  A    between atoms: C_1  and  O_2
REMARK    2  A    between atoms: O_2  and  C_3
REMARK    3  A    between atoms: C_7  and  N_8
REMARK    4  A    between atoms: N_11  and  S_12
REMARK    5  A    between atoms: S_12  and  C_15
REMARK                            x       y       z     vdW  Elec       q    Type
REMARK                         _______ _______ _______ _____ _____    ______ ____
ROOT
ATOM      1  N   UNL     1       6.408   5.335  15.019  0.00  0.00    +0.000 N 
ATOM      2  C   UNL     1       7.477   5.147  16.023  0.00  0.00    +0.000 C 
ATOM      3  C   UNL     1       7.373   6.209  17.144  0.00  0.00    +0.000 C 
ATOM      4  N   UNL     1       6.001   6.309  17.740  0.00  0.00    +0.000 NA
ATOM      5  C   UNL     1       4.994   6.523  16.639  0.00  0.00    +0.000 C 
ATOM      6  C   UNL     1       5.045   5.391  15.592  0.00  0.00    +0.000 C 
ENDROOT
BRANCH   1  11
ATOM      7  C   UNL     1       6.049   3.037  12.096  0.00  0.00    +0.000 A 
ATOM      8  C   UNL     1       7.054   3.532  11.265  0.00  0.00    +0.000 A 
ATOM      9  C   UNL     1       7.789   4.649  11.649  0.00  0.00    +0.000 A 
ATOM     10  C   UNL     1       7.534   5.261  12.878  0.00  0.00    +0.000 A 
ATOM     11  C   UNL     1       6.548   4.775  13.751  0.00  0.00    +0.000 A 
ATOM     12  C   UNL     1       5.799   3.666  13.321  0.00  0.00    +0.000 A 
BRANCH   7  14
ATOM     13  C   UNL     1       6.210   0.893  11.087  0.00  0.00    +0.000 C 
ATOM     14  O   UNL     1       5.396   1.933  11.618  0.00  0.00    +0.000 OA
ENDBRANCH   7  14
ENDBRANCH   1  11
BRANCH   4  15
ATOM     15  S   UNL     1       5.539   5.093  18.841  0.00  0.00    +0.000 S 
ATOM     16  O   UNL     1       5.639   3.809  18.180  0.00  0.00    +0.000 OA
ATOM     17  O   UNL     1       6.309   5.303  20.055  0.00  0.00    +0.000 OA
BRANCH  15  18
ATOM     18  C   UNL     1       3.841   5.384  19.261  0.00  0.00    +0.000 A 
ATOM     19  C   UNL     1       3.397   6.722  19.261  0.00  0.00    +0.000 A 
ATOM     20  C   UNL     1       2.214   7.062  19.900  0.00  0.00    +0.000 A 
ATOM     21  C   UNL     1       1.502   6.079  20.574  0.00  0.00    +0.000 A 
ATOM     22  C   UNL     1       1.935   4.742  20.553  0.00  0.00    +0.000 A 
ATOM     23  C   UNL     1       1.234   3.768  21.275  0.00  0.00    +0.000 A 
ATOM     24  C   UNL     1       1.635   2.441  21.223  0.00  0.00    +0.000 A 
ATOM     25  C   UNL     1       2.715   2.130  20.425  0.00  0.00    +0.000 A 
ATOM     26  N   UNL     1       3.440   3.050  19.752  0.00  0.00    +0.000 NA
ATOM     27  C   UNL     1       3.094   4.355  19.838  0.00  0.00    +0.000 A 
ENDBRANCH  15  18
ENDBRANCH   4  15
TORSDOF 4
ENDMDL
MODEL 4
REMARK VINA RESULT:      -8.1      1.406      2.578
REMARK  Name = 
REMARK  5 active torsions:
REMARK  status: ('A' for Active; 'I' for Inactive)
REMARK    1  A    between atoms: C_1  and  O_2
REMARK    2  A    between atoms: O_2  and  C_3
REMARK    3  A    between atoms: C_7  and  N_8
REMARK    4  A    between atoms: N_11  and  S_12
REMARK    5  A    between atoms: S_12  and  C_15
REMARK                            x       y       z     vdW  Elec       q    Type
REMARK                         _______ _______ _______ _____ _____    ______ ____
ROOT
ATOM      1  N   UNL     1       2.051   6.949  19.343  0.00  0.00    +0.000 N 
ATOM      2  C   UNL     1       1.704   5.699  20.052  0.00  0.00    +0.000 C 
ATOM      3  C   UNL     1       1.789   4.483  19.099  0.00  0.00    +0.000 C 
ATOM      4  N   UNL     1       3.085   4.408  18.350  0.00  0.00    +0.000 NA
ATOM      5  C   UNL     1       3.330   5.718  17.646  0.00  0.00    +0.000 C 
ATOM      6  C   UNL     1       3.349   6.902  18.636  0.00  0.00    +0.000 C 
ENDROOT
BRANCH   1  11
ATOM      7  C   UNL     1       0.847   9.561  21.728  0.00  0.00    +0.000 A 
ATOM      8  C   UNL     1       0.617  10.616  20.847  0.00  0.00    +0.000 A 
ATOM      9  C   UNL     1       0.919  10.475  19.496  0.00  0.00    +0.000 A 
ATOM     10  C   UNL     1       1.434   9.267  19.021  0.00  0.00    +0.000 A 
ATOM     11  C   UNL     1       1.655   8.176  19.875  0.00  0.00    +0.000 A 
ATOM     12  C   UNL     1       1.371   8.358  21.239  0.00  0.00    +0.000 A 
BRANCH   7  14
ATOM     13  C   UNL     1      -0.829  10.236  23.269  0.00  0.00    +0.000 C 
ATOM     14  O   UNL     1       0.507   9.810  23.030  0.00  0.00    +0.000 OA
ENDBRANCH   7  14
ENDBRANCH   1  11
BRANCH   4  15
ATOM     15  S   UNL     1       4.447   3.842  19.203  0.00  0.00    +0.000 S 
ATOM     16  O   UNL     1       4.358   4.301  20.573  0.00  0.00    +0.000 OA
ATOM     17  O   UNL     1       4.537   2.412  18.960  0.00  0.00    +0.000 OA
BRANCH  15  18
ATOM     18  C   UNL     1       5.878   4.574  18.451  0.00  0.00    +0.000 A 
ATOM     19  C   UNL     1       6.622   5.481  19.232  0.00  0.00    +0.000 A 
ATOM     20  C   UNL     1       7.525   6.342  18.626  0.00  0.00    +0.000 A 
ATOM     21  C   UNL     1       7.649   6.327  17.243  0.00  0.00    +0.000 A 
ATOM     22  C   UNL     1       6.922   5.406  16.469  0.00  0.00    +0.000 A 
ATOM     23  C   UNL     1       7.021   5.433  15.072  0.00  0.00    +0.000 A 
ATOM     24  C   UNL     1       6.336   4.499  14.309  0.00  0.00    +0.000 A 
ATOM     25  C   UNL     1       5.593   3.549  14.976  0.00  0.00    +0.000 A 
ATOM     26  N   UNL     1       5.440   3.523  16.318  0.00  0.00    +0.000 NA
ATOM     27  C   UNL     1       6.057   4.462  17.071  0.00  0.00    +0.000 A 
ENDBRANCH  15  18
ENDBRANCH   4  15
TORSDOF 4
ENDMDL
MODEL 5
REMARK VINA RESULT:      -8.0      4.648      9.793
REMARK  Name = 
REMARK  5 active torsions:
REMARK  status: ('A' for Active; 'I' for Inactive)
REMARK    1  A    between atoms: C_1  and  O_2
REMARK    2  A    between atoms: O_2  and  C_3
REMARK    3  A    between atoms: C_7  and  N_8
REMARK    4  A    between atoms: N_11  and  S_12
REMARK    5  A    between atoms: S_12  and  C_15
REMARK                            x       y       z     vdW  Elec       q    Type
REMARK                         _______ _______ _______ _____ _____    ______ ____
ROOT
ATOM      1  N   UNL     1       1.638   9.079  19.304  0.00  0.00    +0.000 N 
ATOM      2  C   UNL     1       0.560   9.109  20.315  0.00  0.00    +0.000 C 
ATOM      3  C   UNL     1       0.350  10.543  20.855  0.00  0.00    +0.000 C 
ATOM      4  N   UNL     1       0.184  11.565  19.771  0.00  0.00    +0.000 NA
ATOM      5  C   UNL     1       1.343  11.467  18.812  0.00  0.00    +0.000 C 
ATOM      6  C   UNL     1       1.462  10.054  18.205  0.00  0.00    +0.000 C 
ENDROOT
BRANCH   1  11
ATOM      7  C   UNL     1       2.973   5.601  19.587  0.00  0.00    +0.000 A 
ATOM      8  C   UNL     1       3.749   5.537  18.430  0.00  0.00    +0.000 A 
ATOM      9  C   UNL     1       3.771   6.611  17.545  0.00  0.00    +0.000 A 
ATOM     10  C   UNL     1       3.032   7.761  17.828  0.00  0.00    +0.000 A 
ATOM     11  C   UNL     1       2.261   7.870  18.995  0.00  0.00    +0.000 A 
ATOM     12  C   UNL     1       2.231   6.758  19.853  0.00  0.00    +0.000 A 
BRANCH   7  14
ATOM     13  C   UNL     1       1.829   4.121  21.049  0.00  0.00    +0.000 C 
ATOM     14  O   UNL     1       3.032   4.491  20.385  0.00  0.00    +0.000 OA
ENDBRANCH   7  14
ENDBRANCH   1  11
BRANCH   4  15
ATOM     15  S   UNL     1      -1.328  11.632  18.987  0.00  0.00    +0.000 S 
ATOM     16  O   UNL     1      -1.192  12.429  17.787  0.00  0.00    +0.000 OA
ATOM     17  O   UNL     1      -1.799  10.264  18.855  0.00  0.00    +0.000 OA
BRANCH  15  18
ATOM     18  C   UNL     1      -2.453  12.451  20.088  0.00  0.00    +0.000 A 
ATOM     19  C   UNL     1      -1.924  12.952  21.295  0.00  0.00    +0.000 A 
ATOM     20  C   UNL     1      -2.772  13.285  22.340  0.00  0.00    +0.000 A 
ATOM     21  C   UNL     1      -4.137  13.076  22.196  0.00  0.00    +0.000 A 
ATOM     22  C   UNL     1      -4.663  12.597  20.984  0.00  0.00    +0.000 A 
ATOM     23  C   UNL     1      -6.036  12.346  20.868  0.00  0.00    +0.000 A 
ATOM     24  C   UNL     1      -6.564  11.914  19.660  0.00  0.00    +0.000 A 
ATOM     25  C   UNL     1      -5.698  11.772  18.598  0.00  0.00    +0.000 A 
ATOM     26  N   UNL     1      -4.363  11.962  18.688  0.00  0.00    +0.000 NA
ATOM     27  C   UNL     1      -3.827  12.329  19.874  0.00  0.00    +0.000 A 
ENDBRANCH  15  18
ENDBRANCH   4  15
TORSDOF 4
ENDMDL
MODEL 6
REMARK VINA RESULT:      -8.0      4.290      9.713
REMARK  Name = 
REMARK  5 active torsions:
REMARK  status: ('A' for Active; 'I' for Inactive)
REMARK    1  A    between atoms: C_1  and  O_2
REMARK    2  A    between atoms: O_2  and  C_3
REMARK    3  A    between atoms: C_7  and  N_8
REMARK    4  A    between atoms: N_11  and  S_12
REMARK    5  A    between atoms: S_12  and  C_15
REMARK                            x       y       z     vdW  Elec       q    Type
REMARK                         _______ _______ _______ _____ _____    ______ ____
ROOT
ATOM      1  N   UNL     1       1.367   8.569  19.143  0.00  0.00    +0.000 N 
ATOM      2  C   UNL     1       1.054   9.656  18.191  0.00  0.00    +0.000 C 
ATOM      3  C   UNL     1      -0.364  10.221  18.444  0.00  0.00    +0.000 C 
ATOM      4  N   UNL     1      -0.605  10.592  19.877  0.00  0.00    +0.000 NA
ATOM      5  C   UNL     1      -0.282   9.411  20.757  0.00  0.00    +0.000 C 
ATOM      6  C   UNL     1       1.173   8.937  20.563  0.00  0.00    +0.000 C 
ENDROOT
BRANCH   1  11
ATOM      7  C   UNL     1       4.113   6.780  17.351  0.00  0.00    +0.000 A 
ATOM      8  C   UNL     1       4.265   5.667  18.176  0.00  0.00    +0.000 A 
ATOM      9  C   UNL     1       3.510   5.552  19.340  0.00  0.00    +0.000 A 
ATOM     10  C   UNL     1       2.584   6.544  19.667  0.00  0.00    +0.000 A 
ATOM     11  C   UNL     1       2.386   7.666  18.847  0.00  0.00    +0.000 A 
ATOM     12  C   UNL     1       3.186   7.770  17.697  0.00  0.00    +0.000 A 
BRANCH   7  14
ATOM     13  C   UNL     1       5.693   5.621  16.010  0.00  0.00    +0.000 C 
ATOM     14  O   UNL     1       4.902   6.782  16.233  0.00  0.00    +0.000 OA
ENDBRANCH   7  14
ENDBRANCH   1  11
BRANCH   4  15
ATOM     15  S   UNL     1       0.082  12.049  20.432  0.00  0.00    +0.000 S 
ATOM     16  O   UNL     1       1.204  11.733  21.291  0.00  0.00    +0.000 OA
ATOM     17  O   UNL     1       0.322  12.878  19.264  0.00  0.00    +0.000 OA
BRANCH  15  18
ATOM     18  C   UNL     1      -1.154  12.877  21.397  0.00  0.00    +0.000 A 
ATOM     19  C   UNL     1      -0.773  13.343  22.671  0.00  0.00    +0.000 A 
ATOM     20  C   UNL     1      -1.739  13.680  23.607  0.00  0.00    +0.000 A 
ATOM     21  C   UNL     1      -3.080  13.509  23.286  0.00  0.00    +0.000 A 
ATOM     22  C   UNL     1      -3.458  13.065  22.007  0.00  0.00    +0.000 A 
ATOM     23  C   UNL     1      -4.810  12.852  21.712  0.00  0.00    +0.000 A 
ATOM     24  C   UNL     1      -5.189  12.454  20.438  0.00  0.00    +0.000 A 
ATOM     25  C   UNL     1      -4.197  12.308  19.492  0.00  0.00    +0.000 A 
ATOM     26  N   UNL     1      -2.881  12.462  19.756  0.00  0.00    +0.000 NA
ATOM     27  C   UNL     1      -2.493  12.795  21.007  0.00  0.00    +0.000 A 
ENDBRANCH  15  18
ENDBRANCH   4  15
TORSDOF 4
ENDMDL
MODEL 7
REMARK VINA RESULT:      -8.0      4.971     10.046
REMARK  Name = 
REMARK  5 active torsions:
REMARK  status: ('A' for Active; 'I' for Inactive)
REMARK    1  A    between atoms: C_1  and  O_2
REMARK    2  A    between atoms: O_2  and  C_3
REMARK    3  A    between atoms: C_7  and  N_8
REMARK    4  A    between atoms: N_11  and  S_12
REMARK    5  A    between atoms: S_12  and  C_15
REMARK                            x       y       z     vdW  Elec       q    Type
REMARK                         _______ _______ _______ _____ _____    ______ ____
ROOT
ATOM      1  N   UNL     1       1.176   9.053  19.847  0.00  0.00    +0.000 N 
ATOM      2  C   UNL     1      -0.084   9.107  20.619  0.00  0.00    +0.000 C 
ATOM      3  C   UNL     1      -0.385  10.552  21.084  0.00  0.00    +0.000 C 
ATOM      4  N   UNL     1      -0.318  11.557  19.972  0.00  0.00    +0.000 NA
ATOM      5  C   UNL     1       1.011  11.434  19.270  0.00  0.00    +0.000 C 
ATOM      6  C   UNL     1       1.236  10.010  18.721  0.00  0.00    +0.000 C 
ENDROOT
BRANCH   1  11
ATOM      7  C   UNL     1       3.174   6.266  18.367  0.00  0.00    +0.000 A 
ATOM      8  C   UNL     1       2.940   5.264  19.307  0.00  0.00    +0.000 A 
ATOM      9  C   UNL     1       2.183   5.536  20.443  0.00  0.00    +0.000 A 
ATOM     10  C   UNL     1       1.641   6.810  20.628  0.00  0.00    +0.000 A 
ATOM     11  C   UNL     1       1.835   7.835  19.690  0.00  0.00    +0.000 A 
ATOM     12  C   UNL     1       2.631   7.540  18.570  0.00  0.00    +0.000 A 
BRANCH   7  14
ATOM     13  C   UNL     1       4.161   4.487  17.141  0.00  0.00    +0.000 C 
ATOM     14  O   UNL     1       3.926   5.882  17.289  0.00  0.00    +0.000 OA
ENDBRANCH   7  14
ENDBRANCH   1  11
BRANCH   4  15
ATOM     15  S   UNL     1      -1.639  11.621  18.898  0.00  0.00    +0.000 S 
ATOM     16  O   UNL     1      -1.287  12.475  17.784  0.00  0.00    +0.000 OA
ATOM     17  O   UNL     1      -2.025  10.249  18.618  0.00  0.00    +0.000 OA
BRANCH  15  18
ATOM     18  C   UNL     1      -2.992  12.360  19.775  0.00  0.00    +0.000 A 
ATOM     19  C   UNL     1      -2.722  12.879  21.058  0.00  0.00    +0.000 A 
ATOM     20  C   UNL     1      -3.764  13.150  21.932  0.00  0.00    +0.000 A 
ATOM     21  C   UNL     1      -5.065  12.861  21.542  0.00  0.00    +0.000 A 
ATOM     22  C   UNL     1      -5.333  12.364  20.255  0.00  0.00    +0.000 A 
ATOM     23  C   UNL     1      -6.645  12.032  19.892  0.00  0.00    +0.000 A 
ATOM     24  C   UNL     1      -6.918  11.581  18.609  0.00  0.00    +0.000 A 
ATOM     25  C   UNL     1      -5.865  11.502  17.722  0.00  0.00    +0.000 A 
ATOM     26  N   UNL     1      -4.583  11.771  18.053  0.00  0.00    +0.000 NA
ATOM     27  C   UNL     1      -4.295  12.158  19.316  0.00  0.00    +0.000 A 
ENDBRANCH  15  18
ENDBRANCH   4  15
TORSDOF 4
ENDMDL
MODEL 8
REMARK VINA RESULT:      -8.0      4.145      9.582
REMARK  Name = 
REMARK  5 active torsions:
REMARK  status: ('A' for Active; 'I' for Inactive)
REMARK    1  A    between atoms: C_1  and  O_2
REMARK    2  A    between atoms: O_2  and  C_3
REMARK    3  A    between atoms: C_7  and  N_8
REMARK    4  A    between atoms: N_11  and  S_12
REMARK    5  A    between atoms: S_12  and  C_15
REMARK                            x       y       z     vdW  Elec       q    Type
REMARK                         _______ _______ _______ _____ _____    ______ ____
ROOT
ATOM      1  N   UNL     1       1.359   8.531  19.049  0.00  0.00    +0.000 N 
ATOM      2  C   UNL     1       1.027   9.628  18.114  0.00  0.00    +0.000 C 
ATOM      3  C   UNL     1      -0.372  10.211  18.422  0.00  0.00    +0.000 C 
ATOM      4  N   UNL     1      -0.558  10.576  19.864  0.00  0.00    +0.000 NA
ATOM      5  C   UNL     1      -0.219   9.386  20.726  0.00  0.00    +0.000 C 
ATOM      6  C   UNL     1       1.221   8.893  20.477  0.00  0.00    +0.000 C 
ENDROOT
BRANCH   1  11
ATOM      7  C   UNL     1       3.717   5.638  19.200  0.00  0.00    +0.000 A 
ATOM      8  C   UNL     1       4.544   5.934  18.119  0.00  0.00    +0.000 A 
ATOM      9  C   UNL     1       4.278   7.042  17.319  0.00  0.00    +0.000 A 
ATOM     10  C   UNL     1       3.193   7.869  17.616  0.00  0.00    +0.000 A 
ATOM     11  C   UNL     1       2.354   7.616  18.712  0.00  0.00    +0.000 A 
ATOM     12  C   UNL     1       2.628   6.472  19.481  0.00  0.00    +0.000 A 
BRANCH   7  14
ATOM     13  C   UNL     1       4.139   3.301  19.202  0.00  0.00    +0.000 C 
ATOM     14  O   UNL     1       4.077   4.530  19.918  0.00  0.00    +0.000 OA
ENDBRANCH   7  14
ENDBRANCH   1  11
BRANCH   4  15
ATOM     15  S   UNL     1       0.169  12.020  20.403  0.00  0.00    +0.000 S 
ATOM     16  O   UNL     1       1.296  11.683  21.247  0.00  0.00    +0.000 OA
ATOM     17  O   UNL     1       0.411  12.838  19.228  0.00  0.00    +0.000 OA
BRANCH  15  18
ATOM     18  C   UNL     1      -1.035  12.880  21.381  0.00  0.00    +0.000 A 
ATOM     19  C   UNL     1      -0.620  13.358  22.640  0.00  0.00    +0.000 A 
ATOM     20  C   UNL     1      -1.563  13.722  23.591  0.00  0.00    +0.000 A 
ATOM     21  C   UNL     1      -2.912  13.566  23.299  0.00  0.00    +0.000 A 
ATOM     22  C   UNL     1      -3.322  13.110  22.035  0.00  0.00    +0.000 A 
ATOM     23  C   UNL     1      -4.683  12.912  21.770  0.00  0.00    +0.000 A 
ATOM     24  C   UNL     1      -5.094  12.502  20.510  0.00  0.00    +0.000 A 
ATOM     25  C   UNL     1      -4.124  12.328  19.547  0.00  0.00    +0.000 A 
ATOM     26  N   UNL     1      -2.801  12.467  19.781  0.00  0.00    +0.000 NA
ATOM     27  C   UNL     1      -2.382  12.811  21.020  0.00  0.00    +0.000 A 
ENDBRANCH  15  18
ENDBRANCH   4  15
TORSDOF 4
ENDMDL
MODEL 9
REMARK VINA RESULT:      -7.9      4.358      9.571
REMARK  Name = 
REMARK  5 active torsions:
REMARK  status: ('A' for Active; 'I' for Inactive)
REMARK    1  A    between atoms: C_1  and  O_2
REMARK    2  A    between atoms: O_2  and  C_3
REMARK    3  A    between atoms: C_7  and  N_8
REMARK    4  A    between atoms: N_11  and  S_12
REMARK    5  A    between atoms: S_12  and  C_15
REMARK                            x       y       z     vdW  Elec       q    Type
REMARK                         _______ _______ _______ _____ _____    ______ ____
ROOT
ATOM      1  N   UNL     1       1.277   8.563  19.343  0.00  0.00    +0.000 N 
ATOM      2  C   UNL     1       0.850   9.697  18.496  0.00  0.00    +0.000 C 
ATOM      3  C   UNL     1      -0.525  10.240  18.952  0.00  0.00    +0.000 C 
ATOM      4  N   UNL     1      -0.588  10.532  20.421  0.00  0.00    +0.000 NA
ATOM      5  C   UNL     1      -0.160   9.309  21.191  0.00  0.00    +0.000 C 
ATOM      6  C   UNL     1       1.260   8.854  20.794  0.00  0.00    +0.000 C 
ENDROOT
BRANCH   1  11
ATOM      7  C   UNL     1       3.667   5.700  19.142  0.00  0.00    +0.000 A 
ATOM      8  C   UNL     1       4.404   6.069  18.018  0.00  0.00    +0.000 A 
ATOM      9  C   UNL     1       4.066   7.217  17.308  0.00  0.00    +0.000 A 
ATOM     10  C   UNL     1       2.999   8.010  17.736  0.00  0.00    +0.000 A 
ATOM     11  C   UNL     1       2.251   7.682  18.877  0.00  0.00    +0.000 A 
ATOM     12  C   UNL     1       2.596   6.500  19.554  0.00  0.00    +0.000 A 
BRANCH   7  14
ATOM     13  C   UNL     1       4.293   3.418  18.933  0.00  0.00    +0.000 C 
ATOM     14  O   UNL     1       4.094   4.557  19.763  0.00  0.00    +0.000 OA
ENDBRANCH   7  14
ENDBRANCH   1  11
BRANCH   4  15
ATOM     15  S   UNL     1       0.163  11.962  20.964  0.00  0.00    +0.000 S 
ATOM     16  O   UNL     1       1.476  11.629  21.473  0.00  0.00    +0.000 OA
ATOM     17  O   UNL     1       0.069  12.928  19.884  0.00  0.00    +0.000 OA
BRANCH  15  18
ATOM     18  C   UNL     1      -0.819  12.596  22.299  0.00  0.00    +0.000 A 
ATOM     19  C   UNL     1      -1.938  11.834  22.694  0.00  0.00    +0.000 A 
ATOM     20  C   UNL     1      -2.932  12.411  23.469  0.00  0.00    +0.000 A 
ATOM     21  C   UNL     1      -2.831  13.754  23.809  0.00  0.00    +0.000 A 
ATOM     22  C   UNL     1      -1.704  14.504  23.433  0.00  0.00    +0.000 A 
ATOM     23  C   UNL     1      -1.637  15.868  23.742  0.00  0.00    +0.000 A 
ATOM     24  C   UNL     1      -0.507  16.602  23.408  0.00  0.00    +0.000 A 
ATOM     25  C   UNL     1       0.531  15.933  22.796  0.00  0.00    +0.000 A 
ATOM     26  N   UNL     1       0.480  14.630  22.444  0.00  0.00    +0.000 NA
ATOM     27  C   UNL     1      -0.637  13.916  22.713  0.00  0.00    +0.000 A 
ENDBRANCH  15  18
ENDBRANCH   4  15
TORSDOF 4
ENDMDL
