MODEL 1
REMARK VINA RESULT:      -6.7      0.000      0.000
REMARK  Name = 
REMARK  8 active torsions:
REMARK  status: ('A' for Active; 'I' for Inactive)
REMARK    1  A    between atoms: C_1  and  O_2
REMARK    2  A    between atoms: O_2  and  C_3
REMARK    3  A    between atoms: C_12  and  O_13
REMARK    4  A    between atoms: O_13  and  C_14
REMARK    5  A    between atoms: C_19  and  O_20
REMARK    6  A    between atoms: O_20  and  C_21
REMARK    7  A    between atoms: C_22  and  O_23
REMARK    8  A    between atoms: O_23  and  C_24
REMARK                            x       y       z     vdW  Elec       q    Type
REMARK                         _______ _______ _______ _____ _____    ______ ____
ROOT
ATOM      1  C   UNL     1       1.054   8.273  21.141  0.00  0.00    +0.000 C 
ATOM      2  C   UNL     1      -0.257   8.591  21.297  0.00  0.00    +0.000 C 
ATOM      3  C   UNL     1      -0.365   9.474  22.566  0.00  0.00    +0.000 C 
ATOM      4  C   UNL     1      -1.337  10.636  23.011  0.00  0.00    +0.000 C 
ATOM      5  C   UNL     1      -1.225  11.912  22.161  0.00  0.00    +0.000 A 
ATOM      6  C   UNL     1      -0.458  11.662  21.035  0.00  0.00    +0.000 A 
ATOM      7  C   UNL     1      -1.203  11.567  19.849  0.00  0.00    +0.000 A 
ATOM      8  C   UNL     1      -0.779  10.817  18.731  0.00  0.00    +0.000 A 
ATOM      9  C   UNL     1      -1.673  10.462  17.713  0.00  0.00    +0.000 A 
ATOM     10  C   UNL     1      -2.978  10.929  17.731  0.00  0.00    +0.000 A 
ATOM     11  C   UNL     1      -3.377  11.785  18.749  0.00  0.00    +0.000 A 
ATOM     12  C   UNL     1      -2.522  12.118  19.818  0.00  0.00    +0.000 A 
ATOM     13  C   UNL     1      -2.974  12.929  20.903  0.00  0.00    +0.000 A 
ATOM     14  C   UNL     1      -4.097  13.797  20.851  0.00  0.00    +0.000 A 
ATOM     15  C   UNL     1      -4.446  14.627  21.923  0.00  0.00    +0.000 A 
ATOM     16  C   UNL     1      -3.711  14.550  23.109  0.00  0.00    +0.000 A 
ATOM     17  C   UNL     1      -2.674  13.612  23.221  0.00  0.00    +0.000 A 
ATOM     18  C   UNL     1      -2.301  12.826  22.116  0.00  0.00    +0.000 A 
ATOM     19  C   UNL     1       0.945  11.126  21.368  0.00  0.00    +0.000 C 
ATOM     20  N   UNL     1       0.975  10.133  22.523  0.00  0.00    +0.000 NA
ATOM     21  C   UNL     1       1.842   8.984  22.199  0.00  0.00    +0.000 C 
ENDROOT
BRANCH   1  23
ATOM     22  C   UNL     1       2.043   8.208  18.939  0.00  0.00    +0.000 C 
ATOM     23  O   UNL     1       1.803   7.645  20.208  0.00  0.00    +0.000 OA
ENDBRANCH   1  23
BRANCH  10  24
ATOM     24  O   UNL     1      -3.975  10.586  16.862  0.00  0.00    +0.000 OA
ATOM     25  C   UNL     1      -3.622  10.557  15.487  0.00  0.00    +0.000 C 
ENDBRANCH  10  24
BRANCH  15  26
ATOM     26  O   UNL     1      -5.493  15.516  21.877  0.00  0.00    +0.000 OA
ATOM     27  C   UNL     1      -6.801  14.945  21.904  0.00  0.00    +0.000 C 
ENDBRANCH  15  26
BRANCH  16  28
ATOM     28  O   UNL     1      -4.072  15.387  24.136  0.00  0.00    +0.000 OA
ATOM     29  C   UNL     1      -3.016  15.727  25.029  0.00  0.00    +0.000 C 
ENDBRANCH  16  28
TORSDOF 4
ENDMDL
MODEL 2
REMARK VINA RESULT:      -6.5      2.620      5.908
REMARK  Name = 
REMARK  8 active torsions:
REMARK  status: ('A' for Active; 'I' for Inactive)
REMARK    1  A    between atoms: C_1  and  O_2
REMARK    2  A    between atoms: O_2  and  C_3
REMARK    3  A    between atoms: C_12  and  O_13
REMARK    4  A    between atoms: O_13  and  C_14
REMARK    5  A    between atoms: C_19  and  O_20
REMARK    6  A    between atoms: O_20  and  C_21
REMARK    7  A    between atoms: C_22  and  O_23
REMARK    8  A    between atoms: O_23  and  C_24
REMARK                            x       y       z     vdW  Elec       q    Type
REMARK                         _______ _______ _______ _____ _____    ______ ____
ROOT
ATOM      1  C   UNL     1       2.365  14.679  21.407  0.00  0.00    +0.000 C 
ATOM      2  C   UNL     1       1.158  14.978  20.862  0.00  0.00    +0.000 C 
ATOM      3  C   UNL     1       1.108  14.308  19.466  0.00  0.00    +0.000 C 
ATOM      4  C   UNL     1      -0.055  13.719  18.575  0.00  0.00    +0.000 C 
ATOM      5  C   UNL     1      -0.736  12.476  19.170  0.00  0.00    +0.000 A 
ATOM      6  C   UNL     1      -0.328  12.297  20.481  0.00  0.00    +0.000 A 
ATOM      7  C   UNL     1      -1.303  12.639  21.432  0.00  0.00    +0.000 A 
ATOM      8  C   UNL     1      -0.988  13.060  22.742  0.00  0.00    +0.000 A 
ATOM      9  C   UNL     1      -1.934  13.711  23.544  0.00  0.00    +0.000 A 
ATOM     10  C   UNL     1      -3.239  13.866  23.103  0.00  0.00    +0.000 A 
ATOM     11  C   UNL     1      -3.607  13.333  21.874  0.00  0.00    +0.000 A 
ATOM     12  C   UNL     1      -2.670  12.722  21.018  0.00  0.00    +0.000 A 
ATOM     13  C   UNL     1      -3.044  12.257  19.722  0.00  0.00    +0.000 A 
ATOM     14  C   UNL     1      -4.375  11.969  19.318  0.00  0.00    +0.000 A 
ATOM     15  C   UNL     1      -4.672  11.440  18.057  0.00  0.00    +0.000 A 
ATOM     16  C   UNL     1      -3.637  11.255  17.136  0.00  0.00    +0.000 A 
ATOM     17  C   UNL     1      -2.333  11.649  17.473  0.00  0.00    +0.000 A 
ATOM     18  C   UNL     1      -2.043  12.126  18.764  0.00  0.00    +0.000 A 
ATOM     19  C   UNL     1       1.199  12.182  20.628  0.00  0.00    +0.000 C 
ATOM     20  N   UNL     1       1.984  13.127  19.728  0.00  0.00    +0.000 NA
ATOM     21  C   UNL     1       3.089  13.757  20.473  0.00  0.00    +0.000 C 
ENDROOT
BRANCH   1  23
ATOM     22  C   UNL     1       4.323  15.234  22.706  0.00  0.00    +0.000 C 
ATOM     23  O   UNL     1       2.969  14.859  22.602  0.00  0.00    +0.000 OA
ENDBRANCH   1  23
BRANCH  10  24
ATOM     24  O   UNL     1      -4.232  14.561  23.734  0.00  0.00    +0.000 OA
ATOM     25  C   UNL     1      -5.133  15.266  22.894  0.00  0.00    +0.000 C 
ENDBRANCH  10  24
BRANCH  15  26
ATOM     26  O   UNL     1      -5.944  11.099  17.664  0.00  0.00    +0.000 OA
ATOM     27  C   UNL     1      -6.792  10.566  18.681  0.00  0.00    +0.000 C 
ENDBRANCH  15  26
BRANCH  16  28
ATOM     28  O   UNL     1      -3.962  10.724  15.913  0.00  0.00    +0.000 OA
ATOM     29  C   UNL     1      -2.857  10.219  15.169  0.00  0.00    +0.000 C 
ENDBRANCH  16  28
TORSDOF 4
ENDMDL
MODEL 3
REMARK VINA RESULT:      -6.3      8.840     10.735
REMARK  Name = 
REMARK  8 active torsions:
REMARK  status: ('A' for Active; 'I' for Inactive)
REMARK    1  A    between atoms: C_1  and  O_2
REMARK    2  A    between atoms: O_2  and  C_3
REMARK    3  A    between atoms: C_12  and  O_13
REMARK    4  A    between atoms: O_13  and  C_14
REMARK    5  A    between atoms: C_19  and  O_20
REMARK    6  A    between atoms: O_20  and  C_21
REMARK    7  A    between atoms: C_22  and  O_23
REMARK    8  A    between atoms: O_23  and  C_24
REMARK                            x       y       z     vdW  Elec       q    Type
REMARK                         _______ _______ _______ _____ _____    ______ ____
ROOT
ATOM      1  C   UNL     1      10.742  12.044  17.977  0.00  0.00    +0.000 C 
ATOM      2  C   UNL     1       9.543  11.823  18.574  0.00  0.00    +0.000 C 
ATOM      3  C   UNL     1       9.832  11.200  19.964  0.00  0.00    +0.000 C 
ATOM      4  C   UNL     1       9.091  11.239  21.357  0.00  0.00    +0.000 C 
ATOM      5  C   UNL     1       9.055  12.629  22.014  0.00  0.00    +0.000 A 
ATOM      6  C   UNL     1       9.478  13.588  21.108  0.00  0.00    +0.000 A 
ATOM      7  C   UNL     1       8.442  14.383  20.594  0.00  0.00    +0.000 A 
ATOM      8  C   UNL     1       8.504  15.010  19.332  0.00  0.00    +0.000 A 
ATOM      9  C   UNL     1       7.351  15.501  18.706  0.00  0.00    +0.000 A 
ATOM     10  C   UNL     1       6.130  15.473  19.363  0.00  0.00    +0.000 A 
ATOM     11  C   UNL     1       6.072  14.989  20.663  0.00  0.00    +0.000 A 
ATOM     12  C   UNL     1       7.199  14.436  21.302  0.00  0.00    +0.000 A 
ATOM     13  C   UNL     1       7.105  13.863  22.606  0.00  0.00    +0.000 A 
ATOM     14  C   UNL     1       6.067  14.135  23.536  0.00  0.00    +0.000 A 
ATOM     15  C   UNL     1       6.069  13.603  24.831  0.00  0.00    +0.000 A 
ATOM     16  C   UNL     1       7.086  12.718  25.200  0.00  0.00    +0.000 A 
ATOM     17  C   UNL     1       8.052  12.341  24.255  0.00  0.00    +0.000 A 
ATOM     18  C   UNL     1       8.067  12.929  22.977  0.00  0.00    +0.000 A 
ATOM     19  C   UNL     1      10.882  13.308  20.543  0.00  0.00    +0.000 C 
ATOM     20  N   UNL     1      11.153  11.838  20.250  0.00  0.00    +0.000 NA
ATOM     21  C   UNL     1      11.826  11.683  18.947  0.00  0.00    +0.000 C 
ENDROOT
BRANCH   1  23
ATOM     22  C   UNL     1      11.815  13.898  16.863  0.00  0.00    +0.000 C 
ATOM     23  O   UNL     1      11.174  12.643  16.846  0.00  0.00    +0.000 OA
ENDBRANCH   1  23
BRANCH  10  24
ATOM     24  O   UNL     1       4.919  15.825  18.839  0.00  0.00    +0.000 OA
ATOM     25  C   UNL     1       4.255  16.906  19.475  0.00  0.00    +0.000 C 
ENDBRANCH  10  24
BRANCH  15  26
ATOM     26  O   UNL     1       5.108  13.896  25.767  0.00  0.00    +0.000 OA
ATOM     27  C   UNL     1       5.206  15.180  26.384  0.00  0.00    +0.000 C 
ENDBRANCH  15  26
BRANCH  16  28
ATOM     28  O   UNL     1       7.065  12.223  26.480  0.00  0.00    +0.000 OA
ATOM     29  C   UNL     1       6.333  11.012  26.640  0.00  0.00    +0.000 C 
ENDBRANCH  16  28
TORSDOF 4
ENDMDL
MODEL 4
REMARK VINA RESULT:      -6.3      1.881      2.458
REMARK  Name = 
REMARK  8 active torsions:
REMARK  status: ('A' for Active; 'I' for Inactive)
REMARK    1  A    between atoms: C_1  and  O_2
REMARK    2  A    between atoms: O_2  and  C_3
REMARK    3  A    between atoms: C_12  and  O_13
REMARK    4  A    between atoms: O_13  and  C_14
REMARK    5  A    between atoms: C_19  and  O_20
REMARK    6  A    between atoms: O_20  and  C_21
REMARK    7  A    between atoms: C_22  and  O_23
REMARK    8  A    between atoms: O_23  and  C_24
REMARK                            x       y       z     vdW  Elec       q    Type
REMARK                         _______ _______ _______ _____ _____    ______ ____
ROOT
ATOM      1  C   UNL     1       0.200  10.143  19.236  0.00  0.00    +0.000 C 
ATOM      2  C   UNL     1      -0.845  10.085  20.101  0.00  0.00    +0.000 C 
ATOM      3  C   UNL     1      -0.530  11.059  21.264  0.00  0.00    +0.000 C 
ATOM      4  C   UNL     1      -1.420  11.938  22.227  0.00  0.00    +0.000 C 
ATOM      5  C   UNL     1      -2.188  13.067  21.521  0.00  0.00    +0.000 A 
ATOM      6  C   UNL     1      -2.108  12.903  20.148  0.00  0.00    +0.000 A 
ATOM      7  C   UNL     1      -3.296  12.440  19.560  0.00  0.00    +0.000 A 
ATOM      8  C   UNL     1      -3.325  11.704  18.357  0.00  0.00    +0.000 A 
ATOM      9  C   UNL     1      -4.458  10.974  17.978  0.00  0.00    +0.000 A 
ATOM     10  C   UNL     1      -5.620  11.041  18.732  0.00  0.00    +0.000 A 
ATOM     11  C   UNL     1      -5.659  11.872  19.844  0.00  0.00    +0.000 A 
ATOM     12  C   UNL     1      -4.522  12.577  20.285  0.00  0.00    +0.000 A 
ATOM     13  C   UNL     1      -4.552  13.358  21.479  0.00  0.00    +0.000 A 
ATOM     14  C   UNL     1      -5.734  13.849  22.096  0.00  0.00    +0.000 A 
ATOM     15  C   UNL     1      -5.697  14.677  23.224  0.00  0.00    +0.000 A 
ATOM     16  C   UNL     1      -4.462  14.974  23.807  0.00  0.00    +0.000 A 
ATOM     17  C   UNL     1      -3.293  14.399  23.286  0.00  0.00    +0.000 A 
ATOM     18  C   UNL     1      -3.344  13.616  22.119  0.00  0.00    +0.000 A 
ATOM     19  C   UNL     1      -0.661  12.845  19.629  0.00  0.00    +0.000 C 
ATOM     20  N   UNL     1       0.292  12.066  20.528  0.00  0.00    +0.000 NA
ATOM     21  C   UNL     1       1.160  11.185  19.724  0.00  0.00    +0.000 C 
ENDROOT
BRANCH   1  23
ATOM     22  C   UNL     1       1.712   9.001  17.739  0.00  0.00    +0.000 C 
ATOM     23  O   UNL     1       0.487   9.640  18.015  0.00  0.00    +0.000 OA
ENDBRANCH   1  23
BRANCH  10  24
ATOM     24  O   UNL     1      -6.759  10.311  18.535  0.00  0.00    +0.000 OA
ATOM     25  C   UNL     1      -7.061   9.346  19.531  0.00  0.00    +0.000 C 
ENDBRANCH  10  24
BRANCH  15  26
ATOM     26  O   UNL     1      -6.822  15.210  23.804  0.00  0.00    +0.000 OA
ATOM     27  C   UNL     1      -7.870  14.288  24.102  0.00  0.00    +0.000 C 
ENDBRANCH  15  26
BRANCH  16  28
ATOM     28  O   UNL     1      -4.461  15.799  24.905  0.00  0.00    +0.000 OA
ATOM     29  C   UNL     1      -3.369  16.711  24.965  0.00  0.00    +0.000 C 
ENDBRANCH  16  28
TORSDOF 4
ENDMDL
MODEL 5
REMARK VINA RESULT:      -6.2      2.436      6.875
REMARK  Name = 
REMARK  8 active torsions:
REMARK  status: ('A' for Active; 'I' for Inactive)
REMARK    1  A    between atoms: C_1  and  O_2
REMARK    2  A    between atoms: O_2  and  C_3
REMARK    3  A    between atoms: C_12  and  O_13
REMARK    4  A    between atoms: O_13  and  C_14
REMARK    5  A    between atoms: C_19  and  O_20
REMARK    6  A    between atoms: O_20  and  C_21
REMARK    7  A    between atoms: C_22  and  O_23
REMARK    8  A    between atoms: O_23  and  C_24
REMARK                            x       y       z     vdW  Elec       q    Type
REMARK                         _______ _______ _______ _____ _____    ______ ____
ROOT
ATOM      1  C   UNL     1      -4.538  15.833  23.248  0.00  0.00    +0.000 C 
ATOM      2  C   UNL     1      -4.189  15.717  21.941  0.00  0.00    +0.000 C 
ATOM      3  C   UNL     1      -2.839  14.955  21.895  0.00  0.00    +0.000 C 
ATOM      4  C   UNL     1      -2.168  13.980  20.851  0.00  0.00    +0.000 C 
ATOM      5  C   UNL     1      -2.902  12.641  20.677  0.00  0.00    +0.000 A 
ATOM      6  C   UNL     1      -4.135  12.694  21.307  0.00  0.00    +0.000 A 
ATOM      7  C   UNL     1      -5.221  12.804  20.425  0.00  0.00    +0.000 A 
ATOM      8  C   UNL     1      -6.449  13.400  20.784  0.00  0.00    +0.000 A 
ATOM      9  C   UNL     1      -7.375  13.801  19.812  0.00  0.00    +0.000 A 
ATOM     10  C   UNL     1      -7.148  13.526  18.472  0.00  0.00    +0.000 A 
ATOM     11  C   UNL     1      -6.012  12.814  18.110  0.00  0.00    +0.000 A 
ATOM     12  C   UNL     1      -5.033  12.444  19.053  0.00  0.00    +0.000 A 
ATOM     13  C   UNL     1      -3.830  11.790  18.654  0.00  0.00    +0.000 A 
ATOM     14  C   UNL     1      -3.658  11.088  17.430  0.00  0.00    +0.000 A 
ATOM     15  C   UNL     1      -2.478  10.399  17.128  0.00  0.00    +0.000 A 
ATOM     16  C   UNL     1      -1.406  10.459  18.024  0.00  0.00    +0.000 A 
ATOM     17  C   UNL     1      -1.514  11.248  19.179  0.00  0.00    +0.000 A 
ATOM     18  C   UNL     1      -2.726  11.888  19.495  0.00  0.00    +0.000 A 
ATOM     19  C   UNL     1      -4.034  13.050  22.801  0.00  0.00    +0.000 C 
ATOM     20  N   UNL     1      -2.990  14.113  23.119  0.00  0.00    +0.000 NA
ATOM     21  C   UNL     1      -3.527  15.099  24.075  0.00  0.00    +0.000 C 
ENDROOT
BRANCH   1  23
ATOM     22  C   UNL     1      -6.915  15.807  23.674  0.00  0.00    +0.000 C 
ATOM     23  O   UNL     1      -5.613  16.277  23.936  0.00  0.00    +0.000 OA
ENDBRANCH   1  23
BRANCH  10  24
ATOM     24  O   UNL     1      -7.912  13.941  17.418  0.00  0.00    +0.000 OA
ATOM     25  C   UNL     1      -7.236  14.673  16.407  0.00  0.00    +0.000 C 
ENDBRANCH  10  24
BRANCH  15  26
ATOM     26  O   UNL     1      -2.307   9.666  15.978  0.00  0.00    +0.000 OA
ATOM     27  C   UNL     1      -2.884  10.216  14.794  0.00  0.00    +0.000 C 
ENDBRANCH  15  26
BRANCH  16  28
ATOM     28  O   UNL     1      -0.268   9.762  17.701  0.00  0.00    +0.000 OA
ATOM     29  C   UNL     1       0.831   9.975  18.582  0.00  0.00    +0.000 C 
ENDBRANCH  16  28
TORSDOF 4
ENDMDL
MODEL 6
REMARK VINA RESULT:      -6.2      1.315      1.538
REMARK  Name = 
REMARK  8 active torsions:
REMARK  status: ('A' for Active; 'I' for Inactive)
REMARK    1  A    between atoms: C_1  and  O_2
REMARK    2  A    between atoms: O_2  and  C_3
REMARK    3  A    between atoms: C_12  and  O_13
REMARK    4  A    between atoms: O_13  and  C_14
REMARK    5  A    between atoms: C_19  and  O_20
REMARK    6  A    between atoms: O_20  and  C_21
REMARK    7  A    between atoms: C_22  and  O_23
REMARK    8  A    between atoms: O_23  and  C_24
REMARK                            x       y       z     vdW  Elec       q    Type
REMARK                         _______ _______ _______ _____ _____    ______ ____
ROOT
ATOM      1  C   UNL     1       0.651   9.352  20.416  0.00  0.00    +0.000 C 
ATOM      2  C   UNL     1      -0.600   9.492  20.925  0.00  0.00    +0.000 C 
ATOM      3  C   UNL     1      -0.477  10.346  22.213  0.00  0.00    +0.000 C 
ATOM      4  C   UNL     1      -1.433  11.365  22.946  0.00  0.00    +0.000 C 
ATOM      5  C   UNL     1      -1.716  12.649  22.150  0.00  0.00    +0.000 A 
ATOM      6  C   UNL     1      -1.253  12.510  20.852  0.00  0.00    +0.000 A 
ATOM      7  C   UNL     1      -2.269  12.323  19.901  0.00  0.00    +0.000 A 
ATOM      8  C   UNL     1      -2.068  11.642  18.682  0.00  0.00    +0.000 A 
ATOM      9  C   UNL     1      -3.148  11.176  17.922  0.00  0.00    +0.000 A 
ATOM     10  C   UNL     1      -4.450  11.465  18.304  0.00  0.00    +0.000 A 
ATOM     11  C   UNL     1      -4.667  12.255  19.425  0.00  0.00    +0.000 A 
ATOM     12  C   UNL     1      -3.608  12.693  20.243  0.00  0.00    +0.000 A 
ATOM     13  C   UNL     1      -3.852  13.430  21.440  0.00  0.00    +0.000 A 
ATOM     14  C   UNL     1      -5.049  14.141  21.723  0.00  0.00    +0.000 A 
ATOM     15  C   UNL     1      -5.201  14.911  22.882  0.00  0.00    +0.000 A 
ATOM     16  C   UNL     1      -4.172  14.927  23.827  0.00  0.00    +0.000 A 
ATOM     17  C   UNL     1      -3.033  14.135  23.623  0.00  0.00    +0.000 A 
ATOM     18  C   UNL     1      -2.872  13.411  22.428  0.00  0.00    +0.000 A 
ATOM     19  C   UNL     1       0.245  12.164  20.779  0.00  0.00    +0.000 C 
ATOM     20  N   UNL     1       0.708  11.177  21.844  0.00  0.00    +0.000 NA
ATOM     21  C   UNL     1       1.596  10.157  21.256  0.00  0.00    +0.000 C 
ENDROOT
BRANCH   1  23
ATOM     22  C   UNL     1       1.537   9.639  18.188  0.00  0.00    +0.000 C 
ATOM     23  O   UNL     1       1.196   8.835  19.293  0.00  0.00    +0.000 OA
ENDBRANCH   1  23
BRANCH  10  24
ATOM     24  O   UNL     1      -5.591  10.996  17.716  0.00  0.00    +0.000 OA
ATOM     25  C   UNL     1      -6.708  10.822  18.573  0.00  0.00    +0.000 C 
ENDBRANCH  10  24
BRANCH  15  26
ATOM     26  O   UNL     1      -6.326  15.653  23.151  0.00  0.00    +0.000 OA
ATOM     27  C   UNL     1      -7.487  14.914  23.531  0.00  0.00    +0.000 C 
ENDBRANCH  15  26
BRANCH  16  28
ATOM     28  O   UNL     1      -4.349  15.702  24.947  0.00  0.00    +0.000 OA
ATOM     29  C   UNL     1      -3.446  16.798  25.063  0.00  0.00    +0.000 C 
ENDBRANCH  16  28
TORSDOF 4
ENDMDL
MODEL 7
REMARK VINA RESULT:      -5.8      9.955     11.625
REMARK  Name = 
REMARK  8 active torsions:
REMARK  status: ('A' for Active; 'I' for Inactive)
REMARK    1  A    between atoms: C_1  and  O_2
REMARK    2  A    between atoms: O_2  and  C_3
REMARK    3  A    between atoms: C_12  and  O_13
REMARK    4  A    between atoms: O_13  and  C_14
REMARK    5  A    between atoms: C_19  and  O_20
REMARK    6  A    between atoms: O_20  and  C_21
REMARK    7  A    between atoms: C_22  and  O_23
REMARK    8  A    between atoms: O_23  and  C_24
REMARK                            x       y       z     vdW  Elec       q    Type
REMARK                         _______ _______ _______ _____ _____    ______ ____
ROOT
ATOM      1  C   UNL     1      10.860  12.641  17.488  0.00  0.00    +0.000 C 
ATOM      2  C   UNL     1       9.660  12.704  18.121  0.00  0.00    +0.000 C 
ATOM      3  C   UNL     1       9.717  11.710  19.309  0.00  0.00    +0.000 C 
ATOM      4  C   UNL     1       9.039  11.667  20.733  0.00  0.00    +0.000 C 
ATOM      5  C   UNL     1       9.491  12.789  21.682  0.00  0.00    +0.000 A 
ATOM      6  C   UNL     1      10.221  13.734  20.978  0.00  0.00    +0.000 A 
ATOM      7  C   UNL     1       9.525  14.930  20.742  0.00  0.00    +0.000 A 
ATOM      8  C   UNL     1       9.800  15.779  19.649  0.00  0.00    +0.000 A 
ATOM      9  C   UNL     1       8.889  16.765  19.247  0.00  0.00    +0.000 A 
ATOM     10  C   UNL     1       7.736  16.996  19.982  0.00  0.00    +0.000 A 
ATOM     11  C   UNL     1       7.516  16.268  21.143  0.00  0.00    +0.000 A 
ATOM     12  C   UNL     1       8.381  15.232  21.547  0.00  0.00    +0.000 A 
ATOM     13  C   UNL     1       8.095  14.433  22.694  0.00  0.00    +0.000 A 
ATOM     14  C   UNL     1       7.219  14.812  23.746  0.00  0.00    +0.000 A 
ATOM     15  C   UNL     1       7.038  14.020  24.886  0.00  0.00    +0.000 A 
ATOM     16  C   UNL     1       7.683  12.782  24.963  0.00  0.00    +0.000 A 
ATOM     17  C   UNL     1       8.456  12.336  23.880  0.00  0.00    +0.000 A 
ATOM     18  C   UNL     1       8.672  13.169  22.767  0.00  0.00    +0.000 A 
ATOM     19  C   UNL     1      11.437  13.137  20.249  0.00  0.00    +0.000 C 
ATOM     20  N   UNL     1      11.178  11.776  19.616  0.00  0.00    +0.000 NA
ATOM     21  C   UNL     1      11.753  11.716  18.259  0.00  0.00    +0.000 C 
ENDROOT
BRANCH   1  23
ATOM     22  C   UNL     1      11.634  14.708  16.508  0.00  0.00    +0.000 C 
ATOM     23  O   UNL     1      11.472  13.308  16.485  0.00  0.00    +0.000 OA
ENDBRANCH   1  23
BRANCH  10  24
ATOM     24  O   UNL     1       6.723  17.851  19.653  0.00  0.00    +0.000 OA
ATOM     25  C   UNL     1       5.872  18.249  20.717  0.00  0.00    +0.000 C 
ENDBRANCH  10  24
BRANCH  15  26
ATOM     26  O   UNL     1       6.241  14.390  25.942  0.00  0.00    +0.000 OA
ATOM     27  C   UNL     1       5.342  15.473  25.698  0.00  0.00    +0.000 C 
ENDBRANCH  15  26
BRANCH  16  28
ATOM     28  O   UNL     1       7.493  12.036  26.100  0.00  0.00    +0.000 OA
ATOM     29  C   UNL     1       6.362  11.172  26.064  0.00  0.00    +0.000 C 
ENDBRANCH  16  28
TORSDOF 4
ENDMDL
MODEL 8
REMARK VINA RESULT:      -5.8      0.998      1.039
REMARK  Name = 
REMARK  8 active torsions:
REMARK  status: ('A' for Active; 'I' for Inactive)
REMARK    1  A    between atoms: C_1  and  O_2
REMARK    2  A    between atoms: O_2  and  C_3
REMARK    3  A    between atoms: C_12  and  O_13
REMARK    4  A    between atoms: O_13  and  C_14
REMARK    5  A    between atoms: C_19  and  O_20
REMARK    6  A    between atoms: O_20  and  C_21
REMARK    7  A    between atoms: C_22  and  O_23
REMARK    8  A    between atoms: O_23  and  C_24
REMARK                            x       y       z     vdW  Elec       q    Type
REMARK                         _______ _______ _______ _____ _____    ______ ____
ROOT
ATOM      1  C   UNL     1       1.151   8.420  21.535  0.00  0.00    +0.000 C 
ATOM      2  C   UNL     1      -0.189   8.631  21.478  0.00  0.00    +0.000 C 
ATOM      3  C   UNL     1      -0.543   9.627  22.612  0.00  0.00    +0.000 C 
ATOM      4  C   UNL     1      -1.654  10.735  22.788  0.00  0.00    +0.000 C 
ATOM      5  C   UNL     1      -1.520  11.921  21.819  0.00  0.00    +0.000 A 
ATOM      6  C   UNL     1      -0.584  11.627  20.841  0.00  0.00    +0.000 A 
ATOM      7  C   UNL     1      -1.143  11.342  19.585  0.00  0.00    +0.000 A 
ATOM      8  C   UNL     1      -0.510  10.523  18.627  0.00  0.00    +0.000 A 
ATOM      9  C   UNL     1      -1.220   9.984  17.547  0.00  0.00    +0.000 A 
ATOM     10  C   UNL     1      -2.547  10.329  17.338  0.00  0.00    +0.000 A 
ATOM     11  C   UNL     1      -3.150  11.246  18.189  0.00  0.00    +0.000 A 
ATOM     12  C   UNL     1      -2.483  11.765  19.316  0.00  0.00    +0.000 A 
ATOM     13  C   UNL     1      -3.145  12.639  20.231  0.00  0.00    +0.000 A 
ATOM     14  C   UNL     1      -4.312  13.390  19.931  0.00  0.00    +0.000 A 
ATOM     15  C   UNL     1      -4.872  14.292  20.844  0.00  0.00    +0.000 A 
ATOM     16  C   UNL     1      -4.309  14.406  22.118  0.00  0.00    +0.000 A 
ATOM     17  C   UNL     1      -3.230  13.582  22.475  0.00  0.00    +0.000 A 
ATOM     18  C   UNL     1      -2.645  12.723  21.526  0.00  0.00    +0.000 A 
ATOM     19  C   UNL     1       0.795  11.259  21.416  0.00  0.00    +0.000 C 
ATOM     20  N   UNL     1       0.736  10.397  22.671  0.00  0.00    +0.000 NA
ATOM     21  C   UNL     1       1.725   9.305  22.600  0.00  0.00    +0.000 C 
ENDROOT
BRANCH   1  23
ATOM     22  C   UNL     1       1.704   6.892  19.749  0.00  0.00    +0.000 C 
ATOM     23  O   UNL     1       2.070   7.770  20.789  0.00  0.00    +0.000 OA
ENDBRANCH   1  23
BRANCH  10  24
ATOM     24  O   UNL     1      -3.381   9.808  16.390  0.00  0.00    +0.000 OA
ATOM     25  C   UNL     1      -3.225  10.317  15.074  0.00  0.00    +0.000 C 
ENDBRANCH  10  24
BRANCH  15  26
ATOM     26  O   UNL     1      -5.966  15.072  20.558  0.00  0.00    +0.000 OA
ATOM     27  C   UNL     1      -7.192  14.374  20.339  0.00  0.00    +0.000 C 
ENDBRANCH  15  26
BRANCH  16  28
ATOM     28  O   UNL     1      -4.875  15.307  22.985  0.00  0.00    +0.000 OA
ATOM     29  C   UNL     1      -5.850  14.757  23.865  0.00  0.00    +0.000 C 
ENDBRANCH  16  28
TORSDOF 4
ENDMDL
MODEL 9
REMARK VINA RESULT:      -5.7      8.273     11.958
REMARK  Name = 
REMARK  8 active torsions:
REMARK  status: ('A' for Active; 'I' for Inactive)
REMARK    1  A    between atoms: C_1  and  O_2
REMARK    2  A    between atoms: O_2  and  C_3
REMARK    3  A    between atoms: C_12  and  O_13
REMARK    4  A    between atoms: O_13  and  C_14
REMARK    5  A    between atoms: C_19  and  O_20
REMARK    6  A    between atoms: O_20  and  C_21
REMARK    7  A    between atoms: C_22  and  O_23
REMARK    8  A    between atoms: O_23  and  C_24
REMARK                            x       y       z     vdW  Elec       q    Type
REMARK                         _______ _______ _______ _____ _____    ______ ____
ROOT
ATOM      1  C   UNL     1       2.696  15.531  19.405  0.00  0.00    +0.000 C 
ATOM      2  C   UNL     1       3.620  14.545  19.274  0.00  0.00    +0.000 C 
ATOM      3  C   UNL     1       4.576  14.963  18.128  0.00  0.00    +0.000 C 
ATOM      4  C   UNL     1       6.102  14.697  17.823  0.00  0.00    +0.000 C 
ATOM      5  C   UNL     1       7.068  15.341  18.831  0.00  0.00    +0.000 A 
ATOM      6  C   UNL     1       6.360  15.812  19.926  0.00  0.00    +0.000 A 
ATOM      7  C   UNL     1       6.510  15.029  21.081  0.00  0.00    +0.000 A 
ATOM      8  C   UNL     1       5.535  14.961  22.098  0.00  0.00    +0.000 A 
ATOM      9  C   UNL     1       5.547  13.935  23.051  0.00  0.00    +0.000 A 
ATOM     10  C   UNL     1       6.585  13.015  23.077  0.00  0.00    +0.000 A 
ATOM     11  C   UNL     1       7.630  13.147  22.172  0.00  0.00    +0.000 A 
ATOM     12  C   UNL     1       7.622  14.132  21.165  0.00  0.00    +0.000 A 
ATOM     13  C   UNL     1       8.660  14.201  20.188  0.00  0.00    +0.000 A 
ATOM     14  C   UNL     1       9.951  13.627  20.337  0.00  0.00    +0.000 A 
ATOM     15  C   UNL     1      10.955  13.795  19.376  0.00  0.00    +0.000 A 
ATOM     16  C   UNL     1      10.661  14.489  18.200  0.00  0.00    +0.000 A 
ATOM     17  C   UNL     1       9.357  14.958  17.980  0.00  0.00    +0.000 A 
ATOM     18  C   UNL     1       8.376  14.830  18.980  0.00  0.00    +0.000 A 
ATOM     19  C   UNL     1       5.254  16.811  19.545  0.00  0.00    +0.000 C 
ATOM     20  N   UNL     1       4.499  16.448  18.272  0.00  0.00    +0.000 NA
ATOM     21  C   UNL     1       3.048  16.637  18.457  0.00  0.00    +0.000 C 
ENDROOT
BRANCH   1  23
ATOM     22  C   UNL     1       1.598  15.229  21.534  0.00  0.00    +0.000 C 
ATOM     23  O   UNL     1       1.689  15.820  20.258  0.00  0.00    +0.000 OA
ENDBRANCH   1  23
BRANCH  10  24
ATOM     24  O   UNL     1       6.673  11.914  23.882  0.00  0.00    +0.000 OA
ATOM     25  C   UNL     1       7.985  11.505  24.237  0.00  0.00    +0.000 C 
ENDBRANCH  10  24
BRANCH  15  26
ATOM     26  O   UNL     1      12.227  13.297  19.523  0.00  0.00    +0.000 OA
ATOM     27  C   UNL     1      12.333  11.882  19.673  0.00  0.00    +0.000 C 
ENDBRANCH  15  26
BRANCH  16  28
ATOM     28  O   UNL     1      11.672  14.645  17.284  0.00  0.00    +0.000 OA
ATOM     29  C   UNL     1      12.121  15.986  17.113  0.00  0.00    +0.000 C 
ENDBRANCH  16  28
TORSDOF 4
ENDMDL
