MODEL 1
REMARK VINA RESULT:      -7.1      0.000      0.000
REMARK  Name = 
REMARK  13 active torsions:
REMARK  status: ('A' for Active; 'I' for Inactive)
REMARK    1  A    between atoms: C_1  and  C_2
REMARK    2  A    between atoms: C_2  and  N_3
REMARK    3  A    between atoms: N_3  and  C_20
REMARK    4  A    between atoms: N_6  and  C_7
REMARK    5  A    between atoms: C_7  and  C_8
REMARK    6  A    between atoms: C_7  and  C_17
REMARK    7  A    between atoms: N_10  and  C_11
REMARK    8  A    between atoms: C_11  and  C_12
REMARK    9  A    between atoms: C_11  and  C_13
REMARK   10  A    between atoms: C_13  and  O_15
REMARK   11  A    between atoms: O_15  and  C_16
REMARK   12  A    between atoms: C_17  and  C_18
REMARK   13  A    between atoms: C_17  and  C_19
REMARK                            x       y       z     vdW  Elec       q    Type
REMARK                         _______ _______ _______ _____ _____    ______ ____
ROOT
ATOM      1  C   UNL     1       3.079   6.309  18.659  0.00  0.00    +0.000 C 
ENDROOT
BRANCH   1   5
ATOM      2  N   UNL     1       0.814   9.196  19.616  0.00  0.00    +0.000 N 
ATOM      3  C   UNL     1       1.754   8.148  19.772  0.00  0.00    +0.000 C 
ATOM      4  O   UNL     1       2.125   7.729  20.867  0.00  0.00    +0.000 OA
ATOM      5  N   UNL     1       2.220   7.541  18.607  0.00  0.00    +0.000 N 
ATOM      6  H   UNL     1       1.677   7.671  17.770  0.00  0.00    +0.000 HD
BRANCH   2   7
ATOM      7  C   UNL     1       0.291   9.853  20.803  0.00  0.00    +0.000 A 
ATOM      8  C   UNL     1       0.226  11.256  20.909  0.00  0.00    +0.000 A 
ATOM      9  C   UNL     1      -0.359  11.866  22.033  0.00  0.00    +0.000 A 
ATOM     10  C   UNL     1      -0.880  11.094  23.067  0.00  0.00    +0.000 A 
ATOM     11  C   UNL     1      -0.804   9.708  22.988  0.00  0.00    +0.000 A 
ATOM     12  C   UNL     1      -0.213   9.103  21.870  0.00  0.00    +0.000 A 
ENDBRANCH   2   7
BRANCH   2  14
ATOM     13  C   UNL     1      -0.718  10.014  17.713  0.00  0.00    +0.000 C 
ATOM     14  C   UNL     1       0.658   9.998  18.374  0.00  0.00    +0.000 C 
ENDBRANCH   2  14
ENDBRANCH   1   5
BRANCH   1  15
ATOM     15  C   UNL     1       4.321   6.361  17.721  0.00  0.00    +0.000 C 
ATOM     16  O   UNL     1       4.253   6.889  16.608  0.00  0.00    +0.000 OA
ATOM     17  N   UNL     1       5.540   5.980  18.241  0.00  0.00    +0.000 N 
ATOM     18  H   UNL     1       5.532   5.254  18.950  0.00  0.00    +0.000 HD
BRANCH  17  19
ATOM     19  C   UNL     1       6.757   6.137  17.420  0.00  0.00    +0.000 C 
ATOM     20  C   UNL     1       7.728   7.124  18.063  0.00  0.00    +0.000 C 
BRANCH  19  21
ATOM     21  C   UNL     1       7.500   4.837  17.090  0.00  0.00    +0.000 C 
ATOM     22  O   UNL     1       8.056   4.137  17.930  0.00  0.00    +0.000 OA
BRANCH  21  23
ATOM     23  O   UNL     1       7.515   4.585  15.749  0.00  0.00    +0.000 OA
ATOM     24  C   UNL     1       6.275   4.061  15.269  0.00  0.00    +0.000 C 
ENDBRANCH  21  23
ENDBRANCH  19  21
ENDBRANCH  17  19
ENDBRANCH   1  15
BRANCH   1  25
ATOM     25  C   UNL     1       2.248   5.004  18.389  0.00  0.00    +0.000 C 
ATOM     26  C   UNL     1       2.966   3.936  17.538  0.00  0.00    +0.000 C 
ATOM     27  C   UNL     1       1.842   4.317  19.701  0.00  0.00    +0.000 C 
ENDBRANCH   1  25
TORSDOF 8
ENDMDL
MODEL 2
REMARK VINA RESULT:      -7.0      1.455      2.184
REMARK  Name = 
REMARK  13 active torsions:
REMARK  status: ('A' for Active; 'I' for Inactive)
REMARK    1  A    between atoms: C_1  and  C_2
REMARK    2  A    between atoms: C_2  and  N_3
REMARK    3  A    between atoms: N_3  and  C_20
REMARK    4  A    between atoms: N_6  and  C_7
REMARK    5  A    between atoms: C_7  and  C_8
REMARK    6  A    between atoms: C_7  and  C_17
REMARK    7  A    between atoms: N_10  and  C_11
REMARK    8  A    between atoms: C_11  and  C_12
REMARK    9  A    between atoms: C_11  and  C_13
REMARK   10  A    between atoms: C_13  and  O_15
REMARK   11  A    between atoms: O_15  and  C_16
REMARK   12  A    between atoms: C_17  and  C_18
REMARK   13  A    between atoms: C_17  and  C_19
REMARK                            x       y       z     vdW  Elec       q    Type
REMARK                         _______ _______ _______ _____ _____    ______ ____
ROOT
ATOM      1  C   UNL     1       2.973   5.592  19.627  0.00  0.00    +0.000 C 
ENDROOT
BRANCH   1   5
ATOM      2  N   UNL     1       1.390   8.987  19.041  0.00  0.00    +0.000 N 
ATOM      3  C   UNL     1       1.798   7.824  19.738  0.00  0.00    +0.000 C 
ATOM      4  O   UNL     1       1.422   7.550  20.877  0.00  0.00    +0.000 OA
ATOM      5  N   UNL     1       2.624   6.936  19.052  0.00  0.00    +0.000 N 
ATOM      6  H   UNL     1       2.651   7.012  18.048  0.00  0.00    +0.000 HD
BRANCH   2   7
ATOM      7  C   UNL     1       0.520   9.940  19.713  0.00  0.00    +0.000 A 
ATOM      8  C   UNL     1       0.898  10.576  20.912  0.00  0.00    +0.000 A 
ATOM      9  C   UNL     1       0.074  11.554  21.497  0.00  0.00    +0.000 A 
ATOM     10  C   UNL     1      -1.135  11.908  20.907  0.00  0.00    +0.000 A 
ATOM     11  C   UNL     1      -1.533  11.274  19.735  0.00  0.00    +0.000 A 
ATOM     12  C   UNL     1      -0.714  10.294  19.157  0.00  0.00    +0.000 A 
ENDBRANCH   2   7
BRANCH   2  14
ATOM     13  C   UNL     1       2.387  11.066  17.892  0.00  0.00    +0.000 C 
ATOM     14  C   UNL     1       2.117   9.563  17.880  0.00  0.00    +0.000 C 
ENDBRANCH   2  14
ENDBRANCH   1   5
BRANCH   1  15
ATOM     15  C   UNL     1       4.217   4.924  18.969  0.00  0.00    +0.000 C 
ATOM     16  O   UNL     1       4.760   3.946  19.489  0.00  0.00    +0.000 OA
ATOM     17  N   UNL     1       4.571   5.328  17.699  0.00  0.00    +0.000 N 
ATOM     18  H   UNL     1       4.389   6.296  17.455  0.00  0.00    +0.000 HD
BRANCH  17  19
ATOM     19  C   UNL     1       5.665   4.627  16.997  0.00  0.00    +0.000 C 
ATOM     20  C   UNL     1       5.465   4.678  15.484  0.00  0.00    +0.000 C 
BRANCH  19  21
ATOM     21  C   UNL     1       7.080   5.109  17.338  0.00  0.00    +0.000 C 
ATOM     22  O   UNL     1       7.803   4.568  18.168  0.00  0.00    +0.000 OA
BRANCH  21  23
ATOM     23  O   UNL     1       7.411   6.241  16.653  0.00  0.00    +0.000 OA
ATOM     24  C   UNL     1       7.534   7.386  17.500  0.00  0.00    +0.000 C 
ENDBRANCH  21  23
ENDBRANCH  19  21
ENDBRANCH  17  19
ENDBRANCH   1  15
BRANCH   1  25
ATOM     25  C   UNL     1       1.749   4.608  19.601  0.00  0.00    +0.000 C 
ATOM     26  C   UNL     1       1.715   3.639  18.400  0.00  0.00    +0.000 C 
ATOM     27  C   UNL     1       1.703   3.739  20.866  0.00  0.00    +0.000 C 
ENDBRANCH   1  25
TORSDOF 8
ENDMDL
MODEL 3
REMARK VINA RESULT:      -6.9      0.598      1.301
REMARK  Name = 
REMARK  13 active torsions:
REMARK  status: ('A' for Active; 'I' for Inactive)
REMARK    1  A    between atoms: C_1  and  C_2
REMARK    2  A    between atoms: C_2  and  N_3
REMARK    3  A    between atoms: N_3  and  C_20
REMARK    4  A    between atoms: N_6  and  C_7
REMARK    5  A    between atoms: C_7  and  C_8
REMARK    6  A    between atoms: C_7  and  C_17
REMARK    7  A    between atoms: N_10  and  C_11
REMARK    8  A    between atoms: C_11  and  C_12
REMARK    9  A    between atoms: C_11  and  C_13
REMARK   10  A    between atoms: C_13  and  O_15
REMARK   11  A    between atoms: O_15  and  C_16
REMARK   12  A    between atoms: C_17  and  C_18
REMARK   13  A    between atoms: C_17  and  C_19
REMARK                            x       y       z     vdW  Elec       q    Type
REMARK                         _______ _______ _______ _____ _____    ______ ____
ROOT
ATOM      1  C   UNL     1       3.122   6.367  19.054  0.00  0.00    +0.000 C 
ENDROOT
BRANCH   1   5
ATOM      2  N   UNL     1       0.662   9.181  19.689  0.00  0.00    +0.000 N 
ATOM      3  C   UNL     1       1.669   8.224  19.958  0.00  0.00    +0.000 C 
ATOM      4  O   UNL     1       2.063   7.956  21.093  0.00  0.00    +0.000 OA
ATOM      5  N   UNL     1       2.181   7.524  18.867  0.00  0.00    +0.000 N 
ATOM      6  H   UNL     1       1.634   7.522  18.022  0.00  0.00    +0.000 HD
BRANCH   2   7
ATOM      7  C   UNL     1       0.090   9.931  20.796  0.00  0.00    +0.000 A 
ATOM      8  C   UNL     1      -0.386   9.294  21.959  0.00  0.00    +0.000 A 
ATOM      9  C   UNL     1      -0.859  10.047  23.049  0.00  0.00    +0.000 A 
ATOM     10  C   UNL     1      -0.872  11.437  22.997  0.00  0.00    +0.000 A 
ATOM     11  C   UNL     1      -0.426  12.080  21.848  0.00  0.00    +0.000 A 
ATOM     12  C   UNL     1       0.038  11.328  20.760  0.00  0.00    +0.000 A 
ENDBRANCH   2   7
BRANCH   2  14
ATOM     13  C   UNL     1      -0.954   9.811  17.783  0.00  0.00    +0.000 C 
ATOM     14  C   UNL     1       0.457   9.828  18.366  0.00  0.00    +0.000 C 
ENDBRANCH   2  14
ENDBRANCH   1   5
BRANCH   1  15
ATOM     15  C   UNL     1       4.313   6.349  18.052  0.00  0.00    +0.000 C 
ATOM     16  O   UNL     1       4.234   6.924  16.963  0.00  0.00    +0.000 OA
ATOM     17  N   UNL     1       5.519   5.843  18.491  0.00  0.00    +0.000 N 
ATOM     18  H   UNL     1       5.484   5.094  19.173  0.00  0.00    +0.000 HD
BRANCH  17  19
ATOM     19  C   UNL     1       6.701   5.927  17.610  0.00  0.00    +0.000 C 
ATOM     20  C   UNL     1       7.843   6.674  18.295  0.00  0.00    +0.000 C 
BRANCH  19  21
ATOM     21  C   UNL     1       7.219   4.587  17.076  0.00  0.00    +0.000 C 
ATOM     22  O   UNL     1       8.324   4.126  17.346  0.00  0.00    +0.000 OA
BRANCH  21  23
ATOM     23  O   UNL     1       6.331   4.000  16.223  0.00  0.00    +0.000 OA
ATOM     24  C   UNL     1       6.306   4.622  14.936  0.00  0.00    +0.000 C 
ENDBRANCH  21  23
ENDBRANCH  19  21
ENDBRANCH  17  19
ENDBRANCH   1  15
BRANCH   1  25
ATOM     25  C   UNL     1       2.368   4.989  19.028  0.00  0.00    +0.000 C 
ATOM     26  C   UNL     1       1.475   4.709  20.256  0.00  0.00    +0.000 C 
ATOM     27  C   UNL     1       1.463   4.870  17.793  0.00  0.00    +0.000 C 
ENDBRANCH   1  25
TORSDOF 8
ENDMDL
MODEL 4
REMARK VINA RESULT:      -6.8      1.363      2.388
REMARK  Name = 
REMARK  13 active torsions:
REMARK  status: ('A' for Active; 'I' for Inactive)
REMARK    1  A    between atoms: C_1  and  C_2
REMARK    2  A    between atoms: C_2  and  N_3
REMARK    3  A    between atoms: N_3  and  C_20
REMARK    4  A    between atoms: N_6  and  C_7
REMARK    5  A    between atoms: C_7  and  C_8
REMARK    6  A    between atoms: C_7  and  C_17
REMARK    7  A    between atoms: N_10  and  C_11
REMARK    8  A    between atoms: C_11  and  C_12
REMARK    9  A    between atoms: C_11  and  C_13
REMARK   10  A    between atoms: C_13  and  O_15
REMARK   11  A    between atoms: O_15  and  C_16
REMARK   12  A    between atoms: C_17  and  C_18
REMARK   13  A    between atoms: C_17  and  C_19
REMARK                            x       y       z     vdW  Elec       q    Type
REMARK                         _______ _______ _______ _____ _____    ______ ____
ROOT
ATOM      1  C   UNL     1       3.181   4.983  19.515  0.00  0.00    +0.000 C 
ENDROOT
BRANCH   1   5
ATOM      2  N   UNL     1       1.441   8.345  19.735  0.00  0.00    +0.000 N 
ATOM      3  C   UNL     1       2.022   7.129  20.169  0.00  0.00    +0.000 C 
ATOM      4  O   UNL     1       1.924   6.705  21.320  0.00  0.00    +0.000 OA
ATOM      5  N   UNL     1       2.683   6.367  19.207  0.00  0.00    +0.000 N 
ATOM      6  H   UNL     1       2.476   6.563  18.242  0.00  0.00    +0.000 HD
BRANCH   2   7
ATOM      7  C   UNL     1       0.732   9.170  20.701  0.00  0.00    +0.000 A 
ATOM      8  C   UNL     1      -0.067   8.608  21.716  0.00  0.00    +0.000 A 
ATOM      9  C   UNL     1      -0.675   9.424  22.687  0.00  0.00    +0.000 A 
ATOM     10  C   UNL     1      -0.505  10.804  22.660  0.00  0.00    +0.000 A 
ATOM     11  C   UNL     1       0.263  11.376  21.652  0.00  0.00    +0.000 A 
ATOM     12  C   UNL     1       0.862  10.563  20.681  0.00  0.00    +0.000 A 
ENDBRANCH   2   7
BRANCH   2  14
ATOM     13  C   UNL     1       0.786   9.505  17.530  0.00  0.00    +0.000 C 
ATOM     14  C   UNL     1       1.870   9.088  18.521  0.00  0.00    +0.000 C 
ENDBRANCH   2  14
ENDBRANCH   1   5
BRANCH   1  15
ATOM     15  C   UNL     1       4.553   4.643  18.861  0.00  0.00    +0.000 C 
ATOM     16  O   UNL     1       5.290   3.782  19.348  0.00  0.00    +0.000 OA
ATOM     17  N   UNL     1       4.831   5.184  17.624  0.00  0.00    +0.000 N 
ATOM     18  H   UNL     1       4.443   6.100  17.423  0.00  0.00    +0.000 HD
BRANCH  17  19
ATOM     19  C   UNL     1       6.065   4.782  16.920  0.00  0.00    +0.000 C 
ATOM     20  C   UNL     1       5.773   3.711  15.871  0.00  0.00    +0.000 C 
BRANCH  19  21
ATOM     21  C   UNL     1       6.855   5.925  16.272  0.00  0.00    +0.000 C 
ATOM     22  O   UNL     1       7.641   5.770  15.343  0.00  0.00    +0.000 OA
BRANCH  21  23
ATOM     23  O   UNL     1       6.622   7.119  16.890  0.00  0.00    +0.000 OA
ATOM     24  C   UNL     1       7.668   7.489  17.792  0.00  0.00    +0.000 C 
ENDBRANCH  21  23
ENDBRANCH  19  21
ENDBRANCH  17  19
ENDBRANCH   1  15
BRANCH   1  25
ATOM     25  C   UNL     1       2.118   3.885  19.153  0.00  0.00    +0.000 C 
ATOM     26  C   UNL     1       1.007   3.679  20.204  0.00  0.00    +0.000 C 
ATOM     27  C   UNL     1       1.413   4.204  17.827  0.00  0.00    +0.000 C 
ENDBRANCH   1  25
TORSDOF 8
ENDMDL
MODEL 5
REMARK VINA RESULT:      -6.8      1.713      2.423
REMARK  Name = 
REMARK  13 active torsions:
REMARK  status: ('A' for Active; 'I' for Inactive)
REMARK    1  A    between atoms: C_1  and  C_2
REMARK    2  A    between atoms: C_2  and  N_3
REMARK    3  A    between atoms: N_3  and  C_20
REMARK    4  A    between atoms: N_6  and  C_7
REMARK    5  A    between atoms: C_7  and  C_8
REMARK    6  A    between atoms: C_7  and  C_17
REMARK    7  A    between atoms: N_10  and  C_11
REMARK    8  A    between atoms: C_11  and  C_12
REMARK    9  A    between atoms: C_11  and  C_13
REMARK   10  A    between atoms: C_13  and  O_15
REMARK   11  A    between atoms: O_15  and  C_16
REMARK   12  A    between atoms: C_17  and  C_18
REMARK   13  A    between atoms: C_17  and  C_19
REMARK                            x       y       z     vdW  Elec       q    Type
REMARK                         _______ _______ _______ _____ _____    ______ ____
ROOT
ATOM      1  C   UNL     1       3.243   4.314  18.625  0.00  0.00    +0.000 C 
ENDROOT
BRANCH   1   5
ATOM      2  N   UNL     1       1.783   7.618  19.776  0.00  0.00    +0.000 N 
ATOM      3  C   UNL     1       2.285   6.297  19.860  0.00  0.00    +0.000 C 
ATOM      4  O   UNL     1       2.206   5.605  20.874  0.00  0.00    +0.000 OA
ATOM      5  N   UNL     1       2.841   5.760  18.700  0.00  0.00    +0.000 N 
ATOM      6  H   UNL     1       2.608   6.205  17.828  0.00  0.00    +0.000 HD
BRANCH   2   7
ATOM      7  C   UNL     1       1.184   8.219  20.958  0.00  0.00    +0.000 A 
ATOM      8  C   UNL     1       1.955   8.905  21.916  0.00  0.00    +0.000 A 
ATOM      9  C   UNL     1       1.341   9.547  23.008  0.00  0.00    +0.000 A 
ATOM     10  C   UNL     1      -0.041   9.510  23.165  0.00  0.00    +0.000 A 
ATOM     11  C   UNL     1      -0.814   8.818  22.240  0.00  0.00    +0.000 A 
ATOM     12  C   UNL     1      -0.200   8.173  21.158  0.00  0.00    +0.000 A 
ENDBRANCH   2   7
BRANCH   2  14
ATOM     13  C   UNL     1       1.154   9.141  17.796  0.00  0.00    +0.000 C 
ATOM     14  C   UNL     1       2.214   8.612  18.759  0.00  0.00    +0.000 C 
ENDBRANCH   2  14
ENDBRANCH   1   5
BRANCH   1  15
ATOM     15  C   UNL     1       4.682   4.083  18.075  0.00  0.00    +0.000 C 
ATOM     16  O   UNL     1       5.553   3.566  18.779  0.00  0.00    +0.000 OA
ATOM     17  N   UNL     1       4.899   4.289  16.729  0.00  0.00    +0.000 N 
ATOM     18  H   UNL     1       4.348   5.011  16.278  0.00  0.00    +0.000 HD
BRANCH  17  19
ATOM     19  C   UNL     1       6.217   3.957  16.152  0.00  0.00    +0.000 C 
ATOM     20  C   UNL     1       6.180   4.027  14.627  0.00  0.00    +0.000 C 
BRANCH  19  21
ATOM     21  C   UNL     1       7.391   4.797  16.669  0.00  0.00    +0.000 C 
ATOM     22  O   UNL     1       8.280   4.356  17.391  0.00  0.00    +0.000 OA
BRANCH  21  23
ATOM     23  O   UNL     1       7.296   6.101  16.279  0.00  0.00    +0.000 OA
ATOM     24  C   UNL     1       7.360   7.014  17.376  0.00  0.00    +0.000 C 
ENDBRANCH  21  23
ENDBRANCH  19  21
ENDBRANCH  17  19
ENDBRANCH   1  15
BRANCH   1  25
ATOM     25  C   UNL     1       2.206   3.460  17.812  0.00  0.00    +0.000 C 
ATOM     26  C   UNL     1       1.712   2.182  18.521  0.00  0.00    +0.000 C 
ATOM     27  C   UNL     1       0.954   4.280  17.466  0.00  0.00    +0.000 C 
ENDBRANCH   1  25
TORSDOF 8
ENDMDL
MODEL 6
REMARK VINA RESULT:      -6.8      1.359      1.801
REMARK  Name = 
REMARK  13 active torsions:
REMARK  status: ('A' for Active; 'I' for Inactive)
REMARK    1  A    between atoms: C_1  and  C_2
REMARK    2  A    between atoms: C_2  and  N_3
REMARK    3  A    between atoms: N_3  and  C_20
REMARK    4  A    between atoms: N_6  and  C_7
REMARK    5  A    between atoms: C_7  and  C_8
REMARK    6  A    between atoms: C_7  and  C_17
REMARK    7  A    between atoms: N_10  and  C_11
REMARK    8  A    between atoms: C_11  and  C_12
REMARK    9  A    between atoms: C_11  and  C_13
REMARK   10  A    between atoms: C_13  and  O_15
REMARK   11  A    between atoms: O_15  and  C_16
REMARK   12  A    between atoms: C_17  and  C_18
REMARK   13  A    between atoms: C_17  and  C_19
REMARK                            x       y       z     vdW  Elec       q    Type
REMARK                         _______ _______ _______ _____ _____    ______ ____
ROOT
ATOM      1  C   UNL     1       2.707   5.941  19.838  0.00  0.00    +0.000 C 
ENDROOT
BRANCH   1   5
ATOM      2  N   UNL     1       0.859   9.246  20.028  0.00  0.00    +0.000 N 
ATOM      3  C   UNL     1       1.572   8.105  20.471  0.00  0.00    +0.000 C 
ATOM      4  O   UNL     1       1.705   7.808  21.657  0.00  0.00    +0.000 OA
ATOM      5  N   UNL     1       2.089   7.265  19.487  0.00  0.00    +0.000 N 
ATOM      6  H   UNL     1       1.703   7.346  18.561  0.00  0.00    +0.000 HD
BRANCH   2   7
ATOM      7  C   UNL     1       0.292  10.148  21.018  0.00  0.00    +0.000 A 
ATOM      8  C   UNL     1       0.345  11.548  20.866  0.00  0.00    +0.000 A 
ATOM      9  C   UNL     1      -0.283  12.396  21.797  0.00  0.00    +0.000 A 
ATOM     10  C   UNL     1      -0.964  11.868  22.890  0.00  0.00    +0.000 A 
ATOM     11  C   UNL     1      -1.007  10.490  23.065  0.00  0.00    +0.000 A 
ATOM     12  C   UNL     1      -0.374   9.647  22.141  0.00  0.00    +0.000 A 
ENDBRANCH   2   7
BRANCH   2  14
ATOM     13  C   UNL     1      -0.203   9.914  17.778  0.00  0.00    +0.000 C 
ATOM     14  C   UNL     1       1.023   9.864  18.686  0.00  0.00    +0.000 C 
ENDBRANCH   2  14
ENDBRANCH   1   5
BRANCH   1  15
ATOM     15  C   UNL     1       4.036   5.641  19.083  0.00  0.00    +0.000 C 
ATOM     16  O   UNL     1       4.746   4.684  19.406  0.00  0.00    +0.000 OA
ATOM     17  N   UNL     1       4.298   6.348  17.929  0.00  0.00    +0.000 N 
ATOM     18  H   UNL     1       3.951   7.300  17.883  0.00  0.00    +0.000 HD
BRANCH  17  19
ATOM     19  C   UNL     1       5.484   6.000  17.122  0.00  0.00    +0.000 C 
ATOM     20  C   UNL     1       5.207   6.190  15.633  0.00  0.00    +0.000 C 
BRANCH  19  21
ATOM     21  C   UNL     1       6.774   6.741  17.497  0.00  0.00    +0.000 C 
ATOM     22  O   UNL     1       7.047   7.873  17.112  0.00  0.00    +0.000 OA
BRANCH  21  23
ATOM     23  O   UNL     1       7.602   5.968  18.257  0.00  0.00    +0.000 OA
ATOM     24  C   UNL     1       7.720   4.632  17.764  0.00  0.00    +0.000 C 
ENDBRANCH  21  23
ENDBRANCH  19  21
ENDBRANCH  17  19
ENDBRANCH   1  15
BRANCH   1  25
ATOM     25  C   UNL     1       1.695   4.755  19.651  0.00  0.00    +0.000 C 
ATOM     26  C   UNL     1       1.794   4.019  18.298  0.00  0.00    +0.000 C 
ATOM     27  C   UNL     1       1.873   3.689  20.742  0.00  0.00    +0.000 C 
ENDBRANCH   1  25
TORSDOF 8
ENDMDL
MODEL 7
REMARK VINA RESULT:      -6.7      1.376      2.145
REMARK  Name = 
REMARK  13 active torsions:
REMARK  status: ('A' for Active; 'I' for Inactive)
REMARK    1  A    between atoms: C_1  and  C_2
REMARK    2  A    between atoms: C_2  and  N_3
REMARK    3  A    between atoms: N_3  and  C_20
REMARK    4  A    between atoms: N_6  and  C_7
REMARK    5  A    between atoms: C_7  and  C_8
REMARK    6  A    between atoms: C_7  and  C_17
REMARK    7  A    between atoms: N_10  and  C_11
REMARK    8  A    between atoms: C_11  and  C_12
REMARK    9  A    between atoms: C_11  and  C_13
REMARK   10  A    between atoms: C_13  and  O_15
REMARK   11  A    between atoms: O_15  and  C_16
REMARK   12  A    between atoms: C_17  and  C_18
REMARK   13  A    between atoms: C_17  and  C_19
REMARK                            x       y       z     vdW  Elec       q    Type
REMARK                         _______ _______ _______ _____ _____    ______ ____
ROOT
ATOM      1  C   UNL     1       2.632   5.855  20.037  0.00  0.00    +0.000 C 
ENDROOT
BRANCH   1   5
ATOM      2  N   UNL     1       0.868   9.210  20.121  0.00  0.00    +0.000 N 
ATOM      3  C   UNL     1       1.534   8.057  20.603  0.00  0.00    +0.000 C 
ATOM      4  O   UNL     1       1.618   7.773  21.797  0.00  0.00    +0.000 OA
ATOM      5  N   UNL     1       2.063   7.190  19.648  0.00  0.00    +0.000 N 
ATOM      6  H   UNL     1       1.711   7.268  18.708  0.00  0.00    +0.000 HD
BRANCH   2   7
ATOM      7  C   UNL     1       0.292  10.141  21.079  0.00  0.00    +0.000 A 
ATOM      8  C   UNL     1       0.385  11.536  20.910  0.00  0.00    +0.000 A 
ATOM      9  C   UNL     1      -0.251  12.413  21.807  0.00  0.00    +0.000 A 
ATOM     10  C   UNL     1      -0.981  11.918  22.884  0.00  0.00    +0.000 A 
ATOM     11  C   UNL     1      -1.064  10.544  23.077  0.00  0.00    +0.000 A 
ATOM     12  C   UNL     1      -0.423   9.672  22.186  0.00  0.00    +0.000 A 
ENDBRANCH   2   7
BRANCH   2  14
ATOM     13  C   UNL     1       0.002   9.616  17.729  0.00  0.00    +0.000 C 
ATOM     14  C   UNL     1       1.095   9.805  18.778  0.00  0.00    +0.000 C 
ENDBRANCH   2  14
ENDBRANCH   1   5
BRANCH   1  15
ATOM     15  C   UNL     1       3.900   5.446  19.230  0.00  0.00    +0.000 C 
ATOM     16  O   UNL     1       4.755   4.706  19.725  0.00  0.00    +0.000 OA
ATOM     17  N   UNL     1       3.946   5.771  17.891  0.00  0.00    +0.000 N 
ATOM     18  H   UNL     1       3.479   6.626  17.607  0.00  0.00    +0.000 HD
BRANCH  17  19
ATOM     19  C   UNL     1       5.074   5.289  17.069  0.00  0.00    +0.000 C 
ATOM     20  C   UNL     1       4.667   4.072  16.241  0.00  0.00    +0.000 C 
BRANCH  19  21
ATOM     21  C   UNL     1       5.713   6.337  16.150  0.00  0.00    +0.000 C 
ATOM     22  O   UNL     1       5.101   6.941  15.275  0.00  0.00    +0.000 OA
BRANCH  21  23
ATOM     23  O   UNL     1       7.050   6.472  16.385  0.00  0.00    +0.000 OA
ATOM     24  C   UNL     1       7.332   7.236  17.560  0.00  0.00    +0.000 C 
ENDBRANCH  21  23
ENDBRANCH  19  21
ENDBRANCH  17  19
ENDBRANCH   1  15
BRANCH   1  25
ATOM     25  C   UNL     1       1.553   4.716  19.969  0.00  0.00    +0.000 C 
ATOM     26  C   UNL     1       1.557   3.889  18.666  0.00  0.00    +0.000 C 
ATOM     27  C   UNL     1       1.721   3.716  21.122  0.00  0.00    +0.000 C 
ENDBRANCH   1  25
TORSDOF 8
ENDMDL
MODEL 8
REMARK VINA RESULT:      -6.7      2.446      4.539
REMARK  Name = 
REMARK  13 active torsions:
REMARK  status: ('A' for Active; 'I' for Inactive)
REMARK    1  A    between atoms: C_1  and  C_2
REMARK    2  A    between atoms: C_2  and  N_3
REMARK    3  A    between atoms: N_3  and  C_20
REMARK    4  A    between atoms: N_6  and  C_7
REMARK    5  A    between atoms: C_7  and  C_8
REMARK    6  A    between atoms: C_7  and  C_17
REMARK    7  A    between atoms: N_10  and  C_11
REMARK    8  A    between atoms: C_11  and  C_12
REMARK    9  A    between atoms: C_11  and  C_13
REMARK   10  A    between atoms: C_13  and  O_15
REMARK   11  A    between atoms: O_15  and  C_16
REMARK   12  A    between atoms: C_17  and  C_18
REMARK   13  A    between atoms: C_17  and  C_19
REMARK                            x       y       z     vdW  Elec       q    Type
REMARK                         _______ _______ _______ _____ _____    ______ ____
ROOT
ATOM      1  C   UNL     1       3.891   6.454  17.756  0.00  0.00    +0.000 C 
ENDROOT
BRANCH   1   5
ATOM      2  N   UNL     1       1.564   8.917  19.458  0.00  0.00    +0.000 N 
ATOM      3  C   UNL     1       2.258   8.266  18.409  0.00  0.00    +0.000 C 
ATOM      4  O   UNL     1       2.290   8.687  17.254  0.00  0.00    +0.000 OA
ATOM      5  N   UNL     1       2.979   7.122  18.747  0.00  0.00    +0.000 N 
ATOM      6  H   UNL     1       3.201   6.986  19.719  0.00  0.00    +0.000 HD
BRANCH   2   7
ATOM      7  C   UNL     1       0.804  10.121  19.156  0.00  0.00    +0.000 A 
ATOM      8  C   UNL     1       1.404  11.395  19.140  0.00  0.00    +0.000 A 
ATOM      9  C   UNL     1       0.666  12.532  18.765  0.00  0.00    +0.000 A 
ATOM     10  C   UNL     1      -0.675  12.421  18.410  0.00  0.00    +0.000 A 
ATOM     11  C   UNL     1      -1.288  11.173  18.443  0.00  0.00    +0.000 A 
ATOM     12  C   UNL     1      -0.552  10.043  18.823  0.00  0.00    +0.000 A 
ENDBRANCH   2   7
BRANCH   2  14
ATOM     13  C   UNL     1       1.317   9.045  22.019  0.00  0.00    +0.000 C 
ATOM     14  C   UNL     1       1.151   8.255  20.723  0.00  0.00    +0.000 C 
ENDBRANCH   2  14
ENDBRANCH   1   5
BRANCH   1  15
ATOM     15  C   UNL     1       3.511   4.977  17.439  0.00  0.00    +0.000 C 
ATOM     16  O   UNL     1       4.005   4.390  16.473  0.00  0.00    +0.000 OA
ATOM     17  N   UNL     1       2.766   4.288  18.372  0.00  0.00    +0.000 N 
ATOM     18  H   UNL     1       2.101   4.824  18.919  0.00  0.00    +0.000 HD
BRANCH  17  19
ATOM     19  C   UNL     1       2.497   2.851  18.162  0.00  0.00    +0.000 C 
ATOM     20  C   UNL     1       3.742   2.014  18.446  0.00  0.00    +0.000 C 
BRANCH  19  21
ATOM     21  C   UNL     1       1.313   2.282  18.952  0.00  0.00    +0.000 C 
ATOM     22  O   UNL     1       0.175   2.188  18.503  0.00  0.00    +0.000 OA
BRANCH  21  23
ATOM     23  O   UNL     1       1.664   1.949  20.228  0.00  0.00    +0.000 OA
ATOM     24  C   UNL     1       1.231   2.913  21.191  0.00  0.00    +0.000 C 
ENDBRANCH  21  23
ENDBRANCH  19  21
ENDBRANCH  17  19
ENDBRANCH   1  15
BRANCH   1  25
ATOM     25  C   UNL     1       5.397   6.548  18.192  0.00  0.00    +0.000 C 
ATOM     26  C   UNL     1       5.926   5.331  18.981  0.00  0.00    +0.000 C 
ATOM     27  C   UNL     1       6.322   6.717  16.978  0.00  0.00    +0.000 C 
ENDBRANCH   1  25
TORSDOF 8
ENDMDL
MODEL 9
REMARK VINA RESULT:      -6.6      1.427      2.318
REMARK  Name = 
REMARK  13 active torsions:
REMARK  status: ('A' for Active; 'I' for Inactive)
REMARK    1  A    between atoms: C_1  and  C_2
REMARK    2  A    between atoms: C_2  and  N_3
REMARK    3  A    between atoms: N_3  and  C_20
REMARK    4  A    between atoms: N_6  and  C_7
REMARK    5  A    between atoms: C_7  and  C_8
REMARK    6  A    between atoms: C_7  and  C_17
REMARK    7  A    between atoms: N_10  and  C_11
REMARK    8  A    between atoms: C_11  and  C_12
REMARK    9  A    between atoms: C_11  and  C_13
REMARK   10  A    between atoms: C_13  and  O_15
REMARK   11  A    between atoms: O_15  and  C_16
REMARK   12  A    between atoms: C_17  and  C_18
REMARK   13  A    between atoms: C_17  and  C_19
REMARK                            x       y       z     vdW  Elec       q    Type
REMARK                         _______ _______ _______ _____ _____    ______ ____
ROOT
ATOM      1  C   UNL     1       3.081   4.975  19.627  0.00  0.00    +0.000 C 
ENDROOT
BRANCH   1   5
ATOM      2  N   UNL     1       1.335   8.338  19.743  0.00  0.00    +0.000 N 
ATOM      3  C   UNL     1       1.979   7.169  20.215  0.00  0.00    +0.000 C 
ATOM      4  O   UNL     1       2.025   6.854  21.403  0.00  0.00    +0.000 OA
ATOM      5  N   UNL     1       2.531   6.323  19.255  0.00  0.00    +0.000 N 
ATOM      6  H   UNL     1       2.208   6.427  18.307  0.00  0.00    +0.000 HD
BRANCH   2   7
ATOM      7  C   UNL     1       0.735   9.247  20.706  0.00  0.00    +0.000 A 
ATOM      8  C   UNL     1       0.782  10.645  20.540  0.00  0.00    +0.000 A 
ATOM      9  C   UNL     1       0.124  11.500  21.443  0.00  0.00    +0.000 A 
ATOM     10  C   UNL     1      -0.582  10.980  22.523  0.00  0.00    +0.000 A 
ATOM     11  C   UNL     1      -0.621   9.604  22.714  0.00  0.00    +0.000 A 
ATOM     12  C   UNL     1       0.042   8.754  21.817  0.00  0.00    +0.000 A 
ENDBRANCH   2   7
BRANCH   2  14
ATOM     13  C   UNL     1       2.809   8.454  17.633  0.00  0.00    +0.000 C 
ATOM     14  C   UNL     1       1.606   8.965  18.423  0.00  0.00    +0.000 C 
ENDBRANCH   2  14
ENDBRANCH   1   5
BRANCH   1  15
ATOM     15  C   UNL     1       4.452   4.643  18.965  0.00  0.00    +0.000 C 
ATOM     16  O   UNL     1       5.161   3.732  19.399  0.00  0.00    +0.000 OA
ATOM     17  N   UNL     1       4.759   5.262  17.772  0.00  0.00    +0.000 N 
ATOM     18  H   UNL     1       4.398   6.199  17.632  0.00  0.00    +0.000 HD
BRANCH  17  19
ATOM     19  C   UNL     1       5.991   4.876  17.055  0.00  0.00    +0.000 C 
ATOM     20  C   UNL     1       5.686   3.876  15.942  0.00  0.00    +0.000 C 
BRANCH  19  21
ATOM     21  C   UNL     1       6.809   6.039  16.482  0.00  0.00    +0.000 C 
ATOM     22  O   UNL     1       7.686   5.904  15.634  0.00  0.00    +0.000 OA
BRANCH  21  23
ATOM     23  O   UNL     1       6.486   7.227  17.069  0.00  0.00    +0.000 OA
ATOM     24  C   UNL     1       7.630   7.938  17.548  0.00  0.00    +0.000 C 
ENDBRANCH  21  23
ENDBRANCH  19  21
ENDBRANCH  17  19
ENDBRANCH   1  15
BRANCH   1  25
ATOM     25  C   UNL     1       2.050   3.824  19.347  0.00  0.00    +0.000 C 
ATOM     26  C   UNL     1       0.921   3.689  20.391  0.00  0.00    +0.000 C 
ATOM     27  C   UNL     1       1.366   4.005  17.984  0.00  0.00    +0.000 C 
ENDBRANCH   1  25
TORSDOF 8
ENDMDL
