MODEL 1
REMARK VINA RESULT:      -8.0      0.000      0.000
REMARK  Name = 
REMARK  3 active torsions:
REMARK  status: ('A' for Active; 'I' for Inactive)
REMARK    1  A    between atoms: C_1  and  C_2
REMARK    2  A    between atoms: C_4  and  O_5
REMARK    3  A    between atoms: C_8  and  C_9
REMARK                            x       y       z     vdW  Elec       q    Type
REMARK                         _______ _______ _______ _____ _____    ______ ____
ROOT
ATOM      1  C   UNL     1       2.579   6.149  17.981  0.00  0.00    +0.000 C 
ATOM      2  C   UNL     1       2.618   4.652  18.122  0.00  0.00    +0.000 A 
ATOM      3  C   UNL     1       1.407   3.944  18.231  0.00  0.00    +0.000 A 
ATOM      4  C   UNL     1       1.415   2.558  18.363  0.00  0.00    +0.000 A 
ATOM      5  C   UNL     1       2.610   1.852  18.391  0.00  0.00    +0.000 A 
ATOM      6  C   UNL     1       3.818   2.541  18.292  0.00  0.00    +0.000 A 
ATOM      7  C   UNL     1       3.836   3.939  18.159  0.00  0.00    +0.000 A 
ENDROOT
BRANCH   7   8
ATOM      8  C   UNL     1       5.144   4.615  18.086  0.00  0.00    +0.000 A 
ATOM      9  C   UNL     1       5.735   5.022  19.231  0.00  0.00    +0.000 A 
ATOM     10  C   UNL     1       7.026   5.691  19.173  0.00  0.00    +0.000 A 
ATOM     11  C   UNL     1       7.654   5.909  18.002  0.00  0.00    +0.000 A 
ATOM     12  C   UNL     1       7.054   5.478  16.787  0.00  0.00    +0.000 A 
ATOM     13  N   UNL     1       7.470   5.566  15.541  0.00  0.00    +0.000 NA
ATOM     14  C   UNL     1       6.489   4.976  14.789  0.00  0.00    +0.000 A 
ATOM     15  C   UNL     1       5.458   4.528  15.581  0.00  0.00    +0.000 A 
ATOM     16  N   UNL     1       5.815   4.845  16.872  0.00  0.00    +0.000 N 
ENDBRANCH   7   8
BRANCH   4  17
ATOM     17  O   UNL     1       0.257   1.848  18.471  0.00  0.00    +0.000 OA
ATOM     18  H   UNL     1       0.412   0.945  18.152  0.00  0.00    +0.000 HD
ENDBRANCH   4  17
TORSDOF 2
ENDMDL
MODEL 2
REMARK VINA RESULT:      -7.4      0.928      2.238
REMARK  Name = 
REMARK  3 active torsions:
REMARK  status: ('A' for Active; 'I' for Inactive)
REMARK    1  A    between atoms: C_1  and  C_2
REMARK    2  A    between atoms: C_4  and  O_5
REMARK    3  A    between atoms: C_8  and  C_9
REMARK                            x       y       z     vdW  Elec       q    Type
REMARK                         _______ _______ _______ _____ _____    ______ ____
ROOT
ATOM      1  C   UNL     1       2.742   6.281  17.898  0.00  0.00    +0.000 C 
ATOM      2  C   UNL     1       2.562   4.798  18.082  0.00  0.00    +0.000 A 
ATOM      3  C   UNL     1       1.400   4.323  18.714  0.00  0.00    +0.000 A 
ATOM      4  C   UNL     1       1.209   2.956  18.896  0.00  0.00    +0.000 A 
ATOM      5  C   UNL     1       2.157   2.041  18.460  0.00  0.00    +0.000 A 
ATOM      6  C   UNL     1       3.318   2.497  17.838  0.00  0.00    +0.000 A 
ATOM      7  C   UNL     1       3.533   3.872  17.644  0.00  0.00    +0.000 A 
ENDROOT
BRANCH   7   8
ATOM      8  C   UNL     1       4.792   4.296  17.005  0.00  0.00    +0.000 A 
ATOM      9  C   UNL     1       4.921   4.173  15.666  0.00  0.00    +0.000 A 
ATOM     10  C   UNL     1       6.159   4.587  15.023  0.00  0.00    +0.000 A 
ATOM     11  C   UNL     1       7.183   5.099  15.731  0.00  0.00    +0.000 A 
ATOM     12  C   UNL     1       7.064   5.246  17.141  0.00  0.00    +0.000 A 
ATOM     13  N   UNL     1       7.907   5.722  18.032  0.00  0.00    +0.000 NA
ATOM     14  C   UNL     1       7.256   5.628  19.234  0.00  0.00    +0.000 A 
ATOM     15  C   UNL     1       6.003   5.084  19.077  0.00  0.00    +0.000 A 
ATOM     16  N   UNL     1       5.868   4.837  17.730  0.00  0.00    +0.000 N 
ENDBRANCH   7   8
BRANCH   4  17
ATOM     17  O   UNL     1       0.092   2.470  19.507  0.00  0.00    +0.000 OA
ATOM     18  H   UNL     1      -0.374   3.204  19.938  0.00  0.00    +0.000 HD
ENDBRANCH   4  17
TORSDOF 2
ENDMDL
MODEL 3
REMARK VINA RESULT:      -7.4      0.684      1.720
REMARK  Name = 
REMARK  3 active torsions:
REMARK  status: ('A' for Active; 'I' for Inactive)
REMARK    1  A    between atoms: C_1  and  C_2
REMARK    2  A    between atoms: C_4  and  O_5
REMARK    3  A    between atoms: C_8  and  C_9
REMARK                            x       y       z     vdW  Elec       q    Type
REMARK                         _______ _______ _______ _____ _____    ______ ____
ROOT
ATOM      1  C   UNL     1       4.700   1.969  19.809  0.00  0.00    +0.000 C 
ATOM      2  C   UNL     1       3.574   2.689  19.117  0.00  0.00    +0.000 A 
ATOM      3  C   UNL     1       2.278   2.147  19.173  0.00  0.00    +0.000 A 
ATOM      4  C   UNL     1       1.219   2.794  18.541  0.00  0.00    +0.000 A 
ATOM      5  C   UNL     1       1.421   3.978  17.847  0.00  0.00    +0.000 A 
ATOM      6  C   UNL     1       2.701   4.524  17.776  0.00  0.00    +0.000 A 
ATOM      7  C   UNL     1       3.786   3.890  18.404  0.00  0.00    +0.000 A 
ENDROOT
BRANCH   7   8
ATOM      8  C   UNL     1       5.121   4.499  18.271  0.00  0.00    +0.000 A 
ATOM      9  C   UNL     1       5.677   5.101  19.346  0.00  0.00    +0.000 A 
ATOM     10  C   UNL     1       6.995   5.707  19.227  0.00  0.00    +0.000 A 
ATOM     11  C   UNL     1       7.681   5.678  18.070  0.00  0.00    +0.000 A 
ATOM     12  C   UNL     1       7.119   5.040  16.929  0.00  0.00    +0.000 A 
ATOM     13  N   UNL     1       7.593   4.875  15.712  0.00  0.00    +0.000 NA
ATOM     14  C   UNL     1       6.623   4.181  15.037  0.00  0.00    +0.000 A 
ATOM     15  C   UNL     1       5.542   3.924  15.847  0.00  0.00    +0.000 A 
ATOM     16  N   UNL     1       5.854   4.472  17.071  0.00  0.00    +0.000 N 
ENDBRANCH   7   8
BRANCH   4  17
ATOM     17  O   UNL     1      -0.046   2.289  18.580  0.00  0.00    +0.000 OA
ATOM     18  H   UNL     1      -0.506   2.534  17.762  0.00  0.00    +0.000 HD
ENDBRANCH   4  17
TORSDOF 2
ENDMDL
MODEL 4
REMARK VINA RESULT:      -7.3      3.061      5.339
REMARK  Name = 
REMARK  3 active torsions:
REMARK  status: ('A' for Active; 'I' for Inactive)
REMARK    1  A    between atoms: C_1  and  C_2
REMARK    2  A    between atoms: C_4  and  O_5
REMARK    3  A    between atoms: C_8  and  C_9
REMARK                            x       y       z     vdW  Elec       q    Type
REMARK                         _______ _______ _______ _____ _____    ______ ____
ROOT
ATOM      1  C   UNL     1       6.868   5.379  19.427  0.00  0.00    +0.000 C 
ATOM      2  C   UNL     1       6.401   5.031  18.040  0.00  0.00    +0.000 A 
ATOM      3  C   UNL     1       7.241   5.304  16.946  0.00  0.00    +0.000 A 
ATOM      4  C   UNL     1       6.833   4.991  15.653  0.00  0.00    +0.000 A 
ATOM      5  C   UNL     1       5.596   4.407  15.419  0.00  0.00    +0.000 A 
ATOM      6  C   UNL     1       4.749   4.137  16.492  0.00  0.00    +0.000 A 
ATOM      7  C   UNL     1       5.138   4.445  17.806  0.00  0.00    +0.000 A 
ENDROOT
BRANCH   7   8
ATOM      8  C   UNL     1       4.189   4.161  18.898  0.00  0.00    +0.000 A 
ATOM      9  C   UNL     1       4.172   2.927  19.447  0.00  0.00    +0.000 A 
ATOM     10  C   UNL     1       3.239   2.634  20.525  0.00  0.00    +0.000 A 
ATOM     11  C   UNL     1       2.392   3.568  20.996  0.00  0.00    +0.000 A 
ATOM     12  C   UNL     1       2.401   4.877  20.439  0.00  0.00    +0.000 A 
ATOM     13  N   UNL     1       1.689   5.944  20.733  0.00  0.00    +0.000 NA
ATOM     14  C   UNL     1       2.130   6.920  19.878  0.00  0.00    +0.000 A 
ATOM     15  C   UNL     1       3.118   6.444  19.049  0.00  0.00    +0.000 A 
ATOM     16  N   UNL     1       3.302   5.127  19.404  0.00  0.00    +0.000 N 
ENDBRANCH   7   8
BRANCH   4  17
ATOM     17  O   UNL     1       7.628   5.247  14.576  0.00  0.00    +0.000 OA
ATOM     18  H   UNL     1       8.365   4.616  14.574  0.00  0.00    +0.000 HD
ENDBRANCH   4  17
TORSDOF 2
ENDMDL
MODEL 5
REMARK VINA RESULT:      -7.0      1.406      1.418
REMARK  Name = 
REMARK  3 active torsions:
REMARK  status: ('A' for Active; 'I' for Inactive)
REMARK    1  A    between atoms: C_1  and  C_2
REMARK    2  A    between atoms: C_4  and  O_5
REMARK    3  A    between atoms: C_8  and  C_9
REMARK                            x       y       z     vdW  Elec       q    Type
REMARK                         _______ _______ _______ _____ _____    ______ ____
ROOT
ATOM      1  C   UNL     1       2.877   6.712  18.975  0.00  0.00    +0.000 C 
ATOM      2  C   UNL     1       2.925   5.276  19.422  0.00  0.00    +0.000 A 
ATOM      3  C   UNL     1       1.798   4.717  20.051  0.00  0.00    +0.000 A 
ATOM      4  C   UNL     1       1.817   3.391  20.473  0.00  0.00    +0.000 A 
ATOM      5  C   UNL     1       2.941   2.600  20.285  0.00  0.00    +0.000 A 
ATOM      6  C   UNL     1       4.068   3.142  19.670  0.00  0.00    +0.000 A 
ATOM      7  C   UNL     1       4.074   4.478  19.235  0.00  0.00    +0.000 A 
ENDROOT
BRANCH   7   8
ATOM      8  C   UNL     1       5.304   5.003  18.616  0.00  0.00    +0.000 A 
ATOM      9  C   UNL     1       6.279   5.495  19.412  0.00  0.00    +0.000 A 
ATOM     10  C   UNL     1       7.498   6.018  18.814  0.00  0.00    +0.000 A 
ATOM     11  C   UNL     1       7.684   6.018  17.481  0.00  0.00    +0.000 A 
ATOM     12  C   UNL     1       6.675   5.494  16.626  0.00  0.00    +0.000 A 
ATOM     13  N   UNL     1       6.630   5.377  15.315  0.00  0.00    +0.000 NA
ATOM     14  C   UNL     1       5.419   4.795  15.045  0.00  0.00    +0.000 A 
ATOM     15  C   UNL     1       4.713   4.560  16.201  0.00  0.00    +0.000 A 
ATOM     16  N   UNL     1       5.516   5.005  17.226  0.00  0.00    +0.000 N 
ENDBRANCH   7   8
BRANCH   4  17
ATOM     17  O   UNL     1       0.739   2.826  21.086  0.00  0.00    +0.000 OA
ATOM     18  H   UNL     1       0.729   1.876  20.889  0.00  0.00    +0.000 HD
ENDBRANCH   4  17
TORSDOF 2
ENDMDL
MODEL 6
REMARK VINA RESULT:      -7.0      3.084      5.409
REMARK  Name = 
REMARK  3 active torsions:
REMARK  status: ('A' for Active; 'I' for Inactive)
REMARK    1  A    between atoms: C_1  and  C_2
REMARK    2  A    between atoms: C_4  and  O_5
REMARK    3  A    between atoms: C_8  and  C_9
REMARK                            x       y       z     vdW  Elec       q    Type
REMARK                         _______ _______ _______ _____ _____    ______ ____
ROOT
ATOM      1  C   UNL     1       6.852   5.526  19.401  0.00  0.00    +0.000 C 
ATOM      2  C   UNL     1       6.367   5.366  17.986  0.00  0.00    +0.000 A 
ATOM      3  C   UNL     1       7.302   5.391  16.935  0.00  0.00    +0.000 A 
ATOM      4  C   UNL     1       6.880   5.245  15.617  0.00  0.00    +0.000 A 
ATOM      5  C   UNL     1       5.537   5.073  15.315  0.00  0.00    +0.000 A 
ATOM      6  C   UNL     1       4.597   5.054  16.344  0.00  0.00    +0.000 A 
ATOM      7  C   UNL     1       4.999   5.201  17.683  0.00  0.00    +0.000 A 
ENDROOT
BRANCH   7   8
ATOM      8  C   UNL     1       3.957   5.200  18.726  0.00  0.00    +0.000 A 
ATOM      9  C   UNL     1       3.198   6.305  18.894  0.00  0.00    +0.000 A 
ATOM     10  C   UNL     1       2.167   6.317  19.921  0.00  0.00    +0.000 A 
ATOM     11  C   UNL     1       1.944   5.248  20.708  0.00  0.00    +0.000 A 
ATOM     12  C   UNL     1       2.725   4.071  20.540  0.00  0.00    +0.000 A 
ATOM     13  N   UNL     1       2.689   2.914  21.168  0.00  0.00    +0.000 NA
ATOM     14  C   UNL     1       3.665   2.153  20.581  0.00  0.00    +0.000 A 
ATOM     15  C   UNL     1       4.310   2.852  19.588  0.00  0.00    +0.000 A 
ATOM     16  N   UNL     1       3.709   4.089  19.551  0.00  0.00    +0.000 N 
ENDBRANCH   7   8
BRANCH   4  17
ATOM     17  O   UNL     1       7.765   5.266  14.581  0.00  0.00    +0.000 OA
ATOM     18  H   UNL     1       7.276   5.401  13.754  0.00  0.00    +0.000 HD
ENDBRANCH   4  17
TORSDOF 2
ENDMDL
MODEL 7
REMARK VINA RESULT:      -6.8      1.080      2.844
REMARK  Name = 
REMARK  3 active torsions:
REMARK  status: ('A' for Active; 'I' for Inactive)
REMARK    1  A    between atoms: C_1  and  C_2
REMARK    2  A    between atoms: C_4  and  O_5
REMARK    3  A    between atoms: C_8  and  C_9
REMARK                            x       y       z     vdW  Elec       q    Type
REMARK                         _______ _______ _______ _____ _____    ______ ____
ROOT
ATOM      1  C   UNL     1       4.230   1.241  18.101  0.00  0.00    +0.000 C 
ATOM      2  C   UNL     1       3.233   2.353  18.279  0.00  0.00    +0.000 A 
ATOM      3  C   UNL     1       2.001   2.075  18.898  0.00  0.00    +0.000 A 
ATOM      4  C   UNL     1       1.061   3.086  19.075  0.00  0.00    +0.000 A 
ATOM      5  C   UNL     1       1.319   4.380  18.648  0.00  0.00    +0.000 A 
ATOM      6  C   UNL     1       2.532   4.671  18.026  0.00  0.00    +0.000 A 
ATOM      7  C   UNL     1       3.496   3.667  17.835  0.00  0.00    +0.000 A 
ENDROOT
BRANCH   7   8
ATOM      8  C   UNL     1       4.749   4.027  17.147  0.00  0.00    +0.000 A 
ATOM      9  C   UNL     1       4.872   3.760  15.828  0.00  0.00    +0.000 A 
ATOM     10  C   UNL     1       6.104   4.110  15.137  0.00  0.00    +0.000 A 
ATOM     11  C   UNL     1       7.128   4.703  15.780  0.00  0.00    +0.000 A 
ATOM     12  C   UNL     1       7.014   5.003  17.166  0.00  0.00    +0.000 A 
ATOM     13  N   UNL     1       7.858   5.579  17.996  0.00  0.00    +0.000 NA
ATOM     14  C   UNL     1       7.212   5.612  19.204  0.00  0.00    +0.000 A 
ATOM     15  C   UNL     1       5.963   5.046  19.114  0.00  0.00    +0.000 A 
ATOM     16  N   UNL     1       5.824   4.652  17.803  0.00  0.00    +0.000 N 
ENDBRANCH   7   8
BRANCH   4  17
ATOM     17  O   UNL     1      -0.141   2.842  19.671  0.00  0.00    +0.000 OA
ATOM     18  H   UNL     1      -0.015   2.181  20.371  0.00  0.00    +0.000 HD
ENDBRANCH   4  17
TORSDOF 2
ENDMDL
MODEL 8
REMARK VINA RESULT:      -6.8      3.233      5.332
REMARK  Name = 
REMARK  3 active torsions:
REMARK  status: ('A' for Active; 'I' for Inactive)
REMARK    1  A    between atoms: C_1  and  C_2
REMARK    2  A    between atoms: C_4  and  O_5
REMARK    3  A    between atoms: C_8  and  C_9
REMARK                            x       y       z     vdW  Elec       q    Type
REMARK                         _______ _______ _______ _____ _____    ______ ____
ROOT
ATOM      1  C   UNL     1       3.173   3.558  16.549  0.00  0.00    +0.000 C 
ATOM      2  C   UNL     1       4.553   3.989  16.966  0.00  0.00    +0.000 A 
ATOM      3  C   UNL     1       5.551   4.133  15.985  0.00  0.00    +0.000 A 
ATOM      4  C   UNL     1       6.835   4.531  16.345  0.00  0.00    +0.000 A 
ATOM      5  C   UNL     1       7.155   4.790  17.669  0.00  0.00    +0.000 A 
ATOM      6  C   UNL     1       6.179   4.644  18.654  0.00  0.00    +0.000 A 
ATOM      7  C   UNL     1       4.876   4.243  18.316  0.00  0.00    +0.000 A 
ENDROOT
BRANCH   7   8
ATOM      8  C   UNL     1       3.894   4.080  19.403  0.00  0.00    +0.000 A 
ATOM      9  C   UNL     1       3.817   2.892  20.042  0.00  0.00    +0.000 A 
ATOM     10  C   UNL     1       2.851   2.717  21.117  0.00  0.00    +0.000 A 
ATOM     11  C   UNL     1       2.033   3.716  21.498  0.00  0.00    +0.000 A 
ATOM     12  C   UNL     1       2.106   4.978  20.846  0.00  0.00    +0.000 A 
ATOM     13  N   UNL     1       1.433   6.091  21.043  0.00  0.00    +0.000 NA
ATOM     14  C   UNL     1       1.930   6.983  20.129  0.00  0.00    +0.000 A 
ATOM     15  C   UNL     1       2.914   6.407  19.361  0.00  0.00    +0.000 A 
ATOM     16  N   UNL     1       3.038   5.115  19.817  0.00  0.00    +0.000 N 
ENDBRANCH   7   8
BRANCH   4  17
ATOM     17  O   UNL     1       7.820   4.677  15.414  0.00  0.00    +0.000 OA
ATOM     18  H   UNL     1       7.767   3.941  14.784  0.00  0.00    +0.000 HD
ENDBRANCH   4  17
TORSDOF 2
ENDMDL
MODEL 9
REMARK VINA RESULT:      -6.6      3.205      5.355
REMARK  Name = 
REMARK  3 active torsions:
REMARK  status: ('A' for Active; 'I' for Inactive)
REMARK    1  A    between atoms: C_1  and  C_2
REMARK    2  A    between atoms: C_4  and  O_5
REMARK    3  A    between atoms: C_8  and  C_9
REMARK                            x       y       z     vdW  Elec       q    Type
REMARK                         _______ _______ _______ _____ _____    ______ ____
ROOT
ATOM      1  C   UNL     1       3.105   7.368  17.365  0.00  0.00    +0.000 C 
ATOM      2  C   UNL     1       4.436   6.744  17.686  0.00  0.00    +0.000 A 
ATOM      3  C   UNL     1       5.597   7.261  17.084  0.00  0.00    +0.000 A 
ATOM      4  C   UNL     1       6.840   6.702  17.365  0.00  0.00    +0.000 A 
ATOM      5  C   UNL     1       6.958   5.631  18.239  0.00  0.00    +0.000 A 
ATOM      6  C   UNL     1       5.816   5.103  18.838  0.00  0.00    +0.000 A 
ATOM      7  C   UNL     1       4.550   5.649  18.569  0.00  0.00    +0.000 A 
ENDROOT
BRANCH   7   8
ATOM      8  C   UNL     1       3.375   5.031  19.211  0.00  0.00    +0.000 A 
ATOM      9  C   UNL     1       2.790   5.662  20.253  0.00  0.00    +0.000 A 
ATOM     10  C   UNL     1       1.631   5.062  20.896  0.00  0.00    +0.000 A 
ATOM     11  C   UNL     1       1.118   3.892  20.472  0.00  0.00    +0.000 A 
ATOM     12  C   UNL     1       1.711   3.217  19.369  0.00  0.00    +0.000 A 
ATOM     13  N   UNL     1       1.390   2.087  18.775  0.00  0.00    +0.000 NA
ATOM     14  C   UNL     1       2.306   1.935  17.767  0.00  0.00    +0.000 A 
ATOM     15  C   UNL     1       3.201   2.979  17.749  0.00  0.00    +0.000 A 
ATOM     16  N   UNL     1       2.824   3.813  18.776  0.00  0.00    +0.000 N 
ENDBRANCH   7   8
BRANCH   4  17
ATOM     17  O   UNL     1       7.980   7.183  16.794  0.00  0.00    +0.000 OA
ATOM     18  H   UNL     1       8.382   7.831  17.394  0.00  0.00    +0.000 HD
ENDBRANCH   4  17
TORSDOF 2
ENDMDL
