MODEL 1
REMARK VINA RESULT:      -7.2      0.000      0.000
REMARK  Name = 
REMARK  8 active torsions:
REMARK  status: ('A' for Active; 'I' for Inactive)
REMARK    1  A    between atoms: C_1  and  C_2
REMARK    2  A    between atoms: C_2  and  C_3
REMARK    3  A    between atoms: C_3  and  N_4
REMARK    4  A    between atoms: C_7  and  C_8
REMARK    5  A    between atoms: N_10  and  C_11
REMARK    6  A    between atoms: N_10  and  C_17
REMARK    7  A    between atoms: C_11  and  C_12
REMARK    8  A    between atoms: C_17  and  C_18
REMARK                            x       y       z     vdW  Elec       q    Type
REMARK                         _______ _______ _______ _____ _____    ______ ____
ROOT
ATOM      1  C   UNL     1       4.795   5.942  18.745  0.00  0.00    +0.000 C 
ATOM      2  O   UNL     1       5.573   5.111  19.228  0.00  0.00    +0.000 OA
ATOM      3  N   UNL     1       3.477   6.038  19.198  0.00  0.00    +0.000 N 
ENDROOT
BRANCH   1   7
ATOM      4  N   UNL     1       6.561   5.607  15.328  0.00  0.00    +0.000 NA
ATOM      5  C   UNL     1       5.109   5.506  15.545  0.00  0.00    +0.000 C 
ATOM      6  C   UNL     1       4.574   6.694  16.336  0.00  0.00    +0.000 C 
ATOM      7  C   UNL     1       5.294   6.917  17.660  0.00  0.00    +0.000 C 
ATOM      8  C   UNL     1       6.815   6.835  17.486  0.00  0.00    +0.000 C 
ATOM      9  C   UNL     1       7.264   5.648  16.624  0.00  0.00    +0.000 C 
BRANCH   4  10
ATOM     10  C   UNL     1       7.059   4.464  14.532  0.00  0.00    +0.000 C 
BRANCH  10  12
ATOM     11  C   UNL     1       6.443   3.564  12.249  0.00  0.00    +0.000 C 
ATOM     12  C   UNL     1       5.972   3.798  13.674  0.00  0.00    +0.000 C 
ENDBRANCH  10  12
ENDBRANCH   4  10
ENDBRANCH   1   7
BRANCH   3  13
ATOM     13  C   UNL     1       3.037   5.037  20.187  0.00  0.00    +0.000 C 
BRANCH  13  14
ATOM     14  C   UNL     1       2.280   3.910  19.582  0.00  0.00    +0.000 A 
ATOM     15  C   UNL     1       1.015   3.394  19.791  0.00  0.00    +0.000 A 
ATOM     16  C   UNL     1       0.812   2.405  18.797  0.00  0.00    +0.000 A 
ATOM     17  C   UNL     1       1.959   2.381  18.041  0.00  0.00    +0.000 A 
ATOM     18  O   UNL     1       2.858   3.285  18.511  0.00  0.00    +0.000 OA
ENDBRANCH  13  14
ENDBRANCH   3  13
BRANCH   3  19
ATOM     19  C   UNL     1       2.465   6.894  18.556  0.00  0.00    +0.000 C 
BRANCH  19  20
ATOM     20  C   UNL     1       2.436   8.386  18.919  0.00  0.00    +0.000 C 
ATOM     21  C   UNL     1       1.985   9.283  17.765  0.00  0.00    +0.000 C 
ATOM     22  C   UNL     1       0.530   9.547  18.064  0.00  0.00    +0.000 C 
ATOM     23  C   UNL     1       0.523   9.565  19.572  0.00  0.00    +0.000 C 
ATOM     24  O   UNL     1       1.468   8.568  19.980  0.00  0.00    +0.000 OA
ENDBRANCH  19  20
ENDBRANCH   3  19
TORSDOF 7
ENDMDL
MODEL 2
REMARK VINA RESULT:      -7.0      1.200      1.534
REMARK  Name = 
REMARK  8 active torsions:
REMARK  status: ('A' for Active; 'I' for Inactive)
REMARK    1  A    between atoms: C_1  and  C_2
REMARK    2  A    between atoms: C_2  and  C_3
REMARK    3  A    between atoms: C_3  and  N_4
REMARK    4  A    between atoms: C_7  and  C_8
REMARK    5  A    between atoms: N_10  and  C_11
REMARK    6  A    between atoms: N_10  and  C_17
REMARK    7  A    between atoms: C_11  and  C_12
REMARK    8  A    between atoms: C_17  and  C_18
REMARK                            x       y       z     vdW  Elec       q    Type
REMARK                         _______ _______ _______ _____ _____    ______ ____
ROOT
ATOM      1  C   UNL     1       4.028   4.961  17.871  0.00  0.00    +0.000 C 
ATOM      2  O   UNL     1       4.350   3.773  17.985  0.00  0.00    +0.000 OA
ATOM      3  N   UNL     1       2.697   5.361  18.017  0.00  0.00    +0.000 N 
ENDROOT
BRANCH   1   7
ATOM      4  N   UNL     1       6.802   5.494  15.238  0.00  0.00    +0.000 NA
ATOM      5  C   UNL     1       5.395   5.895  15.080  0.00  0.00    +0.000 C 
ATOM      6  C   UNL     1       4.906   6.715  16.268  0.00  0.00    +0.000 C 
ATOM      7  C   UNL     1       5.113   6.025  17.610  0.00  0.00    +0.000 C 
ATOM      8  C   UNL     1       6.522   5.431  17.718  0.00  0.00    +0.000 C 
ATOM      9  C   UNL     1       6.961   4.677  16.456  0.00  0.00    +0.000 C 
BRANCH   4  10
ATOM     10  C   UNL     1       7.270   4.727  14.065  0.00  0.00    +0.000 C 
BRANCH  10  12
ATOM     11  C   UNL     1       6.573   3.339  12.067  0.00  0.00    +0.000 C 
ATOM     12  C   UNL     1       6.189   3.820  13.457  0.00  0.00    +0.000 C 
ENDBRANCH  10  12
ENDBRANCH   4  10
ENDBRANCH   1   7
BRANCH   3  13
ATOM     13  C   UNL     1       1.697   4.294  18.197  0.00  0.00    +0.000 C 
BRANCH  13  14
ATOM     14  C   UNL     1       1.630   3.783  19.592  0.00  0.00    +0.000 A 
ATOM     15  C   UNL     1       1.109   2.636  20.160  0.00  0.00    +0.000 A 
ATOM     16  C   UNL     1       1.489   2.652  21.526  0.00  0.00    +0.000 A 
ATOM     17  C   UNL     1       2.221   3.801  21.705  0.00  0.00    +0.000 A 
ATOM     18  O   UNL     1       2.308   4.497  20.542  0.00  0.00    +0.000 OA
ENDBRANCH  13  14
ENDBRANCH   3  13
BRANCH   3  19
ATOM     19  C   UNL     1       2.233   6.730  17.737  0.00  0.00    +0.000 C 
BRANCH  19  20
ATOM     20  C   UNL     1       2.616   7.845  18.721  0.00  0.00    +0.000 C 
ATOM     21  C   UNL     1       2.232   9.243  18.234  0.00  0.00    +0.000 C 
ATOM     22  C   UNL     1       0.943   9.534  18.960  0.00  0.00    +0.000 C 
ATOM     23  C   UNL     1       1.159   8.819  20.271  0.00  0.00    +0.000 C 
ATOM     24  O   UNL     1       1.884   7.626  19.950  0.00  0.00    +0.000 OA
ENDBRANCH  19  20
ENDBRANCH   3  19
TORSDOF 7
ENDMDL
MODEL 3
REMARK VINA RESULT:      -6.9      2.641      7.087
REMARK  Name = 
REMARK  8 active torsions:
REMARK  status: ('A' for Active; 'I' for Inactive)
REMARK    1  A    between atoms: C_1  and  C_2
REMARK    2  A    between atoms: C_2  and  C_3
REMARK    3  A    between atoms: C_3  and  N_4
REMARK    4  A    between atoms: C_7  and  C_8
REMARK    5  A    between atoms: N_10  and  C_11
REMARK    6  A    between atoms: N_10  and  C_17
REMARK    7  A    between atoms: C_11  and  C_12
REMARK    8  A    between atoms: C_17  and  C_18
REMARK                            x       y       z     vdW  Elec       q    Type
REMARK                         _______ _______ _______ _____ _____    ______ ____
ROOT
ATOM      1  C   UNL     1       5.114   4.684  18.094  0.00  0.00    +0.000 C 
ATOM      2  O   UNL     1       5.038   4.527  19.318  0.00  0.00    +0.000 OA
ATOM      3  N   UNL     1       6.277   5.189  17.506  0.00  0.00    +0.000 N 
ENDROOT
BRANCH   1   7
ATOM      4  N   UNL     1       1.614   3.155  18.661  0.00  0.00    +0.000 NA
ATOM      5  C   UNL     1       1.939   4.587  18.757  0.00  0.00    +0.000 C 
ATOM      6  C   UNL     1       2.679   5.081  17.520  0.00  0.00    +0.000 C 
ATOM      7  C   UNL     1       3.930   4.274  17.196  0.00  0.00    +0.000 C 
ATOM      8  C   UNL     1       3.656   2.768  17.278  0.00  0.00    +0.000 C 
ATOM      9  C   UNL     1       2.851   2.364  18.520  0.00  0.00    +0.000 C 
BRANCH   4  10
ATOM     10  C   UNL     1       0.869   2.699  19.853  0.00  0.00    +0.000 C 
BRANCH  10  12
ATOM     11  C   UNL     1       2.277   2.628  21.954  0.00  0.00    +0.000 C 
ATOM     12  C   UNL     1       1.274   3.431  21.142  0.00  0.00    +0.000 C 
ENDBRANCH  10  12
ENDBRANCH   4  10
ENDBRANCH   1   7
BRANCH   3  13
ATOM     13  C   UNL     1       7.349   5.626  18.419  0.00  0.00    +0.000 C 
BRANCH  13  14
ATOM     14  C   UNL     1       7.759   7.040  18.207  0.00  0.00    +0.000 A 
ATOM     15  C   UNL     1       7.329   8.035  17.350  0.00  0.00    +0.000 A 
ATOM     16  C   UNL     1       8.011   9.218  17.730  0.00  0.00    +0.000 A 
ATOM     17  C   UNL     1       8.808   8.875  18.795  0.00  0.00    +0.000 A 
ATOM     18  O   UNL     1       8.667   7.556  19.089  0.00  0.00    +0.000 OA
ENDBRANCH  13  14
ENDBRANCH   3  13
BRANCH   3  19
ATOM     19  C   UNL     1       6.370   5.544  16.080  0.00  0.00    +0.000 C 
BRANCH  19  20
ATOM     20  C   UNL     1       7.157   4.612  15.148  0.00  0.00    +0.000 C 
ATOM     21  C   UNL     1       6.269   3.627  14.383  0.00  0.00    +0.000 C 
ATOM     22  C   UNL     1       6.110   4.265  13.027  0.00  0.00    +0.000 C 
ATOM     23  C   UNL     1       7.443   4.951  12.850  0.00  0.00    +0.000 C 
ATOM     24  O   UNL     1       7.812   5.429  14.149  0.00  0.00    +0.000 OA
ENDBRANCH  19  20
ENDBRANCH   3  19
TORSDOF 7
ENDMDL
MODEL 4
REMARK VINA RESULT:      -6.9      1.399      1.868
REMARK  Name = 
REMARK  8 active torsions:
REMARK  status: ('A' for Active; 'I' for Inactive)
REMARK    1  A    between atoms: C_1  and  C_2
REMARK    2  A    between atoms: C_2  and  C_3
REMARK    3  A    between atoms: C_3  and  N_4
REMARK    4  A    between atoms: C_7  and  C_8
REMARK    5  A    between atoms: N_10  and  C_11
REMARK    6  A    between atoms: N_10  and  C_17
REMARK    7  A    between atoms: C_11  and  C_12
REMARK    8  A    between atoms: C_17  and  C_18
REMARK                            x       y       z     vdW  Elec       q    Type
REMARK                         _______ _______ _______ _____ _____    ______ ____
ROOT
ATOM      1  C   UNL     1       3.866   5.293  17.995  0.00  0.00    +0.000 C 
ATOM      2  O   UNL     1       3.834   4.139  17.553  0.00  0.00    +0.000 OA
ATOM      3  N   UNL     1       2.780   5.823  18.696  0.00  0.00    +0.000 N 
ENDROOT
BRANCH   1   7
ATOM      4  N   UNL     1       6.735   5.466  15.417  0.00  0.00    +0.000 NA
ATOM      5  C   UNL     1       5.433   6.137  15.282  0.00  0.00    +0.000 C 
ATOM      6  C   UNL     1       5.088   6.953  16.522  0.00  0.00    +0.000 C 
ATOM      7  C   UNL     1       5.138   6.147  17.814  0.00  0.00    +0.000 C 
ATOM      8  C   UNL     1       6.406   5.289  17.885  0.00  0.00    +0.000 C 
ATOM      9  C   UNL     1       6.715   4.552  16.575  0.00  0.00    +0.000 C 
BRANCH   4  10
ATOM     10  C   UNL     1       7.069   4.705  14.194  0.00  0.00    +0.000 C 
BRANCH  10  12
ATOM     11  C   UNL     1       6.151   3.350  12.265  0.00  0.00    +0.000 C 
ATOM     12  C   UNL     1       5.918   3.822  13.691  0.00  0.00    +0.000 C 
ENDBRANCH  10  12
ENDBRANCH   4  10
ENDBRANCH   1   7
BRANCH   3  13
ATOM     13  C   UNL     1       1.569   4.987  18.779  0.00  0.00    +0.000 C 
BRANCH  13  14
ATOM     14  C   UNL     1       1.548   4.103  19.976  0.00  0.00    +0.000 A 
ATOM     15  C   UNL     1       0.908   2.914  20.266  0.00  0.00    +0.000 A 
ATOM     16  C   UNL     1       1.405   2.484  21.523  0.00  0.00    +0.000 A 
ATOM     17  C   UNL     1       2.319   3.432  21.917  0.00  0.00    +0.000 A 
ATOM     18  O   UNL     1       2.409   4.421  20.989  0.00  0.00    +0.000 OA
ENDBRANCH  13  14
ENDBRANCH   3  13
BRANCH   3  19
ATOM     19  C   UNL     1       2.698   7.235  19.107  0.00  0.00    +0.000 C 
BRANCH  19  20
ATOM     20  C   UNL     1       1.338   7.784  19.560  0.00  0.00    +0.000 C 
ATOM     21  C   UNL     1       1.153   7.771  21.079  0.00  0.00    +0.000 C 
ATOM     22  C   UNL     1       1.462   9.188  21.490  0.00  0.00    +0.000 C 
ATOM     23  C   UNL     1       0.959   9.971  20.302  0.00  0.00    +0.000 C 
ATOM     24  O   UNL     1       1.257   9.171  19.153  0.00  0.00    +0.000 OA
ENDBRANCH  19  20
ENDBRANCH   3  19
TORSDOF 7
ENDMDL
MODEL 5
REMARK VINA RESULT:      -6.9      2.543      7.109
REMARK  Name = 
REMARK  8 active torsions:
REMARK  status: ('A' for Active; 'I' for Inactive)
REMARK    1  A    between atoms: C_1  and  C_2
REMARK    2  A    between atoms: C_2  and  C_3
REMARK    3  A    between atoms: C_3  and  N_4
REMARK    4  A    between atoms: C_7  and  C_8
REMARK    5  A    between atoms: N_10  and  C_11
REMARK    6  A    between atoms: N_10  and  C_17
REMARK    7  A    between atoms: C_11  and  C_12
REMARK    8  A    between atoms: C_17  and  C_18
REMARK                            x       y       z     vdW  Elec       q    Type
REMARK                         _______ _______ _______ _____ _____    ______ ____
ROOT
ATOM      1  C   UNL     1       4.791   4.397  17.598  0.00  0.00    +0.000 C 
ATOM      2  O   UNL     1       4.930   4.343  18.826  0.00  0.00    +0.000 OA
ATOM      3  N   UNL     1       5.902   4.469  16.754  0.00  0.00    +0.000 N 
ENDROOT
BRANCH   1   7
ATOM      4  N   UNL     1       1.235   3.671  18.916  0.00  0.00    +0.000 NA
ATOM      5  C   UNL     1       1.906   4.979  18.965  0.00  0.00    +0.000 C 
ATOM      6  C   UNL     1       2.457   5.381  17.602  0.00  0.00    +0.000 C 
ATOM      7  C   UNL     1       3.378   4.336  16.985  0.00  0.00    +0.000 C 
ATOM      8  C   UNL     1       2.776   2.931  17.097  0.00  0.00    +0.000 C 
ATOM      9  C   UNL     1       2.186   2.631  18.481  0.00  0.00    +0.000 C 
BRANCH   4  10
ATOM     10  C   UNL     1       0.679   3.310  20.238  0.00  0.00    +0.000 C 
BRANCH  10  12
ATOM     11  C   UNL     1       2.385   3.290  22.106  0.00  0.00    +0.000 C 
ATOM     12  C   UNL     1       1.630   2.453  21.087  0.00  0.00    +0.000 C 
ENDBRANCH  10  12
ENDBRANCH   4  10
ENDBRANCH   1   7
BRANCH   3  13
ATOM     13  C   UNL     1       7.222   4.593  17.398  0.00  0.00    +0.000 C 
BRANCH  13  14
ATOM     14  C   UNL     1       7.545   5.984  17.811  0.00  0.00    +0.000 A 
ATOM     15  C   UNL     1       8.152   6.527  18.926  0.00  0.00    +0.000 A 
ATOM     16  C   UNL     1       8.307   7.913  18.668  0.00  0.00    +0.000 A 
ATOM     17  C   UNL     1       7.792   8.128  17.413  0.00  0.00    +0.000 A 
ATOM     18  O   UNL     1       7.322   6.967  16.886  0.00  0.00    +0.000 OA
ENDBRANCH  13  14
ENDBRANCH   3  13
BRANCH   3  19
ATOM     19  C   UNL     1       5.796   4.693  15.302  0.00  0.00    +0.000 C 
BRANCH  19  20
ATOM     20  C   UNL     1       6.920   4.166  14.400  0.00  0.00    +0.000 C 
ATOM     21  C   UNL     1       6.414   3.554  13.092  0.00  0.00    +0.000 C 
ATOM     22  C   UNL     1       6.605   4.657  12.082  0.00  0.00    +0.000 C 
ATOM     23  C   UNL     1       7.848   5.336  12.599  0.00  0.00    +0.000 C 
ATOM     24  O   UNL     1       7.757   5.287  14.027  0.00  0.00    +0.000 OA
ENDBRANCH  19  20
ENDBRANCH   3  19
TORSDOF 7
ENDMDL
MODEL 6
REMARK VINA RESULT:      -6.8      1.569      4.355
REMARK  Name = 
REMARK  8 active torsions:
REMARK  status: ('A' for Active; 'I' for Inactive)
REMARK    1  A    between atoms: C_1  and  C_2
REMARK    2  A    between atoms: C_2  and  C_3
REMARK    3  A    between atoms: C_3  and  N_4
REMARK    4  A    between atoms: C_7  and  C_8
REMARK    5  A    between atoms: N_10  and  C_11
REMARK    6  A    between atoms: N_10  and  C_17
REMARK    7  A    between atoms: C_11  and  C_12
REMARK    8  A    between atoms: C_17  and  C_18
REMARK                            x       y       z     vdW  Elec       q    Type
REMARK                         _______ _______ _______ _____ _____    ______ ____
ROOT
ATOM      1  C   UNL     1       3.977   6.443  18.074  0.00  0.00    +0.000 C 
ATOM      2  O   UNL     1       4.168   7.254  17.159  0.00  0.00    +0.000 OA
ATOM      3  N   UNL     1       2.815   6.496  18.848  0.00  0.00    +0.000 N 
ENDROOT
BRANCH   1   7
ATOM      4  N   UNL     1       6.584   4.538  15.956  0.00  0.00    +0.000 NA
ATOM      5  C   UNL     1       6.804   5.843  16.598  0.00  0.00    +0.000 C 
ATOM      6  C   UNL     1       6.431   5.815  18.075  0.00  0.00    +0.000 C 
ATOM      7  C   UNL     1       5.011   5.329  18.335  0.00  0.00    +0.000 C 
ATOM      8  C   UNL     1       4.697   4.069  17.522  0.00  0.00    +0.000 C 
ATOM      9  C   UNL     1       5.163   4.156  16.063  0.00  0.00    +0.000 C 
BRANCH   4  10
ATOM     10  C   UNL     1       6.981   4.574  14.532  0.00  0.00    +0.000 C 
BRANCH  10  12
ATOM     11  C   UNL     1       6.595   3.578  12.239  0.00  0.00    +0.000 C 
ATOM     12  C   UNL     1       5.988   3.856  13.604  0.00  0.00    +0.000 C 
ENDBRANCH  10  12
ENDBRANCH   4  10
ENDBRANCH   1   7
BRANCH   3  13
ATOM     13  C   UNL     1       1.898   7.622  18.597  0.00  0.00    +0.000 C 
BRANCH  13  14
ATOM     14  C   UNL     1       1.501   8.342  19.837  0.00  0.00    +0.000 A 
ATOM     15  C   UNL     1       1.579   8.033  21.181  0.00  0.00    +0.000 A 
ATOM     16  C   UNL     1       1.172   9.193  21.887  0.00  0.00    +0.000 A 
ATOM     17  C   UNL     1       0.878  10.138  20.933  0.00  0.00    +0.000 A 
ATOM     18  O   UNL     1       1.069   9.631  19.687  0.00  0.00    +0.000 OA
ENDBRANCH  13  14
ENDBRANCH   3  13
BRANCH   3  19
ATOM     19  C   UNL     1       2.607   5.662  20.045  0.00  0.00    +0.000 C 
BRANCH  19  20
ATOM     20  C   UNL     1       1.410   4.702  20.063  0.00  0.00    +0.000 C 
ATOM     21  C   UNL     1       1.388   3.736  18.876  0.00  0.00    +0.000 C 
ATOM     22  C   UNL     1       1.964   2.462  19.440  0.00  0.00    +0.000 C 
ATOM     23  C   UNL     1       1.472   2.505  20.865  0.00  0.00    +0.000 C 
ATOM     24  O   UNL     1       1.513   3.883  21.252  0.00  0.00    +0.000 OA
ENDBRANCH  19  20
ENDBRANCH   3  19
TORSDOF 7
ENDMDL
MODEL 7
REMARK VINA RESULT:      -6.6      2.603      6.941
REMARK  Name = 
REMARK  8 active torsions:
REMARK  status: ('A' for Active; 'I' for Inactive)
REMARK    1  A    between atoms: C_1  and  C_2
REMARK    2  A    between atoms: C_2  and  C_3
REMARK    3  A    between atoms: C_3  and  N_4
REMARK    4  A    between atoms: C_7  and  C_8
REMARK    5  A    between atoms: N_10  and  C_11
REMARK    6  A    between atoms: N_10  and  C_17
REMARK    7  A    between atoms: C_11  and  C_12
REMARK    8  A    between atoms: C_17  and  C_18
REMARK                            x       y       z     vdW  Elec       q    Type
REMARK                         _______ _______ _______ _____ _____    ______ ____
ROOT
ATOM      1  C   UNL     1       3.976   5.044  17.222  0.00  0.00    +0.000 C 
ATOM      2  O   UNL     1       3.701   5.639  18.271  0.00  0.00    +0.000 OA
ATOM      3  N   UNL     1       4.835   5.614  16.279  0.00  0.00    +0.000 N 
ENDROOT
BRANCH   1   7
ATOM      4  N   UNL     1       1.992   2.454  19.288  0.00  0.00    +0.000 NA
ATOM      5  C   UNL     1       1.401   3.580  18.548  0.00  0.00    +0.000 C 
ATOM      6  C   UNL     1       1.883   3.621  17.103  0.00  0.00    +0.000 C 
ATOM      7  C   UNL     1       3.401   3.636  16.968  0.00  0.00    +0.000 C 
ATOM      8  C   UNL     1       4.050   2.590  17.882  0.00  0.00    +0.000 C 
ATOM      9  C   UNL     1       3.462   2.573  19.299  0.00  0.00    +0.000 C 
BRANCH   4  10
ATOM     10  C   UNL     1       1.490   2.410  20.678  0.00  0.00    +0.000 C 
BRANCH  10  12
ATOM     11  C   UNL     1       2.040   4.789  21.340  0.00  0.00    +0.000 C 
ATOM     12  C   UNL     1       2.273   3.318  21.639  0.00  0.00    +0.000 C 
ENDBRANCH  10  12
ENDBRANCH   4  10
ENDBRANCH   1   7
BRANCH   3  13
ATOM     13  C   UNL     1       5.299   6.987  16.544  0.00  0.00    +0.000 C 
BRANCH  13  14
ATOM     14  C   UNL     1       6.554   7.038  17.341  0.00  0.00    +0.000 A 
ATOM     15  C   UNL     1       7.485   8.030  17.584  0.00  0.00    +0.000 A 
ATOM     16  C   UNL     1       8.385   7.512  18.549  0.00  0.00    +0.000 A 
ATOM     17  C   UNL     1       7.945   6.242  18.839  0.00  0.00    +0.000 A 
ATOM     18  O   UNL     1       6.840   5.943  18.109  0.00  0.00    +0.000 OA
ENDBRANCH  13  14
ENDBRANCH   3  13
BRANCH   3  19
ATOM     19  C   UNL     1       5.073   5.027  14.949  0.00  0.00    +0.000 C 
BRANCH  19  20
ATOM     20  C   UNL     1       6.442   4.392  14.667  0.00  0.00    +0.000 C 
ATOM     21  C   UNL     1       6.447   3.481  13.438  0.00  0.00    +0.000 C 
ATOM     22  C   UNL     1       7.024   4.350  12.350  0.00  0.00    +0.000 C 
ATOM     23  C   UNL     1       7.999   5.205  13.121  0.00  0.00    +0.000 C 
ATOM     24  O   UNL     1       7.380   5.459  14.387  0.00  0.00    +0.000 OA
ENDBRANCH  19  20
ENDBRANCH   3  19
TORSDOF 7
ENDMDL
MODEL 8
REMARK VINA RESULT:      -6.6      2.486      6.928
REMARK  Name = 
REMARK  8 active torsions:
REMARK  status: ('A' for Active; 'I' for Inactive)
REMARK    1  A    between atoms: C_1  and  C_2
REMARK    2  A    between atoms: C_2  and  C_3
REMARK    3  A    between atoms: C_3  and  N_4
REMARK    4  A    between atoms: C_7  and  C_8
REMARK    5  A    between atoms: N_10  and  C_11
REMARK    6  A    between atoms: N_10  and  C_17
REMARK    7  A    between atoms: C_11  and  C_12
REMARK    8  A    between atoms: C_17  and  C_18
REMARK                            x       y       z     vdW  Elec       q    Type
REMARK                         _______ _______ _______ _____ _____    ______ ____
ROOT
ATOM      1  C   UNL     1       4.748   4.898  17.834  0.00  0.00    +0.000 C 
ATOM      2  O   UNL     1       4.764   5.526  18.900  0.00  0.00    +0.000 OA
ATOM      3  N   UNL     1       5.924   4.367  17.298  0.00  0.00    +0.000 N 
ENDROOT
BRANCH   1   7
ATOM      4  N   UNL     1       1.394   3.201  18.713  0.00  0.00    +0.000 NA
ATOM      5  C   UNL     1       1.754   4.588  19.046  0.00  0.00    +0.000 C 
ATOM      6  C   UNL     1       2.255   5.348  17.824  0.00  0.00    +0.000 C 
ATOM      7  C   UNL     1       3.409   4.657  17.108  0.00  0.00    +0.000 C 
ATOM      8  C   UNL     1       3.132   3.161  16.922  0.00  0.00    +0.000 C 
ATOM      9  C   UNL     1       2.570   2.487  18.180  0.00  0.00    +0.000 C 
BRANCH   4  10
ATOM     10  C   UNL     1       0.880   2.487  19.902  0.00  0.00    +0.000 C 
BRANCH  10  12
ATOM     11  C   UNL     1       2.519   2.566  21.827  0.00  0.00    +0.000 C 
ATOM     12  C   UNL     1       1.255   3.162  21.230  0.00  0.00    +0.000 C 
ENDBRANCH  10  12
ENDBRANCH   4  10
ENDBRANCH   1   7
BRANCH   3  13
ATOM     13  C   UNL     1       7.180   4.687  17.999  0.00  0.00    +0.000 C 
BRANCH  13  14
ATOM     14  C   UNL     1       7.566   6.119  17.885  0.00  0.00    +0.000 A 
ATOM     15  C   UNL     1       7.296   7.104  16.956  0.00  0.00    +0.000 A 
ATOM     16  C   UNL     1       7.825   8.311  17.481  0.00  0.00    +0.000 A 
ATOM     17  C   UNL     1       8.379   7.988  18.696  0.00  0.00    +0.000 A 
ATOM     18  O   UNL     1       8.233   6.662  18.949  0.00  0.00    +0.000 OA
ENDBRANCH  13  14
ENDBRANCH   3  13
BRANCH   3  19
ATOM     19  C   UNL     1       5.993   3.751  15.961  0.00  0.00    +0.000 C 
BRANCH  19  20
ATOM     20  C   UNL     1       5.828   4.657  14.733  0.00  0.00    +0.000 C 
ATOM     21  C   UNL     1       7.123   4.844  13.939  0.00  0.00    +0.000 C 
ATOM     22  C   UNL     1       6.987   3.870  12.796  0.00  0.00    +0.000 C 
ATOM     23  C   UNL     1       5.500   3.894  12.545  0.00  0.00    +0.000 C 
ATOM     24  O   UNL     1       4.888   4.023  13.834  0.00  0.00    +0.000 OA
ENDBRANCH  19  20
ENDBRANCH   3  19
TORSDOF 7
ENDMDL
MODEL 9
REMARK VINA RESULT:      -6.6      1.286      4.152
REMARK  Name = 
REMARK  8 active torsions:
REMARK  status: ('A' for Active; 'I' for Inactive)
REMARK    1  A    between atoms: C_1  and  C_2
REMARK    2  A    between atoms: C_2  and  C_3
REMARK    3  A    between atoms: C_3  and  N_4
REMARK    4  A    between atoms: C_7  and  C_8
REMARK    5  A    between atoms: N_10  and  C_11
REMARK    6  A    between atoms: N_10  and  C_17
REMARK    7  A    between atoms: C_11  and  C_12
REMARK    8  A    between atoms: C_17  and  C_18
REMARK                            x       y       z     vdW  Elec       q    Type
REMARK                         _______ _______ _______ _____ _____    ______ ____
ROOT
ATOM      1  C   UNL     1       4.385   6.254  17.988  0.00  0.00    +0.000 C 
ATOM      2  O   UNL     1       4.154   7.043  17.063  0.00  0.00    +0.000 OA
ATOM      3  N   UNL     1       3.357   5.807  18.822  0.00  0.00    +0.000 N 
ENDROOT
BRANCH   1   7
ATOM      4  N   UNL     1       7.197   4.916  15.706  0.00  0.00    +0.000 NA
ATOM      5  C   UNL     1       6.946   6.336  15.997  0.00  0.00    +0.000 C 
ATOM      6  C   UNL     1       6.846   6.595  17.495  0.00  0.00    +0.000 C 
ATOM      7  C   UNL     1       5.815   5.719  18.197  0.00  0.00    +0.000 C 
ATOM      8  C   UNL     1       5.939   4.256  17.758  0.00  0.00    +0.000 C 
ATOM      9  C   UNL     1       6.099   4.088  16.242  0.00  0.00    +0.000 C 
BRANCH   4  10
ATOM     10  C   UNL     1       7.323   4.687  14.250  0.00  0.00    +0.000 C 
BRANCH  10  12
ATOM     11  C   UNL     1       6.407   3.443  12.247  0.00  0.00    +0.000 C 
ATOM     12  C   UNL     1       6.105   3.979  13.636  0.00  0.00    +0.000 C 
ENDBRANCH  10  12
ENDBRANCH   4  10
ENDBRANCH   1   7
BRANCH   3  13
ATOM     13  C   UNL     1       2.025   6.404  18.618  0.00  0.00    +0.000 C 
BRANCH  13  14
ATOM     14  C   UNL     1       1.761   7.567  19.506  0.00  0.00    +0.000 A 
ATOM     15  C   UNL     1       1.594   8.919  19.277  0.00  0.00    +0.000 A 
ATOM     16  C   UNL     1       1.220   9.497  20.517  0.00  0.00    +0.000 A 
ATOM     17  C   UNL     1       1.177   8.463  21.422  0.00  0.00    +0.000 A 
ATOM     18  O   UNL     1       1.509   7.291  20.822  0.00  0.00    +0.000 OA
ENDBRANCH  13  14
ENDBRANCH   3  13
BRANCH   3  19
ATOM     19  C   UNL     1       3.595   4.998  20.029  0.00  0.00    +0.000 C 
BRANCH  19  20
ATOM     20  C   UNL     1       3.114   3.540  20.034  0.00  0.00    +0.000 C 
ATOM     21  C   UNL     1       1.939   3.291  20.982  0.00  0.00    +0.000 C 
ATOM     22  C   UNL     1       0.735   3.311  20.074  0.00  0.00    +0.000 C 
ATOM     23  C   UNL     1       1.298   2.727  18.802  0.00  0.00    +0.000 C 
ATOM     24  O   UNL     1       2.639   3.222  18.705  0.00  0.00    +0.000 OA
ENDBRANCH  19  20
ENDBRANCH   3  19
TORSDOF 7
ENDMDL
