MODEL 1
REMARK VINA RESULT:     -10.1      0.000      0.000
REMARK  Name = 
REMARK  10 active torsions:
REMARK  status: ('A' for Active; 'I' for Inactive)
REMARK    1  A    between atoms: C_1  and  O_2
REMARK    2  A    between atoms: O_2  and  C_3
REMARK    3  A    between atoms: N_11  and  C_12
REMARK    4  A    between atoms: C_12  and  C_13
REMARK    5  A    between atoms: C_13  and  C_14
REMARK    6  A    between atoms: C_15  and  C_16
REMARK    7  A    between atoms: C_19  and  C_20
REMARK    8  A    between atoms: C_21  and  C_22
REMARK    9  A    between atoms: N_24  and  C_25
REMARK   10  A    between atoms: C_26  and  C_27
REMARK                            x       y       z     vdW  Elec       q    Type
REMARK                         _______ _______ _______ _____ _____    ______ ____
ROOT
ATOM      1  C   UNL     1       2.791   3.886  19.958  0.00  0.00    +0.000 C 
ATOM      2  N   UNL     1       1.959   3.319  18.922  0.00  0.00    +0.000 N 
ATOM      3  C   UNL     1       0.804   2.775  19.432  0.00  0.00    +0.000 C 
ATOM      4  O   UNL     1      -0.056   2.216  18.782  0.00  0.00    +0.000 OA
ATOM      5  N   UNL     1       0.857   2.850  20.787  0.00  0.00    +0.000 N 
ATOM      6  C   UNL     1       2.092   3.281  21.183  0.00  0.00    +0.000 C 
ATOM      7  O   UNL     1       2.512   3.253  22.334  0.00  0.00    +0.000 OA
ATOM      8  H   UNL     1       2.283   3.016  18.008  0.00  0.00    +0.000 HD
ATOM      9  H   UNL     1       0.231   2.327  21.370  0.00  0.00    +0.000 HD
ENDROOT
BRANCH   1  10
ATOM     10  C   UNL     1       2.409   5.357  19.942  0.00  0.00    +0.000 C 
ATOM     11  C   UNL     1       2.082   6.619  19.930  0.00  0.00    +0.000 C 
BRANCH  11  12
ATOM     12  C   UNL     1       1.748   8.022  19.853  0.00  0.00    +0.000 A 
ATOM     13  C   UNL     1       1.206   8.704  20.938  0.00  0.00    +0.000 A 
ATOM     14  C   UNL     1       0.798  10.036  20.794  0.00  0.00    +0.000 A 
ATOM     15  C   UNL     1       0.936  10.678  19.566  0.00  0.00    +0.000 A 
ATOM     16  N   UNL     1       1.510  10.050  18.512  0.00  0.00    +0.000 NA
ATOM     17  C   UNL     1       1.905   8.756  18.681  0.00  0.00    +0.000 A 
BRANCH  15  18
ATOM     18  C   UNL     1       0.408  12.027  19.352  0.00  0.00    +0.000 A 
ATOM     19  C   UNL     1      -0.916  12.478  19.064  0.00  0.00    +0.000 A 
ATOM     20  C   UNL     1      -2.185  11.716  18.981  0.00  0.00    +0.000 C 
ATOM     21  N   UNL     1      -0.966  13.798  18.858  0.00  0.00    +0.000 NA
ATOM     22  N   UNL     1       0.298  14.211  19.037  0.00  0.00    +0.000 N 
ATOM     23  C   UNL     1       0.595  15.618  18.883  0.00  0.00    +0.000 C 
ATOM     24  C   UNL     1       1.169  13.194  19.343  0.00  0.00    +0.000 A 
ATOM     25  C   UNL     1       2.621  13.413  19.579  0.00  0.00    +0.000 C 
ENDBRANCH  15  18
ENDBRANCH  11  12
ENDBRANCH   1  10
BRANCH   1  26
ATOM     26  C   UNL     1       4.302   3.655  19.859  0.00  0.00    +0.000 C 
BRANCH  26  35
ATOM     27  C   UNL     1       7.289   5.120  14.825  0.00  0.00    +0.000 A 
ATOM     28  C   UNL     1       6.251   4.424  14.169  0.00  0.00    +0.000 A 
ATOM     29  C   UNL     1       5.193   3.808  14.875  0.00  0.00    +0.000 A 
ATOM     30  C   UNL     1       5.196   3.894  16.251  0.00  0.00    +0.000 A 
ATOM     31  C   UNL     1       6.236   4.581  16.853  0.00  0.00    +0.000 A 
ATOM     32  C   UNL     1       7.271   5.206  16.204  0.00  0.00    +0.000 A 
ATOM     33  C   UNL     1       6.069   4.560  18.287  0.00  0.00    +0.000 C 
ATOM     34  O   UNL     1       6.820   5.107  19.047  0.00  0.00    +0.000 OA
ATOM     35  N   UNL     1       4.902   3.846  18.541  0.00  0.00    +0.000 N 
ATOM     36  C   UNL     1       4.256   3.397  17.304  0.00  0.00    +0.000 C 
BRANCH  27  38
ATOM     37  C   UNL     1       8.086   5.516  12.635  0.00  0.00    +0.000 C 
ATOM     38  O   UNL     1       8.259   5.691  14.046  0.00  0.00    +0.000 OA
ENDBRANCH  27  38
ENDBRANCH  26  35
ENDBRANCH   1  26
TORSDOF 6
ENDMDL
MODEL 2
REMARK VINA RESULT:     -10.0      1.783      2.475
REMARK  Name = 
REMARK  10 active torsions:
REMARK  status: ('A' for Active; 'I' for Inactive)
REMARK    1  A    between atoms: C_1  and  O_2
REMARK    2  A    between atoms: O_2  and  C_3
REMARK    3  A    between atoms: N_11  and  C_12
REMARK    4  A    between atoms: C_12  and  C_13
REMARK    5  A    between atoms: C_13  and  C_14
REMARK    6  A    between atoms: C_15  and  C_16
REMARK    7  A    between atoms: C_19  and  C_20
REMARK    8  A    between atoms: C_21  and  C_22
REMARK    9  A    between atoms: N_24  and  C_25
REMARK   10  A    between atoms: C_26  and  C_27
REMARK                            x       y       z     vdW  Elec       q    Type
REMARK                         _______ _______ _______ _____ _____    ______ ____
ROOT
ATOM      1  C   UNL     1       2.701   4.083  20.089  0.00  0.00    +0.000 C 
ATOM      2  N   UNL     1       1.914   3.670  18.950  0.00  0.00    +0.000 N 
ATOM      3  C   UNL     1       0.765   3.018  19.330  0.00  0.00    +0.000 C 
ATOM      4  O   UNL     1      -0.060   2.549  18.571  0.00  0.00    +0.000 OA
ATOM      5  N   UNL     1       0.781   2.872  20.680  0.00  0.00    +0.000 N 
ATOM      6  C   UNL     1       1.991   3.266  21.177  0.00  0.00    +0.000 C 
ATOM      7  O   UNL     1       2.382   3.061  22.321  0.00  0.00    +0.000 OA
ATOM      8  H   UNL     1       2.270   3.531  18.009  0.00  0.00    +0.000 HD
ATOM      9  H   UNL     1       0.158   2.243  21.151  0.00  0.00    +0.000 HD
ENDROOT
BRANCH   1  10
ATOM     10  C   UNL     1       2.271   5.526  20.302  0.00  0.00    +0.000 C 
ATOM     11  C   UNL     1       1.905   6.763  20.484  0.00  0.00    +0.000 C 
BRANCH  11  12
ATOM     12  C   UNL     1       1.434   8.116  20.666  0.00  0.00    +0.000 A 
ATOM     13  C   UNL     1       1.132   8.937  19.584  0.00  0.00    +0.000 A 
ATOM     14  C   UNL     1       0.779  10.275  19.796  0.00  0.00    +0.000 A 
ATOM     15  C   UNL     1       0.729  10.785  21.091  0.00  0.00    +0.000 A 
ATOM     16  N   UNL     1       0.968   9.991  22.162  0.00  0.00    +0.000 NA
ATOM     17  C   UNL     1       1.301   8.690  21.928  0.00  0.00    +0.000 A 
BRANCH  15  18
ATOM     18  C   UNL     1       0.484  12.207  21.338  0.00  0.00    +0.000 A 
ATOM     19  C   UNL     1       1.202  13.367  20.915  0.00  0.00    +0.000 A 
ATOM     20  C   UNL     1       2.374  13.486  20.015  0.00  0.00    +0.000 C 
ATOM     21  N   UNL     1       0.690  14.492  21.426  0.00  0.00    +0.000 NA
ATOM     22  N   UNL     1      -0.364  14.080  22.147  0.00  0.00    +0.000 N 
ATOM     23  C   UNL     1      -1.153  15.070  22.846  0.00  0.00    +0.000 C 
ATOM     24  C   UNL     1      -0.544  12.719  22.128  0.00  0.00    +0.000 A 
ATOM     25  C   UNL     1      -1.643  12.036  22.859  0.00  0.00    +0.000 C 
ENDBRANCH  15  18
ENDBRANCH  11  12
ENDBRANCH   1  10
BRANCH   1  26
ATOM     26  C   UNL     1       4.220   3.914  20.000  0.00  0.00    +0.000 C 
BRANCH  26  35
ATOM     27  C   UNL     1       6.486   4.367  14.426  0.00  0.00    +0.000 A 
ATOM     28  C   UNL     1       7.223   5.446  14.960  0.00  0.00    +0.000 A 
ATOM     29  C   UNL     1       7.096   5.851  16.308  0.00  0.00    +0.000 A 
ATOM     30  C   UNL     1       6.213   5.162  17.112  0.00  0.00    +0.000 A 
ATOM     31  C   UNL     1       5.507   4.114  16.545  0.00  0.00    +0.000 A 
ATOM     32  C   UNL     1       5.613   3.680  15.247  0.00  0.00    +0.000 A 
ATOM     33  C   UNL     1       4.637   3.522  17.533  0.00  0.00    +0.000 C 
ATOM     34  O   UNL     1       3.934   2.576  17.311  0.00  0.00    +0.000 OA
ATOM     35  N   UNL     1       4.833   4.233  18.714  0.00  0.00    +0.000 N 
ATOM     36  C   UNL     1       5.838   5.287  18.555  0.00  0.00    +0.000 C 
BRANCH  27  38
ATOM     37  C   UNL     1       5.636   3.302  12.495  0.00  0.00    +0.000 C 
ATOM     38  O   UNL     1       6.692   4.048  13.111  0.00  0.00    +0.000 OA
ENDBRANCH  27  38
ENDBRANCH  26  35
ENDBRANCH   1  26
TORSDOF 6
ENDMDL
MODEL 3
REMARK VINA RESULT:      -9.9      1.518      2.045
REMARK  Name = 
REMARK  10 active torsions:
REMARK  status: ('A' for Active; 'I' for Inactive)
REMARK    1  A    between atoms: C_1  and  O_2
REMARK    2  A    between atoms: O_2  and  C_3
REMARK    3  A    between atoms: N_11  and  C_12
REMARK    4  A    between atoms: C_12  and  C_13
REMARK    5  A    between atoms: C_13  and  C_14
REMARK    6  A    between atoms: C_15  and  C_16
REMARK    7  A    between atoms: C_19  and  C_20
REMARK    8  A    between atoms: C_21  and  C_22
REMARK    9  A    between atoms: N_24  and  C_25
REMARK   10  A    between atoms: C_26  and  C_27
REMARK                            x       y       z     vdW  Elec       q    Type
REMARK                         _______ _______ _______ _____ _____    ______ ____
ROOT
ATOM      1  C   UNL     1       2.724   4.086  20.085  0.00  0.00    +0.000 C 
ATOM      2  N   UNL     1       1.959   3.608  18.956  0.00  0.00    +0.000 N 
ATOM      3  C   UNL     1       0.828   2.934  19.350  0.00  0.00    +0.000 C 
ATOM      4  O   UNL     1       0.025   2.413  18.603  0.00  0.00    +0.000 OA
ATOM      5  N   UNL     1       0.838   2.836  20.704  0.00  0.00    +0.000 N 
ATOM      6  C   UNL     1       2.031   3.286  21.196  0.00  0.00    +0.000 C 
ATOM      7  O   UNL     1       2.419   3.134  22.349  0.00  0.00    +0.000 OA
ATOM      8  H   UNL     1       2.328   3.447  18.023  0.00  0.00    +0.000 HD
ATOM      9  H   UNL     1       0.231   2.204  21.193  0.00  0.00    +0.000 HD
ENDROOT
BRANCH   1  10
ATOM     10  C   UNL     1       2.248   5.521  20.243  0.00  0.00    +0.000 C 
ATOM     11  C   UNL     1       1.839   6.751  20.378  0.00  0.00    +0.000 C 
BRANCH  11  12
ATOM     12  C   UNL     1       1.404   8.111  20.595  0.00  0.00    +0.000 A 
ATOM     13  C   UNL     1       1.041   8.940  19.537  0.00  0.00    +0.000 A 
ATOM     14  C   UNL     1       0.726  10.283  19.776  0.00  0.00    +0.000 A 
ATOM     15  C   UNL     1       0.775  10.790  21.072  0.00  0.00    +0.000 A 
ATOM     16  N   UNL     1       1.074   9.989  22.123  0.00  0.00    +0.000 NA
ATOM     17  C   UNL     1       1.369   8.683  21.864  0.00  0.00    +0.000 A 
BRANCH  15  18
ATOM     18  C   UNL     1       0.570  12.215  21.337  0.00  0.00    +0.000 A 
ATOM     19  C   UNL     1       1.331  13.358  20.945  0.00  0.00    +0.000 A 
ATOM     20  C   UNL     1       2.522  13.454  20.067  0.00  0.00    +0.000 C 
ATOM     21  N   UNL     1       0.847  14.490  21.465  0.00  0.00    +0.000 NA
ATOM     22  N   UNL     1      -0.231  14.101  22.163  0.00  0.00    +0.000 N 
ATOM     23  C   UNL     1      -1.000  15.105  22.864  0.00  0.00    +0.000 C 
ATOM     24  C   UNL     1      -0.454  12.747  22.119  0.00  0.00    +0.000 A 
ATOM     25  C   UNL     1      -1.587  12.088  22.821  0.00  0.00    +0.000 C 
ENDBRANCH  15  18
ENDBRANCH  11  12
ENDBRANCH   1  10
BRANCH   1  26
ATOM     26  C   UNL     1       4.248   3.962  20.012  0.00  0.00    +0.000 C 
BRANCH  26  35
ATOM     27  C   UNL     1       7.246   5.065  14.892  0.00  0.00    +0.000 A 
ATOM     28  C   UNL     1       6.178   4.375  14.279  0.00  0.00    +0.000 A 
ATOM     29  C   UNL     1       5.105   3.833  15.022  0.00  0.00    +0.000 A 
ATOM     30  C   UNL     1       5.122   3.988  16.391  0.00  0.00    +0.000 A 
ATOM     31  C   UNL     1       6.191   4.667  16.952  0.00  0.00    +0.000 A 
ATOM     32  C   UNL     1       7.242   5.221  16.265  0.00  0.00    +0.000 A 
ATOM     33  C   UNL     1       6.034   4.723  18.386  0.00  0.00    +0.000 C 
ATOM     34  O   UNL     1       6.809   5.280  19.113  0.00  0.00    +0.000 OA
ATOM     35  N   UNL     1       4.844   4.065  18.683  0.00  0.00    +0.000 N 
ATOM     36  C   UNL     1       4.174   3.579  17.474  0.00  0.00    +0.000 C 
BRANCH  27  38
ATOM     37  C   UNL     1       7.978   5.435  12.676  0.00  0.00    +0.000 C 
ATOM     38  O   UNL     1       8.230   5.561  14.081  0.00  0.00    +0.000 OA
ENDBRANCH  27  38
ENDBRANCH  26  35
ENDBRANCH   1  26
TORSDOF 6
ENDMDL
MODEL 4
REMARK VINA RESULT:      -9.9      1.001      1.444
REMARK  Name = 
REMARK  10 active torsions:
REMARK  status: ('A' for Active; 'I' for Inactive)
REMARK    1  A    between atoms: C_1  and  O_2
REMARK    2  A    between atoms: O_2  and  C_3
REMARK    3  A    between atoms: N_11  and  C_12
REMARK    4  A    between atoms: C_12  and  C_13
REMARK    5  A    between atoms: C_13  and  C_14
REMARK    6  A    between atoms: C_15  and  C_16
REMARK    7  A    between atoms: C_19  and  C_20
REMARK    8  A    between atoms: C_21  and  C_22
REMARK    9  A    between atoms: N_24  and  C_25
REMARK   10  A    between atoms: C_26  and  C_27
REMARK                            x       y       z     vdW  Elec       q    Type
REMARK                         _______ _______ _______ _____ _____    ______ ____
ROOT
ATOM      1  C   UNL     1       2.750   3.859  19.980  0.00  0.00    +0.000 C 
ATOM      2  N   UNL     1       1.899   3.350  18.930  0.00  0.00    +0.000 N 
ATOM      3  C   UNL     1       0.739   2.807  19.427  0.00  0.00    +0.000 C 
ATOM      4  O   UNL     1      -0.136   2.290  18.762  0.00  0.00    +0.000 OA
ATOM      5  N   UNL     1       0.805   2.824  20.784  0.00  0.00    +0.000 N 
ATOM      6  C   UNL     1       2.050   3.216  21.185  0.00  0.00    +0.000 C 
ATOM      7  O   UNL     1       2.479   3.132  22.331  0.00  0.00    +0.000 OA
ATOM      8  H   UNL     1       2.210   3.081  18.001  0.00  0.00    +0.000 HD
ATOM      9  H   UNL     1       0.174   2.288  21.350  0.00  0.00    +0.000 HD
ENDROOT
BRANCH   1  10
ATOM     10  C   UNL     1       2.395   5.336  20.029  0.00  0.00    +0.000 C 
ATOM     11  C   UNL     1       2.091   6.603  20.072  0.00  0.00    +0.000 C 
BRANCH  11  12
ATOM     12  C   UNL     1       1.724   8.000  20.057  0.00  0.00    +0.000 A 
ATOM     13  C   UNL     1       1.212   8.633  21.186  0.00  0.00    +0.000 A 
ATOM     14  C   UNL     1       0.769   9.959  21.105  0.00  0.00    +0.000 A 
ATOM     15  C   UNL     1       0.842  10.644  19.895  0.00  0.00    +0.000 A 
ATOM     16  N   UNL     1       1.384  10.065  18.798  0.00  0.00    +0.000 NA
ATOM     17  C   UNL     1       1.815   8.776  18.905  0.00  0.00    +0.000 A 
BRANCH  15  18
ATOM     18  C   UNL     1       0.276  11.987  19.749  0.00  0.00    +0.000 A 
ATOM     19  C   UNL     1      -1.035  12.413  19.376  0.00  0.00    +0.000 A 
ATOM     20  C   UNL     1      -2.256  11.617  19.106  0.00  0.00    +0.000 C 
ATOM     21  N   UNL     1      -1.125  13.744  19.281  0.00  0.00    +0.000 NA
ATOM     22  N   UNL     1       0.097  14.185  19.615  0.00  0.00    +0.000 N 
ATOM     23  C   UNL     1       0.343  15.610  19.613  0.00  0.00    +0.000 C 
ATOM     24  C   UNL     1       0.981  13.177  19.914  0.00  0.00    +0.000 A 
ATOM     25  C   UNL     1       2.393  13.427  20.306  0.00  0.00    +0.000 C 
ENDBRANCH  15  18
ENDBRANCH  11  12
ENDBRANCH   1  10
BRANCH   1  26
ATOM     26  C   UNL     1       4.255   3.606  19.858  0.00  0.00    +0.000 C 
BRANCH  26  35
ATOM     27  C   UNL     1       6.491   4.260  14.291  0.00  0.00    +0.000 A 
ATOM     28  C   UNL     1       7.285   5.271  14.876  0.00  0.00    +0.000 A 
ATOM     29  C   UNL     1       7.191   5.605  16.246  0.00  0.00    +0.000 A 
ATOM     30  C   UNL     1       6.282   4.915  17.021  0.00  0.00    +0.000 A 
ATOM     31  C   UNL     1       5.520   3.936  16.405  0.00  0.00    +0.000 A 
ATOM     32  C   UNL     1       5.593   3.571  15.084  0.00  0.00    +0.000 A 
ATOM     33  C   UNL     1       4.631   3.333  17.368  0.00  0.00    +0.000 C 
ATOM     34  O   UNL     1       3.879   2.437  17.102  0.00  0.00    +0.000 OA
ATOM     35  N   UNL     1       4.872   3.966  18.584  0.00  0.00    +0.000 N 
ATOM     36  C   UNL     1       5.926   4.977  18.473  0.00  0.00    +0.000 C 
BRANCH  27  38
ATOM     37  C   UNL     1       5.585   3.322  12.321  0.00  0.00    +0.000 C 
ATOM     38  O   UNL     1       6.670   4.006  12.959  0.00  0.00    +0.000 OA
ENDBRANCH  27  38
ENDBRANCH  26  35
ENDBRANCH   1  26
TORSDOF 6
ENDMDL
MODEL 5
REMARK VINA RESULT:      -9.8      1.661      2.074
REMARK  Name = 
REMARK  10 active torsions:
REMARK  status: ('A' for Active; 'I' for Inactive)
REMARK    1  A    between atoms: C_1  and  O_2
REMARK    2  A    between atoms: O_2  and  C_3
REMARK    3  A    between atoms: N_11  and  C_12
REMARK    4  A    between atoms: C_12  and  C_13
REMARK    5  A    between atoms: C_13  and  C_14
REMARK    6  A    between atoms: C_15  and  C_16
REMARK    7  A    between atoms: C_19  and  C_20
REMARK    8  A    between atoms: C_21  and  C_22
REMARK    9  A    between atoms: N_24  and  C_25
REMARK   10  A    between atoms: C_26  and  C_27
REMARK                            x       y       z     vdW  Elec       q    Type
REMARK                         _______ _______ _______ _____ _____    ______ ____
ROOT
ATOM      1  C   UNL     1       2.663   4.194  20.090  0.00  0.00    +0.000 C 
ATOM      2  N   UNL     1       1.908   3.719  18.954  0.00  0.00    +0.000 N 
ATOM      3  C   UNL     1       0.786   3.023  19.339  0.00  0.00    +0.000 C 
ATOM      4  O   UNL     1      -0.008   2.499  18.584  0.00  0.00    +0.000 OA
ATOM      5  N   UNL     1       0.796   2.909  20.692  0.00  0.00    +0.000 N 
ATOM      6  C   UNL     1       1.981   3.370  21.191  0.00  0.00    +0.000 C 
ATOM      7  O   UNL     1       2.370   3.210  22.342  0.00  0.00    +0.000 OA
ATOM      8  H   UNL     1       2.279   3.574  18.020  0.00  0.00    +0.000 HD
ATOM      9  H   UNL     1       0.198   2.263  21.172  0.00  0.00    +0.000 HD
ENDROOT
BRANCH   1  10
ATOM     10  C   UNL     1       2.166   5.620  20.265  0.00  0.00    +0.000 C 
ATOM     11  C   UNL     1       1.738   6.842  20.415  0.00  0.00    +0.000 C 
BRANCH  11  12
ATOM     12  C   UNL     1       1.327   8.213  20.608  0.00  0.00    +0.000 A 
ATOM     13  C   UNL     1       1.046   9.049  19.531  0.00  0.00    +0.000 A 
ATOM     14  C   UNL     1       0.752  10.400  19.752  0.00  0.00    +0.000 A 
ATOM     15  C   UNL     1       0.740  10.907  21.049  0.00  0.00    +0.000 A 
ATOM     16  N   UNL     1       0.959  10.100  22.115  0.00  0.00    +0.000 NA
ATOM     17  C   UNL     1       1.235   8.787  21.872  0.00  0.00    +0.000 A 
BRANCH  15  18
ATOM     18  C   UNL     1       0.558  12.338  21.303  0.00  0.00    +0.000 A 
ATOM     19  C   UNL     1      -0.397  13.030  22.108  0.00  0.00    +0.000 A 
ATOM     20  C   UNL     1      -1.446  12.499  23.011  0.00  0.00    +0.000 C 
ATOM     21  N   UNL     1      -0.274  14.358  22.007  0.00  0.00    +0.000 NA
ATOM     22  N   UNL     1       0.761  14.534  21.172  0.00  0.00    +0.000 N 
ATOM     23  C   UNL     1       1.164  15.883  20.845  0.00  0.00    +0.000 C 
ATOM     24  C   UNL     1       1.308  13.358  20.721  0.00  0.00    +0.000 A 
ATOM     25  C   UNL     1       2.461  13.306  19.784  0.00  0.00    +0.000 C 
ENDBRANCH  15  18
ENDBRANCH  11  12
ENDBRANCH   1  10
BRANCH   1  26
ATOM     26  C   UNL     1       4.189   4.094  20.018  0.00  0.00    +0.000 C 
BRANCH  26  35
ATOM     27  C   UNL     1       6.470   4.309  14.436  0.00  0.00    +0.000 A 
ATOM     28  C   UNL     1       7.154   5.451  14.906  0.00  0.00    +0.000 A 
ATOM     29  C   UNL     1       7.000   5.931  16.226  0.00  0.00    +0.000 A 
ATOM     30  C   UNL     1       6.143   5.253  17.067  0.00  0.00    +0.000 A 
ATOM     31  C   UNL     1       5.489   4.141  16.563  0.00  0.00    +0.000 A 
ATOM     32  C   UNL     1       5.624   3.634  15.295  0.00  0.00    +0.000 A 
ATOM     33  C   UNL     1       4.641   3.571  17.582  0.00  0.00    +0.000 C 
ATOM     34  O   UNL     1       3.982   2.582  17.415  0.00  0.00    +0.000 OA
ATOM     35  N   UNL     1       4.796   4.361  18.717  0.00  0.00    +0.000 N 
ATOM     36  C   UNL     1       5.754   5.448  18.498  0.00  0.00    +0.000 C 
BRANCH  27  38
ATOM     37  C   UNL     1       5.585   3.303  12.489  0.00  0.00    +0.000 C 
ATOM     38  O   UNL     1       6.699   3.920  13.144  0.00  0.00    +0.000 OA
ENDBRANCH  27  38
ENDBRANCH  26  35
ENDBRANCH   1  26
TORSDOF 6
ENDMDL
MODEL 6
REMARK VINA RESULT:      -9.8      0.704      1.603
REMARK  Name = 
REMARK  10 active torsions:
REMARK  status: ('A' for Active; 'I' for Inactive)
REMARK    1  A    between atoms: C_1  and  O_2
REMARK    2  A    between atoms: O_2  and  C_3
REMARK    3  A    between atoms: N_11  and  C_12
REMARK    4  A    between atoms: C_12  and  C_13
REMARK    5  A    between atoms: C_13  and  C_14
REMARK    6  A    between atoms: C_15  and  C_16
REMARK    7  A    between atoms: C_19  and  C_20
REMARK    8  A    between atoms: C_21  and  C_22
REMARK    9  A    between atoms: N_24  and  C_25
REMARK   10  A    between atoms: C_26  and  C_27
REMARK                            x       y       z     vdW  Elec       q    Type
REMARK                         _______ _______ _______ _____ _____    ______ ____
ROOT
ATOM      1  C   UNL     1       2.828   3.968  19.922  0.00  0.00    +0.000 C 
ATOM      2  N   UNL     1       2.024   3.314  18.916  0.00  0.00    +0.000 N 
ATOM      3  C   UNL     1       0.884   2.761  19.449  0.00  0.00    +0.000 C 
ATOM      4  O   UNL     1       0.049   2.136  18.826  0.00  0.00    +0.000 OA
ATOM      5  N   UNL     1       0.924   2.915  20.798  0.00  0.00    +0.000 N 
ATOM      6  C   UNL     1       2.140   3.409  21.175  0.00  0.00    +0.000 C 
ATOM      7  O   UNL     1       2.551   3.461  22.329  0.00  0.00    +0.000 OA
ATOM      8  H   UNL     1       2.365   2.971  18.022  0.00  0.00    +0.000 HD
ATOM      9  H   UNL     1       0.312   2.404  21.406  0.00  0.00    +0.000 HD
ENDROOT
BRANCH   1  10
ATOM     10  C   UNL     1       2.396   5.422  19.820  0.00  0.00    +0.000 C 
ATOM     11  C   UNL     1       2.026   6.669  19.734  0.00  0.00    +0.000 C 
BRANCH  11  12
ATOM     12  C   UNL     1       1.635   8.049  19.571  0.00  0.00    +0.000 A 
ATOM     13  C   UNL     1       1.726   8.694  18.341  0.00  0.00    +0.000 A 
ATOM     14  C   UNL     1       1.437  10.061  18.245  0.00  0.00    +0.000 A 
ATOM     15  C   UNL     1       1.057  10.774  19.378  0.00  0.00    +0.000 A 
ATOM     16  N   UNL     1       0.910  10.156  20.574  0.00  0.00    +0.000 NA
ATOM     17  C   UNL     1       1.190   8.823  20.639  0.00  0.00    +0.000 A 
BRANCH  15  18
ATOM     18  C   UNL     1       0.867  12.226  19.333  0.00  0.00    +0.000 A 
ATOM     19  C   UNL     1       1.752  13.272  18.933  0.00  0.00    +0.000 A 
ATOM     20  C   UNL     1       3.114  13.198  18.352  0.00  0.00    +0.000 C 
ATOM     21  N   UNL     1       1.218  14.484  19.119  0.00  0.00    +0.000 NA
ATOM     22  N   UNL     1      -0.008  14.236  19.605  0.00  0.00    +0.000 N 
ATOM     23  C   UNL     1      -0.866  15.356  19.920  0.00  0.00    +0.000 C 
ATOM     24  C   UNL     1      -0.280  12.898  19.749  0.00  0.00    +0.000 A 
ATOM     25  C   UNL     1      -1.574  12.386  20.274  0.00  0.00    +0.000 C 
ENDBRANCH  15  18
ENDBRANCH  11  12
ENDBRANCH   1  10
BRANCH   1  26
ATOM     26  C   UNL     1       4.346   3.784  19.845  0.00  0.00    +0.000 C 
BRANCH  26  35
ATOM     27  C   UNL     1       7.349   5.083  14.775  0.00  0.00    +0.000 A 
ATOM     28  C   UNL     1       6.317   4.358  14.140  0.00  0.00    +0.000 A 
ATOM     29  C   UNL     1       5.259   3.763  14.863  0.00  0.00    +0.000 A 
ATOM     30  C   UNL     1       5.255   3.898  16.236  0.00  0.00    +0.000 A 
ATOM     31  C   UNL     1       6.290   4.612  16.817  0.00  0.00    +0.000 A 
ATOM     32  C   UNL     1       7.324   5.218  16.150  0.00  0.00    +0.000 A 
ATOM     33  C   UNL     1       6.116   4.641  18.250  0.00  0.00    +0.000 C 
ATOM     34  O   UNL     1       6.860   5.219  18.993  0.00  0.00    +0.000 OA
ATOM     35  N   UNL     1       4.951   3.931  18.525  0.00  0.00    +0.000 N 
ATOM     36  C   UNL     1       4.314   3.434  17.302  0.00  0.00    +0.000 C 
BRANCH  27  38
ATOM     37  C   UNL     1       8.044   5.597  12.576  0.00  0.00    +0.000 C 
ATOM     38  O   UNL     1       8.319   5.631  13.981  0.00  0.00    +0.000 OA
ENDBRANCH  27  38
ENDBRANCH  26  35
ENDBRANCH   1  26
TORSDOF 6
ENDMDL
MODEL 7
REMARK VINA RESULT:      -9.7      1.511      1.873
REMARK  Name = 
REMARK  10 active torsions:
REMARK  status: ('A' for Active; 'I' for Inactive)
REMARK    1  A    between atoms: C_1  and  O_2
REMARK    2  A    between atoms: O_2  and  C_3
REMARK    3  A    between atoms: N_11  and  C_12
REMARK    4  A    between atoms: C_12  and  C_13
REMARK    5  A    between atoms: C_13  and  C_14
REMARK    6  A    between atoms: C_15  and  C_16
REMARK    7  A    between atoms: C_19  and  C_20
REMARK    8  A    between atoms: C_21  and  C_22
REMARK    9  A    between atoms: N_24  and  C_25
REMARK   10  A    between atoms: C_26  and  C_27
REMARK                            x       y       z     vdW  Elec       q    Type
REMARK                         _______ _______ _______ _____ _____    ______ ____
ROOT
ATOM      1  C   UNL     1       2.712   4.052  20.073  0.00  0.00    +0.000 C 
ATOM      2  N   UNL     1       1.923   3.590  18.955  0.00  0.00    +0.000 N 
ATOM      3  C   UNL     1       0.777   2.951  19.365  0.00  0.00    +0.000 C 
ATOM      4  O   UNL     1      -0.048   2.449  18.629  0.00  0.00    +0.000 OA
ATOM      5  N   UNL     1       0.797   2.862  20.720  0.00  0.00    +0.000 N 
ATOM      6  C   UNL     1       2.007   3.280  21.197  0.00  0.00    +0.000 C 
ATOM      7  O   UNL     1       2.402   3.124  22.347  0.00  0.00    +0.000 OA
ATOM      8  H   UNL     1       2.277   3.412  18.019  0.00  0.00    +0.000 HD
ATOM      9  H   UNL     1       0.177   2.251  21.218  0.00  0.00    +0.000 HD
ENDROOT
BRANCH   1  10
ATOM     10  C   UNL     1       2.279   5.502  20.227  0.00  0.00    +0.000 C 
ATOM     11  C   UNL     1       1.908   6.744  20.357  0.00  0.00    +0.000 C 
BRANCH  11  12
ATOM     12  C   UNL     1       1.490   8.110  20.570  0.00  0.00    +0.000 A 
ATOM     13  C   UNL     1       1.313   8.629  21.849  0.00  0.00    +0.000 A 
ATOM     14  C   UNL     1       0.807   9.924  22.015  0.00  0.00    +0.000 A 
ATOM     15  C   UNL     1       0.481  10.693  20.900  0.00  0.00    +0.000 A 
ATOM     16  N   UNL     1       0.695  10.228  19.647  0.00  0.00    +0.000 NA
ATOM     17  C   UNL     1       1.196   8.967  19.512  0.00  0.00    +0.000 A 
BRANCH  15  18
ATOM     18  C   UNL     1      -0.163  12.001  21.043  0.00  0.00    +0.000 A 
ATOM     19  C   UNL     1      -1.227  12.431  21.893  0.00  0.00    +0.000 A 
ATOM     20  C   UNL     1      -1.948  11.699  22.961  0.00  0.00    +0.000 C 
ATOM     21  N   UNL     1      -1.579  13.699  21.656  0.00  0.00    +0.000 NA
ATOM     22  N   UNL     1      -0.742  14.103  20.689  0.00  0.00    +0.000 N 
ATOM     23  C   UNL     1      -0.859  15.456  20.193  0.00  0.00    +0.000 C 
ATOM     24  C   UNL     1       0.138  13.129  20.284  0.00  0.00    +0.000 A 
ATOM     25  C   UNL     1       1.155  13.347  19.221  0.00  0.00    +0.000 C 
ENDBRANCH  15  18
ENDBRANCH  11  12
ENDBRANCH   1  10
BRANCH   1  26
ATOM     26  C   UNL     1       4.231   3.884  19.986  0.00  0.00    +0.000 C 
BRANCH  26  35
ATOM     27  C   UNL     1       6.508   4.332  14.416  0.00  0.00    +0.000 A 
ATOM     28  C   UNL     1       7.242   5.413  14.950  0.00  0.00    +0.000 A 
ATOM     29  C   UNL     1       7.113   5.819  16.297  0.00  0.00    +0.000 A 
ATOM     30  C   UNL     1       6.229   5.130  17.100  0.00  0.00    +0.000 A 
ATOM     31  C   UNL     1       5.525   4.080  16.534  0.00  0.00    +0.000 A 
ATOM     32  C   UNL     1       5.634   3.645  15.237  0.00  0.00    +0.000 A 
ATOM     33  C   UNL     1       4.654   3.489  17.521  0.00  0.00    +0.000 C 
ATOM     34  O   UNL     1       3.951   2.542  17.298  0.00  0.00    +0.000 OA
ATOM     35  N   UNL     1       4.847   4.201  18.701  0.00  0.00    +0.000 N 
ATOM     36  C   UNL     1       5.851   5.257  18.542  0.00  0.00    +0.000 C 
BRANCH  27  38
ATOM     37  C   UNL     1       5.631   3.329  12.464  0.00  0.00    +0.000 C 
ATOM     38  O   UNL     1       6.717   4.012  13.102  0.00  0.00    +0.000 OA
ENDBRANCH  27  38
ENDBRANCH  26  35
ENDBRANCH   1  26
TORSDOF 6
ENDMDL
MODEL 8
REMARK VINA RESULT:      -9.5      1.155      1.187
REMARK  Name = 
REMARK  10 active torsions:
REMARK  status: ('A' for Active; 'I' for Inactive)
REMARK    1  A    between atoms: C_1  and  O_2
REMARK    2  A    between atoms: O_2  and  C_3
REMARK    3  A    between atoms: N_11  and  C_12
REMARK    4  A    between atoms: C_12  and  C_13
REMARK    5  A    between atoms: C_13  and  C_14
REMARK    6  A    between atoms: C_15  and  C_16
REMARK    7  A    between atoms: C_19  and  C_20
REMARK    8  A    between atoms: C_21  and  C_22
REMARK    9  A    between atoms: N_24  and  C_25
REMARK   10  A    between atoms: C_26  and  C_27
REMARK                            x       y       z     vdW  Elec       q    Type
REMARK                         _______ _______ _______ _____ _____    ______ ____
ROOT
ATOM      1  C   UNL     1       2.738   4.085  20.081  0.00  0.00    +0.000 C 
ATOM      2  N   UNL     1       1.981   3.627  18.940  0.00  0.00    +0.000 N 
ATOM      3  C   UNL     1       0.842   2.956  19.315  0.00  0.00    +0.000 C 
ATOM      4  O   UNL     1       0.042   2.450  18.554  0.00  0.00    +0.000 OA
ATOM      5  N   UNL     1       0.839   2.841  20.668  0.00  0.00    +0.000 N 
ATOM      6  C   UNL     1       2.030   3.276  21.176  0.00  0.00    +0.000 C 
ATOM      7  O   UNL     1       2.407   3.107  22.330  0.00  0.00    +0.000 OA
ATOM      8  H   UNL     1       2.357   3.476  18.008  0.00  0.00    +0.000 HD
ATOM      9  H   UNL     1       0.224   2.207  21.143  0.00  0.00    +0.000 HD
ENDROOT
BRANCH   1  10
ATOM     10  C   UNL     1       2.271   5.522  20.254  0.00  0.00    +0.000 C 
ATOM     11  C   UNL     1       1.868   6.753  20.402  0.00  0.00    +0.000 C 
BRANCH  11  12
ATOM     12  C   UNL     1       1.487   8.133  20.587  0.00  0.00    +0.000 A 
ATOM     13  C   UNL     1       1.349   8.689  21.855  0.00  0.00    +0.000 A 
ATOM     14  C   UNL     1       0.877  10.000  21.997  0.00  0.00    +0.000 A 
ATOM     15  C   UNL     1       0.546  10.747  20.869  0.00  0.00    +0.000 A 
ATOM     16  N   UNL     1       0.722  10.244  19.624  0.00  0.00    +0.000 NA
ATOM     17  C   UNL     1       1.191   8.968  19.514  0.00  0.00    +0.000 A 
BRANCH  15  18
ATOM     18  C   UNL     1      -0.065  12.073  20.990  0.00  0.00    +0.000 A 
ATOM     19  C   UNL     1      -1.180  12.522  21.761  0.00  0.00    +0.000 A 
ATOM     20  C   UNL     1      -2.010  11.793  22.750  0.00  0.00    +0.000 C 
ATOM     21  N   UNL     1      -1.470  13.806  21.527  0.00  0.00    +0.000 NA
ATOM     22  N   UNL     1      -0.544  14.201  20.640  0.00  0.00    +0.000 N 
ATOM     23  C   UNL     1      -0.576  15.567  20.169  0.00  0.00    +0.000 C 
ATOM     24  C   UNL     1       0.334  13.206  20.284  0.00  0.00    +0.000 A 
ATOM     25  C   UNL     1       1.440  13.411  19.313  0.00  0.00    +0.000 C 
ENDBRANCH  15  18
ENDBRANCH  11  12
ENDBRANCH   1  10
BRANCH   1  26
ATOM     26  C   UNL     1       4.263   3.952  20.020  0.00  0.00    +0.000 C 
BRANCH  26  35
ATOM     27  C   UNL     1       7.215   5.104  14.885  0.00  0.00    +0.000 A 
ATOM     28  C   UNL     1       6.247   4.260  14.299  0.00  0.00    +0.000 A 
ATOM     29  C   UNL     1       5.229   3.640  15.058  0.00  0.00    +0.000 A 
ATOM     30  C   UNL     1       5.200   3.873  16.417  0.00  0.00    +0.000 A 
ATOM     31  C   UNL     1       6.172   4.704  16.951  0.00  0.00    +0.000 A 
ATOM     32  C   UNL     1       7.165   5.337  16.246  0.00  0.00    +0.000 A 
ATOM     33  C   UNL     1       5.980   4.823  18.376  0.00  0.00    +0.000 C 
ATOM     34  O   UNL     1       6.671   5.508  19.079  0.00  0.00    +0.000 OA
ATOM     35  N   UNL     1       4.869   4.048  18.696  0.00  0.00    +0.000 N 
ATOM     36  C   UNL     1       4.284   3.418  17.509  0.00  0.00    +0.000 C 
BRANCH  27  38
ATOM     37  C   UNL     1       7.951   5.419  12.662  0.00  0.00    +0.000 C 
ATOM     38  O   UNL     1       8.150   5.665  14.059  0.00  0.00    +0.000 OA
ENDBRANCH  27  38
ENDBRANCH  26  35
ENDBRANCH   1  26
TORSDOF 6
ENDMDL
MODEL 9
REMARK VINA RESULT:      -9.5      5.071     11.816
REMARK  Name = 
REMARK  10 active torsions:
REMARK  status: ('A' for Active; 'I' for Inactive)
REMARK    1  A    between atoms: C_1  and  O_2
REMARK    2  A    between atoms: O_2  and  C_3
REMARK    3  A    between atoms: N_11  and  C_12
REMARK    4  A    between atoms: C_12  and  C_13
REMARK    5  A    between atoms: C_13  and  C_14
REMARK    6  A    between atoms: C_15  and  C_16
REMARK    7  A    between atoms: C_19  and  C_20
REMARK    8  A    between atoms: C_21  and  C_22
REMARK    9  A    between atoms: N_24  and  C_25
REMARK   10  A    between atoms: C_26  and  C_27
REMARK                            x       y       z     vdW  Elec       q    Type
REMARK                         _______ _______ _______ _____ _____    ______ ____
ROOT
ATOM      1  C   UNL     1      -1.039  11.989  19.493  0.00  0.00    +0.000 C 
ATOM      2  N   UNL     1      -2.318  11.463  19.073  0.00  0.00    +0.000 N 
ATOM      3  C   UNL     1      -2.562  11.707  17.743  0.00  0.00    +0.000 C 
ATOM      4  O   UNL     1      -3.571  11.391  17.145  0.00  0.00    +0.000 OA
ATOM      5  N   UNL     1      -1.551  12.472  17.255  0.00  0.00    +0.000 N 
ATOM      6  C   UNL     1      -0.735  12.873  18.275  0.00  0.00    +0.000 C 
ATOM      7  O   UNL     1       0.134  13.732  18.185  0.00  0.00    +0.000 OA
ATOM      8  H   UNL     1      -3.102  11.263  19.688  0.00  0.00    +0.000 HD
ATOM      9  H   UNL     1      -1.626  12.948  16.375  0.00  0.00    +0.000 HD
ENDROOT
BRANCH   1  10
ATOM     10  C   UNL     1      -0.116  10.787  19.378  0.00  0.00    +0.000 C 
ATOM     11  C   UNL     1       0.677   9.757  19.280  0.00  0.00    +0.000 C 
BRANCH  11  12
ATOM     12  C   UNL     1       1.533   8.595  19.233  0.00  0.00    +0.000 A 
ATOM     13  C   UNL     1       2.276   8.279  18.099  0.00  0.00    +0.000 A 
ATOM     14  C   UNL     1       3.012   7.089  18.053  0.00  0.00    +0.000 A 
ATOM     15  C   UNL     1       3.001   6.221  19.142  0.00  0.00    +0.000 A 
ATOM     16  N   UNL     1       2.328   6.533  20.275  0.00  0.00    +0.000 NA
ATOM     17  C   UNL     1       1.626   7.701  20.297  0.00  0.00    +0.000 A 
BRANCH  15  18
ATOM     18  C   UNL     1       3.661   4.915  19.078  0.00  0.00    +0.000 A 
ATOM     19  C   UNL     1       5.044   4.563  19.124  0.00  0.00    +0.000 A 
ATOM     20  C   UNL     1       6.237   5.415  19.344  0.00  0.00    +0.000 C 
ATOM     21  N   UNL     1       5.237   3.251  18.950  0.00  0.00    +0.000 NA
ATOM     22  N   UNL     1       4.000   2.747  18.822  0.00  0.00    +0.000 N 
ATOM     23  C   UNL     1       3.851   1.324  18.616  0.00  0.00    +0.000 C 
ATOM     24  C   UNL     1       3.010   3.696  18.897  0.00  0.00    +0.000 A 
ATOM     25  C   UNL     1       1.565   3.372  18.776  0.00  0.00    +0.000 C 
ENDBRANCH  15  18
ENDBRANCH  11  12
ENDBRANCH   1  10
BRANCH   1  26
ATOM     26  C   UNL     1      -0.969  12.674  20.860  0.00  0.00    +0.000 C 
BRANCH  26  35
ATOM     27  C   UNL     1      -6.309  13.178  23.624  0.00  0.00    +0.000 A 
ATOM     28  C   UNL     1      -5.667  12.512  24.690  0.00  0.00    +0.000 A 
ATOM     29  C   UNL     1      -4.318  12.100  24.617  0.00  0.00    +0.000 A 
ATOM     30  C   UNL     1      -3.622  12.360  23.455  0.00  0.00    +0.000 A 
ATOM     31  C   UNL     1      -4.292  13.011  22.433  0.00  0.00    +0.000 A 
ATOM     32  C   UNL     1      -5.595  13.441  22.471  0.00  0.00    +0.000 A 
ATOM     33  C   UNL     1      -3.408  13.190  21.307  0.00  0.00    +0.000 C 
ATOM     34  O   UNL     1      -3.731  13.751  20.297  0.00  0.00    +0.000 OA
ATOM     35  N   UNL     1      -2.184  12.634  21.669  0.00  0.00    +0.000 N 
ATOM     36  C   UNL     1      -2.211  12.098  23.032  0.00  0.00    +0.000 C 
BRANCH  27  38
ATOM     37  C   UNL     1      -7.915  14.904  23.459  0.00  0.00    +0.000 C 
ATOM     38  O   UNL     1      -7.615  13.546  23.802  0.00  0.00    +0.000 OA
ENDBRANCH  27  38
ENDBRANCH  26  35
ENDBRANCH   1  26
TORSDOF 6
ENDMDL
