MODEL 1
REMARK VINA RESULT:      -6.7      0.000      0.000
REMARK  Name = 
REMARK  7 active torsions:
REMARK  status: ('A' for Active; 'I' for Inactive)
REMARK    1  A    between atoms: C_2  and  O_3
REMARK    2  A    between atoms: C_2  and  C_4
REMARK    3  A    between atoms: C_4  and  C_5
REMARK    4  A    between atoms: C_5  and  C_6
REMARK    5  A    between atoms: C_9  and  O_10
REMARK    6  A    between atoms: O_10  and  C_11
REMARK    7  A    between atoms: C_11  and  C_12
REMARK                            x       y       z     vdW  Elec       q    Type
REMARK                         _______ _______ _______ _____ _____    ______ ____
ROOT
ATOM      1  C   UNL     1       7.904   7.097  18.305  0.00  0.00    +0.000 A 
ATOM      2  C   UNL     1       8.018   5.791  18.799  0.00  0.00    +0.000 A 
ATOM      3  C   UNL     1       7.421   4.725  18.134  0.00  0.00    +0.000 A 
ATOM      4  C   UNL     1       6.654   4.954  16.993  0.00  0.00    +0.000 A 
ATOM      5  C   UNL     1       6.528   6.252  16.496  0.00  0.00    +0.000 A 
ATOM      6  C   UNL     1       7.146   7.322  17.150  0.00  0.00    +0.000 A 
ENDROOT
BRANCH   1   7
ATOM      7  C   UNL     1       8.627   8.224  19.004  0.00  0.00    +0.000 C 
BRANCH   7   8
ATOM      8  C   UNL     1       8.537   9.507  18.176  0.00  0.00    +0.000 C 
BRANCH   8  10
ATOM      9  O   UNL     1       9.591  10.708  19.998  0.00  0.00    +0.000 OA
ATOM     10  C   UNL     1       9.259  10.654  18.827  0.00  0.00    +0.000 C 
BRANCH  10  11
ATOM     11  O   UNL     1       9.520  11.653  17.950  0.00  0.00    +0.000 OA
ATOM     12  H   UNL     1       9.127  12.511  18.201  0.00  0.00    +0.000 HD
ENDBRANCH  10  11
ENDBRANCH   8  10
ENDBRANCH   7   8
ENDBRANCH   1   7
BRANCH   4  13
ATOM     13  O   UNL     1       5.997   3.980  16.294  0.00  0.00    +0.000 OA
BRANCH  13  14
ATOM     14  C   UNL     1       4.605   4.226  16.077  0.00  0.00    +0.000 C 
BRANCH  14  15
ATOM     15  C   UNL     1       3.851   3.915  17.342  0.00  0.00    +0.000 A 
ATOM     16  C   UNL     1       3.188   4.924  18.050  0.00  0.00    +0.000 A 
ATOM     17  C   UNL     1       2.480   4.617  19.214  0.00  0.00    +0.000 A 
ATOM     18  C   UNL     1       2.429   3.300  19.665  0.00  0.00    +0.000 A 
ATOM     19 BR   UNL     1       1.489   2.890  21.254  0.00  0.00    +0.000 Br
ATOM     20  C   UNL     1       3.069   2.283  18.961  0.00  0.00    +0.000 A 
ATOM     21  C   UNL     1       3.774   2.590  17.800  0.00  0.00    +0.000 A 
ENDBRANCH  14  15
ENDBRANCH  13  14
ENDBRANCH   4  13
TORSDOF 7
ENDMDL
MODEL 2
REMARK VINA RESULT:      -6.6      0.589      1.751
REMARK  Name = 
REMARK  7 active torsions:
REMARK  status: ('A' for Active; 'I' for Inactive)
REMARK    1  A    between atoms: C_2  and  O_3
REMARK    2  A    between atoms: C_2  and  C_4
REMARK    3  A    between atoms: C_4  and  C_5
REMARK    4  A    between atoms: C_5  and  C_6
REMARK    5  A    between atoms: C_9  and  O_10
REMARK    6  A    between atoms: O_10  and  C_11
REMARK    7  A    between atoms: C_11  and  C_12
REMARK                            x       y       z     vdW  Elec       q    Type
REMARK                         _______ _______ _______ _____ _____    ______ ____
ROOT
ATOM      1  C   UNL     1       7.570   6.812  18.000  0.00  0.00    +0.000 A 
ATOM      2  C   UNL     1       6.537   7.141  17.113  0.00  0.00    +0.000 A 
ATOM      3  C   UNL     1       5.773   6.146  16.511  0.00  0.00    +0.000 A 
ATOM      4  C   UNL     1       6.063   4.804  16.745  0.00  0.00    +0.000 A 
ATOM      5  C   UNL     1       7.095   4.464  17.621  0.00  0.00    +0.000 A 
ATOM      6  C   UNL     1       7.849   5.463  18.245  0.00  0.00    +0.000 A 
ENDROOT
BRANCH   1   7
ATOM      7  C   UNL     1       8.332   7.913  18.698  0.00  0.00    +0.000 C 
BRANCH   7   8
ATOM      8  C   UNL     1       8.273   9.203  17.879  0.00  0.00    +0.000 C 
BRANCH   8  10
ATOM      9  O   UNL     1       9.120  11.463  18.106  0.00  0.00    +0.000 OA
ATOM     10  C   UNL     1       8.988  10.339  18.557  0.00  0.00    +0.000 C 
BRANCH  10  11
ATOM     11  O   UNL     1       9.480   9.979  19.767  0.00  0.00    +0.000 OA
ATOM     12  H   UNL     1       9.746  10.735  20.325  0.00  0.00    +0.000 HD
ENDBRANCH  10  11
ENDBRANCH   8  10
ENDBRANCH   7   8
ENDBRANCH   1   7
BRANCH   4  13
ATOM     13  O   UNL     1       5.397   3.757  16.172  0.00  0.00    +0.000 OA
BRANCH  13  14
ATOM     14  C   UNL     1       3.981   3.928  16.064  0.00  0.00    +0.000 C 
BRANCH  14  15
ATOM     15  C   UNL     1       3.350   3.634  17.399  0.00  0.00    +0.000 A 
ATOM     16  C   UNL     1       3.640   2.449  18.086  0.00  0.00    +0.000 A 
ATOM     17  C   UNL     1       3.059   2.197  19.330  0.00  0.00    +0.000 A 
ATOM     18  C   UNL     1       2.194   3.134  19.891  0.00  0.00    +0.000 A 
ATOM     19 BR   UNL     1       1.389   2.782  21.565  0.00  0.00    +0.000 Br
ATOM     20  C   UNL     1       1.911   4.326  19.228  0.00  0.00    +0.000 A 
ATOM     21  C   UNL     1       2.491   4.576  17.987  0.00  0.00    +0.000 A 
ENDBRANCH  14  15
ENDBRANCH  13  14
ENDBRANCH   4  13
TORSDOF 7
ENDMDL
MODEL 3
REMARK VINA RESULT:      -6.5      3.043      6.083
REMARK  Name = 
REMARK  7 active torsions:
REMARK  status: ('A' for Active; 'I' for Inactive)
REMARK    1  A    between atoms: C_2  and  O_3
REMARK    2  A    between atoms: C_2  and  C_4
REMARK    3  A    between atoms: C_4  and  C_5
REMARK    4  A    between atoms: C_5  and  C_6
REMARK    5  A    between atoms: C_9  and  O_10
REMARK    6  A    between atoms: O_10  and  C_11
REMARK    7  A    between atoms: C_11  and  C_12
REMARK                            x       y       z     vdW  Elec       q    Type
REMARK                         _______ _______ _______ _____ _____    ______ ____
ROOT
ATOM      1  C   UNL     1       6.292   4.459  14.568  0.00  0.00    +0.000 A 
ATOM      2  C   UNL     1       5.336   5.449  14.822  0.00  0.00    +0.000 A 
ATOM      3  C   UNL     1       5.322   6.130  16.035  0.00  0.00    +0.000 A 
ATOM      4  C   UNL     1       6.232   5.795  17.035  0.00  0.00    +0.000 A 
ATOM      5  C   UNL     1       7.185   4.804  16.796  0.00  0.00    +0.000 A 
ATOM      6  C   UNL     1       7.215   4.134  15.569  0.00  0.00    +0.000 A 
ENDROOT
BRANCH   1   7
ATOM      7  C   UNL     1       6.332   3.789  13.215  0.00  0.00    +0.000 C 
BRANCH   7   8
ATOM      8  C   UNL     1       4.964   3.878  12.537  0.00  0.00    +0.000 C 
BRANCH   8  10
ATOM      9  O   UNL     1       5.493   1.827  11.358  0.00  0.00    +0.000 OA
ATOM     10  C   UNL     1       4.764   2.790  11.518  0.00  0.00    +0.000 C 
BRANCH  10  11
ATOM     11  O   UNL     1       3.650   2.990  10.774  0.00  0.00    +0.000 OA
ATOM     12  H   UNL     1       3.689   3.788  10.212  0.00  0.00    +0.000 HD
ENDBRANCH  10  11
ENDBRANCH   8  10
ENDBRANCH   7   8
ENDBRANCH   1   7
BRANCH   4  13
ATOM     13  O   UNL     1       6.273   6.378  18.271  0.00  0.00    +0.000 OA
BRANCH  13  14
ATOM     14  C   UNL     1       6.170   5.470  19.371  0.00  0.00    +0.000 C 
BRANCH  14  15
ATOM     15  C   UNL     1       4.831   4.785  19.315  0.00  0.00    +0.000 A 
ATOM     16  C   UNL     1       4.740   3.395  19.169  0.00  0.00    +0.000 A 
ATOM     17  C   UNL     1       3.491   2.772  19.134  0.00  0.00    +0.000 A 
ATOM     18  C   UNL     1       2.333   3.537  19.253  0.00  0.00    +0.000 A 
ATOM     19 BR   UNL     1       0.642   2.696  19.182  0.00  0.00    +0.000 Br
ATOM     20  C   UNL     1       2.409   4.919  19.418  0.00  0.00    +0.000 A 
ATOM     21  C   UNL     1       3.655   5.539  19.453  0.00  0.00    +0.000 A 
ENDBRANCH  14  15
ENDBRANCH  13  14
ENDBRANCH   4  13
TORSDOF 7
ENDMDL
MODEL 4
REMARK VINA RESULT:      -6.5      5.044      6.924
REMARK  Name = 
REMARK  7 active torsions:
REMARK  status: ('A' for Active; 'I' for Inactive)
REMARK    1  A    between atoms: C_2  and  O_3
REMARK    2  A    between atoms: C_2  and  C_4
REMARK    3  A    between atoms: C_4  and  C_5
REMARK    4  A    between atoms: C_5  and  C_6
REMARK    5  A    between atoms: C_9  and  O_10
REMARK    6  A    between atoms: O_10  and  C_11
REMARK    7  A    between atoms: C_11  and  C_12
REMARK                            x       y       z     vdW  Elec       q    Type
REMARK                         _______ _______ _______ _____ _____    ______ ____
ROOT
ATOM      1  C   UNL     1       4.182   5.057  17.147  0.00  0.00    +0.000 A 
ATOM      2  C   UNL     1       3.102   4.718  17.970  0.00  0.00    +0.000 A 
ATOM      3  C   UNL     1       2.294   5.704  18.525  0.00  0.00    +0.000 A 
ATOM      4  C   UNL     1       2.584   7.050  18.310  0.00  0.00    +0.000 A 
ATOM      5  C   UNL     1       3.663   7.400  17.497  0.00  0.00    +0.000 A 
ATOM      6  C   UNL     1       4.463   6.409  16.919  0.00  0.00    +0.000 A 
ENDROOT
BRANCH   1   7
ATOM      7  C   UNL     1       4.996   3.965  16.495  0.00  0.00    +0.000 C 
BRANCH   7   8
ATOM      8  C   UNL     1       5.693   4.497  15.241  0.00  0.00    +0.000 C 
BRANCH   8  10
ATOM      9  O   UNL     1       7.781   4.452  16.470  0.00  0.00    +0.000 OA
ATOM     10  C   UNL     1       7.153   4.772  15.477  0.00  0.00    +0.000 C 
BRANCH  10  11
ATOM     11  O   UNL     1       7.720   5.428  14.437  0.00  0.00    +0.000 OA
ATOM     12  H   UNL     1       7.914   6.367  14.621  0.00  0.00    +0.000 HD
ENDBRANCH  10  11
ENDBRANCH   8  10
ENDBRANCH   7   8
ENDBRANCH   1   7
BRANCH   4  13
ATOM     13  O   UNL     1       1.874   8.090  18.843  0.00  0.00    +0.000 OA
BRANCH  13  14
ATOM     14  C   UNL     1       1.694   9.208  17.970  0.00  0.00    +0.000 C 
BRANCH  14  15
ATOM     15  C   UNL     1       0.547  10.042  18.474  0.00  0.00    +0.000 A 
ATOM     16  C   UNL     1      -0.702  10.003  17.843  0.00  0.00    +0.000 A 
ATOM     17  C   UNL     1      -1.761  10.771  18.332  0.00  0.00    +0.000 A 
ATOM     18  C   UNL     1      -1.573  11.572  19.457  0.00  0.00    +0.000 A 
ATOM     19 BR   UNL     1      -3.000  12.629  20.104  0.00  0.00    +0.000 Br
ATOM     20  C   UNL     1      -0.340  11.606  20.106  0.00  0.00    +0.000 A 
ATOM     21  C   UNL     1       0.715  10.839  19.618  0.00  0.00    +0.000 A 
ENDBRANCH  14  15
ENDBRANCH  13  14
ENDBRANCH   4  13
TORSDOF 7
ENDMDL
MODEL 5
REMARK VINA RESULT:      -6.5      3.688      7.191
REMARK  Name = 
REMARK  7 active torsions:
REMARK  status: ('A' for Active; 'I' for Inactive)
REMARK    1  A    between atoms: C_2  and  O_3
REMARK    2  A    between atoms: C_2  and  C_4
REMARK    3  A    between atoms: C_4  and  C_5
REMARK    4  A    between atoms: C_5  and  C_6
REMARK    5  A    between atoms: C_9  and  O_10
REMARK    6  A    between atoms: O_10  and  C_11
REMARK    7  A    between atoms: C_11  and  C_12
REMARK                            x       y       z     vdW  Elec       q    Type
REMARK                         _______ _______ _______ _____ _____    ______ ____
ROOT
ATOM      1  C   UNL     1       2.069   3.890  18.638  0.00  0.00    +0.000 A 
ATOM      2  C   UNL     1       2.660   2.774  18.032  0.00  0.00    +0.000 A 
ATOM      3  C   UNL     1       3.761   2.919  17.195  0.00  0.00    +0.000 A 
ATOM      4  C   UNL     1       4.257   4.189  16.906  0.00  0.00    +0.000 A 
ATOM      5  C   UNL     1       3.671   5.309  17.498  0.00  0.00    +0.000 A 
ATOM      6  C   UNL     1       2.579   5.163  18.358  0.00  0.00    +0.000 A 
ENDROOT
BRANCH   1   7
ATOM      7  C   UNL     1       0.924   3.696  19.603  0.00  0.00    +0.000 C 
BRANCH   7   8
ATOM      8  C   UNL     1       1.364   4.042  21.027  0.00  0.00    +0.000 C 
BRANCH   8  10
ATOM      9  O   UNL     1       3.166   2.541  21.638  0.00  0.00    +0.000 OA
ATOM     10  C   UNL     1       1.996   2.869  21.725  0.00  0.00    +0.000 C 
BRANCH  10  11
ATOM     11  O   UNL     1       1.107   2.196  22.494  0.00  0.00    +0.000 OA
ATOM     12  H   UNL     1       1.522   1.618  23.162  0.00  0.00    +0.000 HD
ENDBRANCH  10  11
ENDBRANCH   8  10
ENDBRANCH   7   8
ENDBRANCH   1   7
BRANCH   4  13
ATOM     13  O   UNL     1       5.307   4.437  16.066  0.00  0.00    +0.000 OA
BRANCH  13  14
ATOM     14  C   UNL     1       6.599   4.182  16.624  0.00  0.00    +0.000 C 
BRANCH  14  15
ATOM     15  C   UNL     1       7.151   5.464  17.186  0.00  0.00    +0.000 A 
ATOM     16  C   UNL     1       7.077   6.658  16.460  0.00  0.00    +0.000 A 
ATOM     17  C   UNL     1       7.580   7.843  17.001  0.00  0.00    +0.000 A 
ATOM     18  C   UNL     1       8.150   7.835  18.272  0.00  0.00    +0.000 A 
ATOM     19 BR   UNL     1       8.852   9.435  18.995  0.00  0.00    +0.000 Br
ATOM     20  C   UNL     1       8.214   6.658  19.014  0.00  0.00    +0.000 A 
ATOM     21  C   UNL     1       7.712   5.477  18.473  0.00  0.00    +0.000 A 
ENDBRANCH  14  15
ENDBRANCH  13  14
ENDBRANCH   4  13
TORSDOF 7
ENDMDL
MODEL 6
REMARK VINA RESULT:      -6.5      3.963      6.974
REMARK  Name = 
REMARK  7 active torsions:
REMARK  status: ('A' for Active; 'I' for Inactive)
REMARK    1  A    between atoms: C_2  and  O_3
REMARK    2  A    between atoms: C_2  and  C_4
REMARK    3  A    between atoms: C_4  and  C_5
REMARK    4  A    between atoms: C_5  and  C_6
REMARK    5  A    between atoms: C_9  and  O_10
REMARK    6  A    between atoms: O_10  and  C_11
REMARK    7  A    between atoms: C_11  and  C_12
REMARK                            x       y       z     vdW  Elec       q    Type
REMARK                         _______ _______ _______ _____ _____    ______ ____
ROOT
ATOM      1  C   UNL     1       2.922   5.863  19.319  0.00  0.00    +0.000 A 
ATOM      2  C   UNL     1       4.160   5.218  19.420  0.00  0.00    +0.000 A 
ATOM      3  C   UNL     1       5.216   5.569  18.585  0.00  0.00    +0.000 A 
ATOM      4  C   UNL     1       5.035   6.536  17.598  0.00  0.00    +0.000 A 
ATOM      5  C   UNL     1       3.802   7.180  17.483  0.00  0.00    +0.000 A 
ATOM      6  C   UNL     1       2.747   6.845  18.336  0.00  0.00    +0.000 A 
ENDROOT
BRANCH   1   7
ATOM      7  C   UNL     1       1.817   5.515  20.288  0.00  0.00    +0.000 C 
BRANCH   7   8
ATOM      8  C   UNL     1       2.307   4.480  21.302  0.00  0.00    +0.000 C 
BRANCH   8  10
ATOM      9  O   UNL     1       1.547   2.321  22.102  0.00  0.00    +0.000 OA
ATOM     10  C   UNL     1       1.434   3.255  21.327  0.00  0.00    +0.000 C 
BRANCH  10  11
ATOM     11  O   UNL     1       0.472   3.297  20.375  0.00  0.00    +0.000 OA
ATOM     12  H   UNL     1       0.628   3.973  19.688  0.00  0.00    +0.000 HD
ENDBRANCH  10  11
ENDBRANCH   8  10
ENDBRANCH   7   8
ENDBRANCH   1   7
BRANCH   4  13
ATOM     13  O   UNL     1       5.997   6.921  16.706  0.00  0.00    +0.000 OA
BRANCH  13  14
ATOM     14  C   UNL     1       7.034   5.962  16.485  0.00  0.00    +0.000 C 
BRANCH  14  15
ATOM     15  C   UNL     1       6.680   5.127  15.284  0.00  0.00    +0.000 A 
ATOM     16  C   UNL     1       5.582   4.260  15.310  0.00  0.00    +0.000 A 
ATOM     17  C   UNL     1       5.256   3.503  14.182  0.00  0.00    +0.000 A 
ATOM     18  C   UNL     1       6.025   3.619  13.026  0.00  0.00    +0.000 A 
ATOM     19 BR   UNL     1       5.599   2.576  11.508  0.00  0.00    +0.000 Br
ATOM     20  C   UNL     1       7.110   4.492  12.980  0.00  0.00    +0.000 A 
ATOM     21  C   UNL     1       7.433   5.246  14.105  0.00  0.00    +0.000 A 
ENDBRANCH  14  15
ENDBRANCH  13  14
ENDBRANCH   4  13
TORSDOF 7
ENDMDL
MODEL 7
REMARK VINA RESULT:      -6.4      3.691      8.222
REMARK  Name = 
REMARK  7 active torsions:
REMARK  status: ('A' for Active; 'I' for Inactive)
REMARK    1  A    between atoms: C_2  and  O_3
REMARK    2  A    between atoms: C_2  and  C_4
REMARK    3  A    between atoms: C_4  and  C_5
REMARK    4  A    between atoms: C_5  and  C_6
REMARK    5  A    between atoms: C_9  and  O_10
REMARK    6  A    between atoms: O_10  and  C_11
REMARK    7  A    between atoms: C_11  and  C_12
REMARK                            x       y       z     vdW  Elec       q    Type
REMARK                         _______ _______ _______ _____ _____    ______ ____
ROOT
ATOM      1  C   UNL     1       5.980   4.945  17.058  0.00  0.00    +0.000 A 
ATOM      2  C   UNL     1       6.989   4.688  17.994  0.00  0.00    +0.000 A 
ATOM      3  C   UNL     1       7.770   5.722  18.500  0.00  0.00    +0.000 A 
ATOM      4  C   UNL     1       7.591   7.024  18.038  0.00  0.00    +0.000 A 
ATOM      5  C   UNL     1       6.593   7.291  17.099  0.00  0.00    +0.000 A 
ATOM      6  C   UNL     1       5.792   6.256  16.606  0.00  0.00    +0.000 A 
ENDROOT
BRANCH   1   7
ATOM      7  C   UNL     1       5.097   3.815  16.583  0.00  0.00    +0.000 C 
BRANCH   7   8
ATOM      8  C   UNL     1       3.723   3.898  17.251  0.00  0.00    +0.000 C 
BRANCH   8  10
ATOM      9  O   UNL     1       3.755   2.947  19.480  0.00  0.00    +0.000 OA
ATOM     10  C   UNL     1       3.531   2.826  18.289  0.00  0.00    +0.000 C 
BRANCH  10  11
ATOM     11  O   UNL     1       3.062   1.676  17.749  0.00  0.00    +0.000 OA
ATOM     12  H   UNL     1       2.608   1.096  18.390  0.00  0.00    +0.000 HD
ENDBRANCH  10  11
ENDBRANCH   8  10
ENDBRANCH   7   8
ENDBRANCH   1   7
BRANCH   4  13
ATOM     13  O   UNL     1       8.332   8.098  18.444  0.00  0.00    +0.000 OA
BRANCH  13  14
ATOM     14  C   UNL     1       8.189   9.271  17.637  0.00  0.00    +0.000 C 
BRANCH  14  15
ATOM     15  C   UNL     1       8.800  10.440  18.362  0.00  0.00    +0.000 A 
ATOM     16  C   UNL     1       8.758  11.727  17.814  0.00  0.00    +0.000 A 
ATOM     17  C   UNL     1       9.315  12.805  18.505  0.00  0.00    +0.000 A 
ATOM     18  C   UNL     1       9.908  12.596  19.748  0.00  0.00    +0.000 A 
ATOM     19 BR   UNL     1      10.683  14.052  20.673  0.00  0.00    +0.000 Br
ATOM     20  C   UNL     1       9.940  11.324  20.315  0.00  0.00    +0.000 A 
ATOM     21  C   UNL     1       9.384  10.250  19.625  0.00  0.00    +0.000 A 
ENDBRANCH  14  15
ENDBRANCH  13  14
ENDBRANCH   4  13
TORSDOF 7
ENDMDL
MODEL 8
REMARK VINA RESULT:      -6.4      4.318      6.256
REMARK  Name = 
REMARK  7 active torsions:
REMARK  status: ('A' for Active; 'I' for Inactive)
REMARK    1  A    between atoms: C_2  and  O_3
REMARK    2  A    between atoms: C_2  and  C_4
REMARK    3  A    between atoms: C_4  and  C_5
REMARK    4  A    between atoms: C_5  and  C_6
REMARK    5  A    between atoms: C_9  and  O_10
REMARK    6  A    between atoms: O_10  and  C_11
REMARK    7  A    between atoms: C_11  and  C_12
REMARK                            x       y       z     vdW  Elec       q    Type
REMARK                         _______ _______ _______ _____ _____    ______ ____
ROOT
ATOM      1  C   UNL     1       5.051   4.759  16.026  0.00  0.00    +0.000 A 
ATOM      2  C   UNL     1       4.182   4.054  16.867  0.00  0.00    +0.000 A 
ATOM      3  C   UNL     1       3.399   4.723  17.802  0.00  0.00    +0.000 A 
ATOM      4  C   UNL     1       3.511   6.104  17.949  0.00  0.00    +0.000 A 
ATOM      5  C   UNL     1       4.380   6.816  17.120  0.00  0.00    +0.000 A 
ATOM      6  C   UNL     1       5.151   6.149  16.164  0.00  0.00    +0.000 A 
ENDROOT
BRANCH   1   7
ATOM      7  C   UNL     1       5.832   4.017  14.967  0.00  0.00    +0.000 C 
BRANCH   7   8
ATOM      8  C   UNL     1       7.130   4.760  14.644  0.00  0.00    +0.000 C 
BRANCH   8  10
ATOM      9  O   UNL     1       6.920   4.077  12.328  0.00  0.00    +0.000 OA
ATOM     10  C   UNL     1       7.392   4.826  13.165  0.00  0.00    +0.000 C 
BRANCH  10  11
ATOM     11  O   UNL     1       8.227   5.843  12.843  0.00  0.00    +0.000 OA
ATOM     12  H   UNL     1       7.845   6.481  12.210  0.00  0.00    +0.000 HD
ENDBRANCH  10  11
ENDBRANCH   8  10
ENDBRANCH   7   8
ENDBRANCH   1   7
BRANCH   4  13
ATOM     13  O   UNL     1       2.815   6.845  18.863  0.00  0.00    +0.000 OA
BRANCH  13  14
ATOM     14  C   UNL     1       2.281   8.074  18.364  0.00  0.00    +0.000 C 
BRANCH  14  15
ATOM     15  C   UNL     1       1.497   8.746  19.459  0.00  0.00    +0.000 A 
ATOM     16  C   UNL     1       0.753   9.904  19.204  0.00  0.00    +0.000 A 
ATOM     17  C   UNL     1       0.018  10.508  20.227  0.00  0.00    +0.000 A 
ATOM     18  C   UNL     1       0.020   9.948  21.502  0.00  0.00    +0.000 A 
ATOM     19 BR   UNL     1      -0.956  10.779  22.892  0.00  0.00    +0.000 Br
ATOM     20  C   UNL     1       0.740   8.785  21.766  0.00  0.00    +0.000 A 
ATOM     21  C   UNL     1       1.473   8.184  20.746  0.00  0.00    +0.000 A 
ENDBRANCH  14  15
ENDBRANCH  13  14
ENDBRANCH   4  13
TORSDOF 7
ENDMDL
MODEL 9
REMARK VINA RESULT:      -6.4      3.959      6.338
REMARK  Name = 
REMARK  7 active torsions:
REMARK  status: ('A' for Active; 'I' for Inactive)
REMARK    1  A    between atoms: C_2  and  O_3
REMARK    2  A    between atoms: C_2  and  C_4
REMARK    3  A    between atoms: C_4  and  C_5
REMARK    4  A    between atoms: C_5  and  C_6
REMARK    5  A    between atoms: C_9  and  O_10
REMARK    6  A    between atoms: O_10  and  C_11
REMARK    7  A    between atoms: C_11  and  C_12
REMARK                            x       y       z     vdW  Elec       q    Type
REMARK                         _______ _______ _______ _____ _____    ______ ____
ROOT
ATOM      1  C   UNL     1       5.980   4.541  15.900  0.00  0.00    +0.000 A 
ATOM      2  C   UNL     1       6.704   5.389  16.748  0.00  0.00    +0.000 A 
ATOM      3  C   UNL     1       6.207   5.734  18.000  0.00  0.00    +0.000 A 
ATOM      4  C   UNL     1       4.953   5.282  18.405  0.00  0.00    +0.000 A 
ATOM      5  C   UNL     1       4.220   4.442  17.565  0.00  0.00    +0.000 A 
ATOM      6  C   UNL     1       4.728   4.075  16.315  0.00  0.00    +0.000 A 
ENDROOT
BRANCH   1   7
ATOM      7  C   UNL     1       6.578   4.120  14.579  0.00  0.00    +0.000 C 
BRANCH   7   8
ATOM      8  C   UNL     1       5.472   3.831  13.563  0.00  0.00    +0.000 C 
BRANCH   8  10
ATOM      9  O   UNL     1       7.149   3.483  11.848  0.00  0.00    +0.000 OA
ATOM     10  C   UNL     1       6.018   3.305  12.264  0.00  0.00    +0.000 C 
BRANCH  10  11
ATOM     11  O   UNL     1       5.097   2.581  11.582  0.00  0.00    +0.000 OA
ATOM     12  H   UNL     1       4.191   2.661  11.937  0.00  0.00    +0.000 HD
ENDBRANCH  10  11
ENDBRANCH   8  10
ENDBRANCH   7   8
ENDBRANCH   1   7
BRANCH   4  13
ATOM     13  O   UNL     1       4.363   5.598  19.597  0.00  0.00    +0.000 OA
BRANCH  13  14
ATOM     14  C   UNL     1       2.937   5.488  19.613  0.00  0.00    +0.000 C 
BRANCH  14  15
ATOM     15  C   UNL     1       2.339   6.862  19.465  0.00  0.00    +0.000 A 
ATOM     16  C   UNL     1       1.718   7.496  20.547  0.00  0.00    +0.000 A 
ATOM     17  C   UNL     1       1.181   8.776  20.399  0.00  0.00    +0.000 A 
ATOM     18  C   UNL     1       1.274   9.426  19.170  0.00  0.00    +0.000 A 
ATOM     19 BR   UNL     1       0.526  11.150  18.964  0.00  0.00    +0.000 Br
ATOM     20  C   UNL     1       1.906   8.815  18.090  0.00  0.00    +0.000 A 
ATOM     21  C   UNL     1       2.441   7.538  18.239  0.00  0.00    +0.000 A 
ENDBRANCH  14  15
ENDBRANCH  13  14
ENDBRANCH   4  13
TORSDOF 7
ENDMDL
