MODEL 1
REMARK VINA RESULT:      -7.1      0.000      0.000
REMARK  Name = 
REMARK  7 active torsions:
REMARK  status: ('A' for Active; 'I' for Inactive)
REMARK    1  A    between atoms: C_1  and  C_2
REMARK    2  A    between atoms: C_4  and  N_5
REMARK    3  A    between atoms: N_8  and  C_9
REMARK    4  A    between atoms: C_9  and  C_10
REMARK    5  A    between atoms: C_15  and  O_16
REMARK    6  A    between atoms: O_16  and  C_17
REMARK    7  A    between atoms: N_20  and  C_21
REMARK                            x       y       z     vdW  Elec       q    Type
REMARK                         _______ _______ _______ _____ _____    ______ ____
ROOT
ATOM      1  N   UNL     1       6.375   4.478  18.128  0.00  0.00    +0.000 N 
ATOM      2  C   UNL     1       5.608   4.082  19.268  0.00  0.00    +0.000 C 
ATOM      3  O   UNL     1       5.135   4.881  20.056  0.00  0.00    +0.000 OA
ATOM      4  N   UNL     1       5.477   2.726  19.310  0.00  0.00    +0.000 N 
ATOM      5  H   UNL     1       6.648   3.772  17.466  0.00  0.00    +0.000 HD
ATOM      6  H   UNL     1       5.956   2.128  18.660  0.00  0.00    +0.000 HD
ENDROOT
BRANCH   1  10
ATOM      7  C   UNL     1       8.557   8.989  18.114  0.00  0.00    +0.000 C 
ATOM      8  C   UNL     1       7.693   7.815  17.836  0.00  0.00    +0.000 A 
ATOM      9  C   UNL     1       7.668   6.574  18.510  0.00  0.00    +0.000 A 
ATOM     10  C   UNL     1       6.732   5.803  17.860  0.00  0.00    +0.000 A 
ATOM     11  N   UNL     1       6.233   6.625  16.869  0.00  0.00    +0.000 N 
ATOM     12  C   UNL     1       5.200   6.362  15.894  0.00  0.00    +0.000 C 
ATOM     13  N   UNL     1       6.811   7.842  16.834  0.00  0.00    +0.000 NA
ENDBRANCH   1  10
BRANCH   4  14
ATOM     14  C   UNL     1       4.573   2.070  20.253  0.00  0.00    +0.000 C 
BRANCH  14  15
ATOM     15  C   UNL     1       3.135   2.554  20.156  0.00  0.00    +0.000 A 
ATOM     16  C   UNL     1       2.413   2.820  21.347  0.00  0.00    +0.000 A 
ATOM     17  C   UNL     1       1.072   3.206  21.339  0.00  0.00    +0.000 A 
ATOM     18  C   UNL     1       0.405   3.346  20.135  0.00  0.00    +0.000 A 
ATOM     19  C   UNL     1       1.083   3.093  18.948  0.00  0.00    +0.000 A 
ATOM     20  C   UNL     1       2.438   2.704  18.939  0.00  0.00    +0.000 A 
BRANCH  20  21
ATOM     21  O   UNL     1       2.853   2.373  17.680  0.00  0.00    +0.000 OA
BRANCH  21  22
ATOM     22  C   UNL     1       3.102   3.378  16.712  0.00  0.00    +0.000 C 
ATOM     23  F   UNL     1       2.992   4.618  17.243  0.00  0.00    +0.000 F 
ATOM     24  F   UNL     1       4.371   3.226  16.268  0.00  0.00    +0.000 F 
ENDBRANCH  21  22
ENDBRANCH  20  21
ENDBRANCH  14  15
ENDBRANCH   4  14
TORSDOF 5
ENDMDL
MODEL 2
REMARK VINA RESULT:      -6.8      4.361      6.214
REMARK  Name = 
REMARK  7 active torsions:
REMARK  status: ('A' for Active; 'I' for Inactive)
REMARK    1  A    between atoms: C_1  and  C_2
REMARK    2  A    between atoms: C_4  and  N_5
REMARK    3  A    between atoms: N_8  and  C_9
REMARK    4  A    between atoms: C_9  and  C_10
REMARK    5  A    between atoms: C_15  and  O_16
REMARK    6  A    between atoms: O_16  and  C_17
REMARK    7  A    between atoms: N_20  and  C_21
REMARK                            x       y       z     vdW  Elec       q    Type
REMARK                         _______ _______ _______ _____ _____    ______ ____
ROOT
ATOM      1  N   UNL     1       2.892   7.358  19.920  0.00  0.00    +0.000 N 
ATOM      2  C   UNL     1       2.764   6.053  19.348  0.00  0.00    +0.000 C 
ATOM      3  O   UNL     1       1.686   5.539  19.110  0.00  0.00    +0.000 OA
ATOM      4  N   UNL     1       3.992   5.518  19.098  0.00  0.00    +0.000 N 
ATOM      5  H   UNL     1       3.810   7.760  19.995  0.00  0.00    +0.000 HD
ATOM      6  H   UNL     1       4.838   5.976  19.387  0.00  0.00    +0.000 HD
ENDROOT
BRANCH   1  10
ATOM      7  C   UNL     1      -0.712   9.558  22.618  0.00  0.00    +0.000 C 
ATOM      8  C   UNL     1       0.195   9.116  21.530  0.00  0.00    +0.000 A 
ATOM      9  C   UNL     1       1.222   8.149  21.593  0.00  0.00    +0.000 A 
ATOM     10  C   UNL     1       1.802   8.124  20.345  0.00  0.00    +0.000 A 
ATOM     11  N   UNL     1       1.079   9.039  19.607  0.00  0.00    +0.000 N 
ATOM     12  C   UNL     1       1.216   9.411  18.218  0.00  0.00    +0.000 C 
ATOM     13  N   UNL     1       0.109   9.656  20.311  0.00  0.00    +0.000 NA
ENDBRANCH   1  10
BRANCH   4  14
ATOM     14  C   UNL     1       4.151   4.284  18.329  0.00  0.00    +0.000 C 
BRANCH  14  15
ATOM     15  C   UNL     1       5.133   4.408  17.175  0.00  0.00    +0.000 A 
ATOM     16  C   UNL     1       4.657   4.289  15.845  0.00  0.00    +0.000 A 
ATOM     17  C   UNL     1       5.505   4.328  14.739  0.00  0.00    +0.000 A 
ATOM     18  C   UNL     1       6.866   4.495  14.923  0.00  0.00    +0.000 A 
ATOM     19  C   UNL     1       7.368   4.615  16.215  0.00  0.00    +0.000 A 
ATOM     20  C   UNL     1       6.523   4.579  17.342  0.00  0.00    +0.000 A 
BRANCH  20  21
ATOM     21  O   UNL     1       7.242   4.572  18.504  0.00  0.00    +0.000 OA
BRANCH  21  22
ATOM     22  C   UNL     1       7.410   5.760  19.259  0.00  0.00    +0.000 C 
ATOM     23  F   UNL     1       8.030   5.518  20.436  0.00  0.00    +0.000 F 
ATOM     24  F   UNL     1       8.187   6.605  18.543  0.00  0.00    +0.000 F 
ENDBRANCH  21  22
ENDBRANCH  20  21
ENDBRANCH  14  15
ENDBRANCH   4  14
TORSDOF 5
ENDMDL
MODEL 3
REMARK VINA RESULT:      -6.8      4.736      6.611
REMARK  Name = 
REMARK  7 active torsions:
REMARK  status: ('A' for Active; 'I' for Inactive)
REMARK    1  A    between atoms: C_1  and  C_2
REMARK    2  A    between atoms: C_4  and  N_5
REMARK    3  A    between atoms: N_8  and  C_9
REMARK    4  A    between atoms: C_9  and  C_10
REMARK    5  A    between atoms: C_15  and  O_16
REMARK    6  A    between atoms: O_16  and  C_17
REMARK    7  A    between atoms: N_20  and  C_21
REMARK                            x       y       z     vdW  Elec       q    Type
REMARK                         _______ _______ _______ _____ _____    ______ ____
ROOT
ATOM      1  N   UNL     1       1.997   8.211  18.976  0.00  0.00    +0.000 N 
ATOM      2  C   UNL     1       2.614   6.937  19.179  0.00  0.00    +0.000 C 
ATOM      3  O   UNL     1       2.534   6.324  20.228  0.00  0.00    +0.000 OA
ATOM      4  N   UNL     1       3.251   6.527  18.046  0.00  0.00    +0.000 N 
ATOM      5  H   UNL     1       2.018   8.612  18.055  0.00  0.00    +0.000 HD
ATOM      6  H   UNL     1       3.331   7.122  17.240  0.00  0.00    +0.000 HD
ENDROOT
BRANCH   1  10
ATOM      7  C   UNL     1      -0.272   9.574  23.231  0.00  0.00    +0.000 C 
ATOM      8  C   UNL     1       0.321   9.541  21.871  0.00  0.00    +0.000 A 
ATOM      9  C   UNL     1       0.879   8.435  21.192  0.00  0.00    +0.000 A 
ATOM     10  C   UNL     1       1.329   8.914  19.984  0.00  0.00    +0.000 A 
ATOM     11  N   UNL     1       0.991  10.252  19.993  0.00  0.00    +0.000 N 
ATOM     12  C   UNL     1       1.188  11.255  18.972  0.00  0.00    +0.000 C 
ATOM     13  N   UNL     1       0.390  10.650  21.131  0.00  0.00    +0.000 NA
ENDBRANCH   1  10
BRANCH   4  14
ATOM     14  C   UNL     1       3.788   5.174  17.912  0.00  0.00    +0.000 C 
BRANCH  14  15
ATOM     15  C   UNL     1       4.905   5.062  16.887  0.00  0.00    +0.000 A 
ATOM     16  C   UNL     1       4.868   4.012  15.935  0.00  0.00    +0.000 A 
ATOM     17  C   UNL     1       5.887   3.808  15.005  0.00  0.00    +0.000 A 
ATOM     18  C   UNL     1       6.983   4.652  14.991  0.00  0.00    +0.000 A 
ATOM     19  C   UNL     1       7.053   5.691  15.911  0.00  0.00    +0.000 A 
ATOM     20  C   UNL     1       6.030   5.913  16.856  0.00  0.00    +0.000 A 
BRANCH  20  21
ATOM     21  O   UNL     1       6.375   6.892  17.744  0.00  0.00    +0.000 OA
BRANCH  21  22
ATOM     22  C   UNL     1       7.625   7.553  17.643  0.00  0.00    +0.000 C 
ATOM     23  F   UNL     1       7.475   8.898  17.622  0.00  0.00    +0.000 F 
ATOM     24  F   UNL     1       8.357   7.232  18.734  0.00  0.00    +0.000 F 
ENDBRANCH  21  22
ENDBRANCH  20  21
ENDBRANCH  14  15
ENDBRANCH   4  14
TORSDOF 5
ENDMDL
MODEL 4
REMARK VINA RESULT:      -6.8      5.610      6.379
REMARK  Name = 
REMARK  7 active torsions:
REMARK  status: ('A' for Active; 'I' for Inactive)
REMARK    1  A    between atoms: C_1  and  C_2
REMARK    2  A    between atoms: C_4  and  N_5
REMARK    3  A    between atoms: N_8  and  C_9
REMARK    4  A    between atoms: C_9  and  C_10
REMARK    5  A    between atoms: C_15  and  O_16
REMARK    6  A    between atoms: O_16  and  C_17
REMARK    7  A    between atoms: N_20  and  C_21
REMARK                            x       y       z     vdW  Elec       q    Type
REMARK                         _______ _______ _______ _____ _____    ______ ____
ROOT
ATOM      1  N   UNL     1       0.892   9.456  19.129  0.00  0.00    +0.000 N 
ATOM      2  C   UNL     1       1.870   8.948  18.217  0.00  0.00    +0.000 C 
ATOM      3  O   UNL     1       2.276   9.585  17.262  0.00  0.00    +0.000 OA
ATOM      4  N   UNL     1       2.274   7.702  18.594  0.00  0.00    +0.000 N 
ATOM      5  H   UNL     1       0.678   8.918  19.951  0.00  0.00    +0.000 HD
ATOM      6  H   UNL     1       1.840   7.214  19.357  0.00  0.00    +0.000 HD
ENDROOT
BRANCH   1  10
ATOM      7  C   UNL     1      -0.393  14.298  19.228  0.00  0.00    +0.000 C 
ATOM      8  C   UNL     1      -0.342  12.835  18.989  0.00  0.00    +0.000 A 
ATOM      9  C   UNL     1       0.591  11.903  19.496  0.00  0.00    +0.000 A 
ATOM     10  C   UNL     1       0.245  10.684  18.960  0.00  0.00    +0.000 A 
ATOM     11  N   UNL     1      -0.878  10.945  18.200  0.00  0.00    +0.000 N 
ATOM     12  C   UNL     1      -1.696  10.036  17.431  0.00  0.00    +0.000 C 
ATOM     13  N   UNL     1      -1.240  12.243  18.199  0.00  0.00    +0.000 NA
ENDBRANCH   1  10
BRANCH   4  14
ATOM     14  C   UNL     1       3.410   7.038  17.958  0.00  0.00    +0.000 C 
BRANCH  14  15
ATOM     15  C   UNL     1       3.218   5.540  17.781  0.00  0.00    +0.000 A 
ATOM     16  C   UNL     1       1.933   4.978  17.989  0.00  0.00    +0.000 A 
ATOM     17  C   UNL     1       1.693   3.606  17.907  0.00  0.00    +0.000 A 
ATOM     18  C   UNL     1       2.733   2.744  17.607  0.00  0.00    +0.000 A 
ATOM     19  C   UNL     1       4.007   3.261  17.398  0.00  0.00    +0.000 A 
ATOM     20  C   UNL     1       4.265   4.645  17.475  0.00  0.00    +0.000 A 
BRANCH  20  21
ATOM     21  O   UNL     1       5.601   4.909  17.376  0.00  0.00    +0.000 OA
BRANCH  21  22
ATOM     22  C   UNL     1       6.182   5.246  16.127  0.00  0.00    +0.000 C 
ATOM     23  F   UNL     1       7.078   4.314  15.728  0.00  0.00    +0.000 F 
ATOM     24  F   UNL     1       5.193   5.295  15.206  0.00  0.00    +0.000 F 
ENDBRANCH  21  22
ENDBRANCH  20  21
ENDBRANCH  14  15
ENDBRANCH   4  14
TORSDOF 5
ENDMDL
MODEL 5
REMARK VINA RESULT:      -6.7      5.698      6.423
REMARK  Name = 
REMARK  7 active torsions:
REMARK  status: ('A' for Active; 'I' for Inactive)
REMARK    1  A    between atoms: C_1  and  C_2
REMARK    2  A    between atoms: C_4  and  N_5
REMARK    3  A    between atoms: N_8  and  C_9
REMARK    4  A    between atoms: C_9  and  C_10
REMARK    5  A    between atoms: C_15  and  O_16
REMARK    6  A    between atoms: O_16  and  C_17
REMARK    7  A    between atoms: N_20  and  C_21
REMARK                            x       y       z     vdW  Elec       q    Type
REMARK                         _______ _______ _______ _____ _____    ______ ____
ROOT
ATOM      1  N   UNL     1       0.839   9.453  19.271  0.00  0.00    +0.000 N 
ATOM      2  C   UNL     1       1.808   8.919  18.365  0.00  0.00    +0.000 C 
ATOM      3  O   UNL     1       2.211   9.532  17.392  0.00  0.00    +0.000 OA
ATOM      4  N   UNL     1       2.208   7.680  18.767  0.00  0.00    +0.000 N 
ATOM      5  H   UNL     1       0.627   8.935  20.106  0.00  0.00    +0.000 HD
ATOM      6  H   UNL     1       1.778   7.212  19.545  0.00  0.00    +0.000 HD
ENDROOT
BRANCH   1  10
ATOM      7  C   UNL     1      -0.420  14.303  19.264  0.00  0.00    +0.000 C 
ATOM      8  C   UNL     1      -0.378  12.834  19.060  0.00  0.00    +0.000 A 
ATOM      9  C   UNL     1       0.554  11.910  19.581  0.00  0.00    +0.000 A 
ATOM     10  C   UNL     1       0.196  10.680  19.078  0.00  0.00    +0.000 A 
ATOM     11  N   UNL     1      -0.932  10.928  18.322  0.00  0.00    +0.000 N 
ATOM     12  C   UNL     1      -1.762  10.006  17.583  0.00  0.00    +0.000 C 
ATOM     13  N   UNL     1      -1.287  12.228  18.292  0.00  0.00    +0.000 NA
ENDBRANCH   1  10
BRANCH   4  14
ATOM     14  C   UNL     1       3.337   6.995  18.139  0.00  0.00    +0.000 C 
BRANCH  14  15
ATOM     15  C   UNL     1       3.110   5.506  17.939  0.00  0.00    +0.000 A 
ATOM     16  C   UNL     1       1.859   4.942  18.296  0.00  0.00    +0.000 A 
ATOM     17  C   UNL     1       1.598   3.575  18.200  0.00  0.00    +0.000 A 
ATOM     18  C   UNL     1       2.581   2.720  17.736  0.00  0.00    +0.000 A 
ATOM     19  C   UNL     1       3.820   3.238  17.377  0.00  0.00    +0.000 A 
ATOM     20  C   UNL     1       4.099   4.617  17.467  0.00  0.00    +0.000 A 
BRANCH  20  21
ATOM     21  O   UNL     1       5.413   4.879  17.200  0.00  0.00    +0.000 OA
BRANCH  21  22
ATOM     22  C   UNL     1       6.403   4.706  18.200  0.00  0.00    +0.000 C 
ATOM     23  F   UNL     1       7.626   4.501  17.659  0.00  0.00    +0.000 F 
ATOM     24  F   UNL     1       6.456   5.839  18.936  0.00  0.00    +0.000 F 
ENDBRANCH  21  22
ENDBRANCH  20  21
ENDBRANCH  14  15
ENDBRANCH   4  14
TORSDOF 5
ENDMDL
MODEL 6
REMARK VINA RESULT:      -6.7      5.442      5.869
REMARK  Name = 
REMARK  7 active torsions:
REMARK  status: ('A' for Active; 'I' for Inactive)
REMARK    1  A    between atoms: C_1  and  C_2
REMARK    2  A    between atoms: C_4  and  N_5
REMARK    3  A    between atoms: N_8  and  C_9
REMARK    4  A    between atoms: C_9  and  C_10
REMARK    5  A    between atoms: C_15  and  O_16
REMARK    6  A    between atoms: O_16  and  C_17
REMARK    7  A    between atoms: N_20  and  C_21
REMARK                            x       y       z     vdW  Elec       q    Type
REMARK                         _______ _______ _______ _____ _____    ______ ____
ROOT
ATOM      1  N   UNL     1       1.329   9.512  18.491  0.00  0.00    +0.000 N 
ATOM      2  C   UNL     1       1.527   8.660  19.622  0.00  0.00    +0.000 C 
ATOM      3  O   UNL     1       1.043   8.890  20.716  0.00  0.00    +0.000 OA
ATOM      4  N   UNL     1       2.289   7.582  19.282  0.00  0.00    +0.000 N 
ATOM      5  H   UNL     1       1.673   9.209  17.596  0.00  0.00    +0.000 HD
ATOM      6  H   UNL     1       2.711   7.498  18.374  0.00  0.00    +0.000 HD
ENDROOT
BRANCH   1  10
ATOM      7  C   UNL     1       0.094  14.345  18.959  0.00  0.00    +0.000 C 
ATOM      8  C   UNL     1       0.076  12.876  18.753  0.00  0.00    +0.000 A 
ATOM      9  C   UNL     1       1.147  11.966  18.888  0.00  0.00    +0.000 A 
ATOM     10  C   UNL     1       0.644  10.730  18.553  0.00  0.00    +0.000 A 
ATOM     11  N   UNL     1      -0.687  10.961  18.271  0.00  0.00    +0.000 N 
ATOM     12  C   UNL     1      -1.720  10.025  17.893  0.00  0.00    +0.000 C 
ATOM     13  N   UNL     1      -1.045  12.256  18.378  0.00  0.00    +0.000 NA
ENDBRANCH   1  10
BRANCH   4  14
ATOM     14  C   UNL     1       2.473   6.453  20.193  0.00  0.00    +0.000 C 
BRANCH  14  15
ATOM     15  C   UNL     1       1.961   5.134  19.638  0.00  0.00    +0.000 A 
ATOM     16  C   UNL     1       1.194   4.283  20.473  0.00  0.00    +0.000 A 
ATOM     17  C   UNL     1       0.743   3.031  20.055  0.00  0.00    +0.000 A 
ATOM     18  C   UNL     1       1.041   2.585  18.780  0.00  0.00    +0.000 A 
ATOM     19  C   UNL     1       1.792   3.393  17.935  0.00  0.00    +0.000 A 
ATOM     20  C   UNL     1       2.253   4.662  18.341  0.00  0.00    +0.000 A 
BRANCH  20  21
ATOM     21  O   UNL     1       3.084   5.213  17.407  0.00  0.00    +0.000 OA
BRANCH  21  22
ATOM     22  C   UNL     1       4.459   4.871  17.370  0.00  0.00    +0.000 C 
ATOM     23  F   UNL     1       4.805   4.086  18.416  0.00  0.00    +0.000 F 
ATOM     24  F   UNL     1       4.685   4.174  16.232  0.00  0.00    +0.000 F 
ENDBRANCH  21  22
ENDBRANCH  20  21
ENDBRANCH  14  15
ENDBRANCH   4  14
TORSDOF 5
ENDMDL
MODEL 7
REMARK VINA RESULT:      -6.7      5.873      7.233
REMARK  Name = 
REMARK  7 active torsions:
REMARK  status: ('A' for Active; 'I' for Inactive)
REMARK    1  A    between atoms: C_1  and  C_2
REMARK    2  A    between atoms: C_4  and  N_5
REMARK    3  A    between atoms: N_8  and  C_9
REMARK    4  A    between atoms: C_9  and  C_10
REMARK    5  A    between atoms: C_15  and  O_16
REMARK    6  A    between atoms: O_16  and  C_17
REMARK    7  A    between atoms: N_20  and  C_21
REMARK                            x       y       z     vdW  Elec       q    Type
REMARK                         _______ _______ _______ _____ _____    ______ ____
ROOT
ATOM      1  N   UNL     1       2.770   5.853  20.361  0.00  0.00    +0.000 N 
ATOM      2  C   UNL     1       2.328   6.984  19.606  0.00  0.00    +0.000 C 
ATOM      3  O   UNL     1       2.335   7.009  18.388  0.00  0.00    +0.000 OA
ATOM      4  N   UNL     1       1.890   7.972  20.436  0.00  0.00    +0.000 N 
ATOM      5  H   UNL     1       2.642   5.863  21.358  0.00  0.00    +0.000 HD
ATOM      6  H   UNL     1       1.981   7.904  21.434  0.00  0.00    +0.000 HD
ENDROOT
BRANCH   1  10
ATOM      7  C   UNL     1       3.565   1.297  18.432  0.00  0.00    +0.000 C 
ATOM      8  C   UNL     1       3.709   2.692  18.917  0.00  0.00    +0.000 A 
ATOM      9  C   UNL     1       2.745   3.488  19.574  0.00  0.00    +0.000 A 
ATOM     10  C   UNL     1       3.336   4.713  19.783  0.00  0.00    +0.000 A 
ATOM     11  N   UNL     1       4.613   4.573  19.277  0.00  0.00    +0.000 N 
ATOM     12  C   UNL     1       5.699   5.525  19.250  0.00  0.00    +0.000 C 
ATOM     13  N   UNL     1       4.852   3.360  18.740  0.00  0.00    +0.000 NA
ENDBRANCH   1  10
BRANCH   4  14
ATOM     14  C   UNL     1       1.197   9.154  19.925  0.00  0.00    +0.000 C 
BRANCH  14  15
ATOM     15  C   UNL     1       0.369   9.876  20.977  0.00  0.00    +0.000 A 
ATOM     16  C   UNL     1       0.269   9.322  22.278  0.00  0.00    +0.000 A 
ATOM     17  C   UNL     1      -0.522   9.893  23.276  0.00  0.00    +0.000 A 
ATOM     18  C   UNL     1      -1.240  11.044  23.008  0.00  0.00    +0.000 A 
ATOM     19  C   UNL     1      -1.166  11.613  21.742  0.00  0.00    +0.000 A 
ATOM     20  C   UNL     1      -0.370  11.051  20.724  0.00  0.00    +0.000 A 
BRANCH  20  21
ATOM     21  O   UNL     1      -0.560  11.690  19.532  0.00  0.00    +0.000 OA
BRANCH  21  22
ATOM     22  C   UNL     1      -1.740  11.477  18.776  0.00  0.00    +0.000 C 
ATOM     23  F   UNL     1      -1.688  12.112  17.583  0.00  0.00    +0.000 F 
ATOM     24  F   UNL     1      -1.851  10.150  18.538  0.00  0.00    +0.000 F 
ENDBRANCH  21  22
ENDBRANCH  20  21
ENDBRANCH  14  15
ENDBRANCH   4  14
TORSDOF 5
ENDMDL
MODEL 8
REMARK VINA RESULT:      -6.7      5.351      6.465
REMARK  Name = 
REMARK  7 active torsions:
REMARK  status: ('A' for Active; 'I' for Inactive)
REMARK    1  A    between atoms: C_1  and  C_2
REMARK    2  A    between atoms: C_4  and  N_5
REMARK    3  A    between atoms: N_8  and  C_9
REMARK    4  A    between atoms: C_9  and  C_10
REMARK    5  A    between atoms: C_15  and  O_16
REMARK    6  A    between atoms: O_16  and  C_17
REMARK    7  A    between atoms: N_20  and  C_21
REMARK                            x       y       z     vdW  Elec       q    Type
REMARK                         _______ _______ _______ _____ _____    ______ ____
ROOT
ATOM      1  N   UNL     1       1.139   9.300  19.418  0.00  0.00    +0.000 N 
ATOM      2  C   UNL     1       1.869   8.680  18.356  0.00  0.00    +0.000 C 
ATOM      3  O   UNL     1       1.819   9.071  17.204  0.00  0.00    +0.000 OA
ATOM      4  N   UNL     1       2.619   7.646  18.831  0.00  0.00    +0.000 N 
ATOM      5  H   UNL     1       1.306   8.989  20.360  0.00  0.00    +0.000 HD
ATOM      6  H   UNL     1       2.554   7.339  19.785  0.00  0.00    +0.000 HD
ENDROOT
BRANCH   1  10
ATOM      7  C   UNL     1      -2.996  12.058  18.787  0.00  0.00    +0.000 C 
ATOM      8  C   UNL     1      -1.597  11.591  18.945  0.00  0.00    +0.000 A 
ATOM      9  C   UNL     1      -1.131  10.262  19.051  0.00  0.00    +0.000 A 
ATOM     10  C   UNL     1       0.232  10.345  19.223  0.00  0.00    +0.000 A 
ATOM     11  N   UNL     1       0.504  11.698  19.178  0.00  0.00    +0.000 N 
ATOM     12  C   UNL     1       1.774  12.381  19.270  0.00  0.00    +0.000 C 
ATOM     13  N   UNL     1      -0.592  12.466  19.020  0.00  0.00    +0.000 NA
ENDBRANCH   1  10
BRANCH   4  14
ATOM     14  C   UNL     1       3.615   6.972  17.998  0.00  0.00    +0.000 C 
BRANCH  14  15
ATOM     15  C   UNL     1       3.315   5.501  17.762  0.00  0.00    +0.000 A 
ATOM     16  C   UNL     1       2.007   5.013  18.006  0.00  0.00    +0.000 A 
ATOM     17  C   UNL     1       1.673   3.665  17.872  0.00  0.00    +0.000 A 
ATOM     18  C   UNL     1       2.638   2.754  17.483  0.00  0.00    +0.000 A 
ATOM     19  C   UNL     1       3.932   3.198  17.236  0.00  0.00    +0.000 A 
ATOM     20  C   UNL     1       4.285   4.556  17.365  0.00  0.00    +0.000 A 
BRANCH  20  21
ATOM     21  O   UNL     1       5.631   4.739  17.213  0.00  0.00    +0.000 OA
BRANCH  21  22
ATOM     22  C   UNL     1       6.192   4.957  15.929  0.00  0.00    +0.000 C 
ATOM     23  F   UNL     1       6.527   3.793  15.328  0.00  0.00    +0.000 F 
ATOM     24  F   UNL     1       5.259   5.569  15.164  0.00  0.00    +0.000 F 
ENDBRANCH  21  22
ENDBRANCH  20  21
ENDBRANCH  14  15
ENDBRANCH   4  14
TORSDOF 5
ENDMDL
MODEL 9
REMARK VINA RESULT:      -6.7      5.615      6.735
REMARK  Name = 
REMARK  7 active torsions:
REMARK  status: ('A' for Active; 'I' for Inactive)
REMARK    1  A    between atoms: C_1  and  C_2
REMARK    2  A    between atoms: C_4  and  N_5
REMARK    3  A    between atoms: N_8  and  C_9
REMARK    4  A    between atoms: C_9  and  C_10
REMARK    5  A    between atoms: C_15  and  O_16
REMARK    6  A    between atoms: O_16  and  C_17
REMARK    7  A    between atoms: N_20  and  C_21
REMARK                            x       y       z     vdW  Elec       q    Type
REMARK                         _______ _______ _______ _____ _____    ______ ____
ROOT
ATOM      1  N   UNL     1       1.157   9.987  17.885  0.00  0.00    +0.000 N 
ATOM      2  C   UNL     1       1.627   8.943  18.742  0.00  0.00    +0.000 C 
ATOM      3  O   UNL     1       1.269   8.827  19.900  0.00  0.00    +0.000 OA
ATOM      4  N   UNL     1       2.481   8.120  18.069  0.00  0.00    +0.000 N 
ATOM      5  H   UNL     1       1.416   9.963  16.914  0.00  0.00    +0.000 HD
ATOM      6  H   UNL     1       2.782   8.322  17.133  0.00  0.00    +0.000 HD
ENDROOT
BRANCH   1  10
ATOM      7  C   UNL     1      -0.678  14.291  19.679  0.00  0.00    +0.000 C 
ATOM      8  C   UNL     1      -0.514  12.931  19.107  0.00  0.00    +0.000 A 
ATOM      9  C   UNL     1       0.683  12.209  18.909  0.00  0.00    +0.000 A 
ATOM     10  C   UNL     1       0.321  11.021  18.317  0.00  0.00    +0.000 A 
ATOM     11  N   UNL     1      -1.055  11.084  18.226  0.00  0.00    +0.000 N 
ATOM     12  C   UNL     1      -1.986  10.104  17.716  0.00  0.00    +0.000 C 
ATOM     13  N   UNL     1      -1.576  12.237  18.690  0.00  0.00    +0.000 NA
ENDBRANCH   1  10
BRANCH   4  14
ATOM     14  C   UNL     1       2.947   6.859  18.645  0.00  0.00    +0.000 C 
BRANCH  14  15
ATOM     15  C   UNL     1       3.819   6.045  17.703  0.00  0.00    +0.000 A 
ATOM     16  C   UNL     1       4.544   6.711  16.682  0.00  0.00    +0.000 A 
ATOM     17  C   UNL     1       5.314   6.026  15.742  0.00  0.00    +0.000 A 
ATOM     18  C   UNL     1       5.391   4.646  15.792  0.00  0.00    +0.000 A 
ATOM     19  C   UNL     1       4.691   3.961  16.779  0.00  0.00    +0.000 A 
ATOM     20  C   UNL     1       3.911   4.638  17.738  0.00  0.00    +0.000 A 
BRANCH  20  21
ATOM     21  O   UNL     1       3.205   3.763  18.515  0.00  0.00    +0.000 OA
BRANCH  21  22
ATOM     22  C   UNL     1       1.938   3.284  18.098  0.00  0.00    +0.000 C 
ATOM     23  F   UNL     1       1.328   4.155  17.261  0.00  0.00    +0.000 F 
ATOM     24  F   UNL     1       2.130   2.125  17.427  0.00  0.00    +0.000 F 
ENDBRANCH  21  22
ENDBRANCH  20  21
ENDBRANCH  14  15
ENDBRANCH   4  14
TORSDOF 5
ENDMDL
