MODEL 1
REMARK VINA RESULT:      -7.3      0.000      0.000
REMARK  Name = 
REMARK  8 active torsions:
REMARK  status: ('A' for Active; 'I' for Inactive)
REMARK    1  A    between atoms: C_1  and  C_2
REMARK    2  A    between atoms: C_3  and  C_4
REMARK    3  A    between atoms: C_12  and  C_13
REMARK    4  A    between atoms: N_15  and  C_16
REMARK    5  A    between atoms: N_15  and  C_17
REMARK    6  A    between atoms: C_18  and  C_19
REMARK    7  A    between atoms: C_22  and  S_23
REMARK    8  A    between atoms: S_23  and  N_24
REMARK                            x       y       z     vdW  Elec       q    Type
REMARK                         _______ _______ _______ _____ _____    ______ ____
ROOT
ATOM      1  C   UNL     1      -0.283   8.659  21.518  0.00  0.00    +0.000 C 
ATOM      2  C   UNL     1       0.246   9.684  20.550  0.00  0.00    +0.000 A 
ATOM      3  C   UNL     1       1.212   9.430  19.580  0.00  0.00    +0.000 A 
ATOM      4  S   UNL     1       1.492  10.815  18.613  0.00  0.00    +0.000 S 
ATOM      5  C   UNL     1       0.525  11.835  19.583  0.00  0.00    +0.000 A 
ATOM      6  C   UNL     1      -0.198  11.083  20.518  0.00  0.00    +0.000 A 
ENDROOT
BRANCH   3   7
ATOM      7  C   UNL     1       1.945   8.181  19.276  0.00  0.00    +0.000 A 
ATOM      8  C   UNL     1       2.626   8.023  18.058  0.00  0.00    +0.000 A 
ATOM      9  C   UNL     1       3.238   6.811  17.721  0.00  0.00    +0.000 A 
ATOM     10  C   UNL     1       3.214   5.751  18.622  0.00  0.00    +0.000 A 
ATOM     11 CL   UNL     1       3.961   4.257  18.207  0.00  0.00    +0.000 Cl
ATOM     12  C   UNL     1       2.586   5.895  19.855  0.00  0.00    +0.000 A 
ATOM     13  C   UNL     1       1.947   7.099  20.174  0.00  0.00    +0.000 A 
ENDBRANCH   3   7
BRANCH   6  14
ATOM     14  C   UNL     1      -1.270  11.662  21.359  0.00  0.00    +0.000 A 
ATOM     15  C   UNL     1      -2.440  12.168  20.761  0.00  0.00    +0.000 A 
ATOM     16  C   UNL     1      -3.492  12.672  21.532  0.00  0.00    +0.000 A 
ATOM     17  C   UNL     1      -3.355  12.718  22.917  0.00  0.00    +0.000 A 
ATOM     18  C   UNL     1      -2.182  12.288  23.531  0.00  0.00    +0.000 A 
ATOM     19  C   UNL     1      -1.165  11.724  22.756  0.00  0.00    +0.000 A 
BRANCH  17  20
ATOM     20  S   UNL     1      -4.696  13.266  23.911  0.00  0.00    +0.000 S 
ATOM     21  O   UNL     1      -5.479  14.241  23.189  0.00  0.00    +0.000 OA
ATOM     22  O   UNL     1      -5.291  12.145  24.602  0.00  0.00    +0.000 OA
BRANCH  20  23
ATOM     23  N   UNL     1      -3.856  14.127  25.087  0.00  0.00    +0.000 NA
ATOM     24  H   UNL     1      -3.879  13.632  25.977  0.00  0.00    +0.000 HD
ATOM     25  H   UNL     1      -2.923  14.374  24.754  0.00  0.00    +0.000 HD
ENDBRANCH  20  23
ENDBRANCH  17  20
ENDBRANCH   6  14
BRANCH   5  26
ATOM     26  C   UNL     1       0.347  13.249  19.229  0.00  0.00    +0.000 C 
ATOM     27  O   UNL     1      -0.351  13.553  18.259  0.00  0.00    +0.000 OA
ATOM     28  N   UNL     1       0.869  14.294  20.019  0.00  0.00    +0.000 N 
ATOM     29  C   UNL     1       1.880  14.211  21.072  0.00  0.00    +0.000 C 
ATOM     30  C   UNL     1       0.427  15.654  19.746  0.00  0.00    +0.000 C 
ENDBRANCH   5  26
TORSDOF 5
ENDMDL
MODEL 2
REMARK VINA RESULT:      -7.2      0.720      1.237
REMARK  Name = 
REMARK  8 active torsions:
REMARK  status: ('A' for Active; 'I' for Inactive)
REMARK    1  A    between atoms: C_1  and  C_2
REMARK    2  A    between atoms: C_3  and  C_4
REMARK    3  A    between atoms: C_12  and  C_13
REMARK    4  A    between atoms: N_15  and  C_16
REMARK    5  A    between atoms: N_15  and  C_17
REMARK    6  A    between atoms: C_18  and  C_19
REMARK    7  A    between atoms: C_22  and  S_23
REMARK    8  A    between atoms: S_23  and  N_24
REMARK                            x       y       z     vdW  Elec       q    Type
REMARK                         _______ _______ _______ _____ _____    ______ ____
ROOT
ATOM      1  C   UNL     1      -0.231   8.714  21.570  0.00  0.00    +0.000 C 
ATOM      2  C   UNL     1       0.308   9.644  20.516  0.00  0.00    +0.000 A 
ATOM      3  C   UNL     1       1.228   9.279  19.537  0.00  0.00    +0.000 A 
ATOM      4  S   UNL     1       1.535  10.579  18.465  0.00  0.00    +0.000 S 
ATOM      5  C   UNL     1       0.646  11.707  19.389  0.00  0.00    +0.000 A 
ATOM      6  C   UNL     1      -0.076  11.055  20.398  0.00  0.00    +0.000 A 
ENDROOT
BRANCH   3   7
ATOM      7  C   UNL     1       1.897   7.980  19.300  0.00  0.00    +0.000 A 
ATOM      8  C   UNL     1       1.895   6.978  20.285  0.00  0.00    +0.000 A 
ATOM      9  C   UNL     1       2.607   5.786  20.108  0.00  0.00    +0.000 A 
ATOM     10  C   UNL     1       3.296   5.563  18.920  0.00  0.00    +0.000 A 
ATOM     11 CL   UNL     1       4.177   4.102  18.703  0.00  0.00    +0.000 Cl
ATOM     12  C   UNL     1       3.276   6.520  17.910  0.00  0.00    +0.000 A 
ATOM     13  C   UNL     1       2.589   7.724  18.104  0.00  0.00    +0.000 A 
ENDBRANCH   3   7
BRANCH   6  14
ATOM     14  C   UNL     1      -1.093  11.740  21.228  0.00  0.00    +0.000 A 
ATOM     15  C   UNL     1      -2.359  12.040  20.689  0.00  0.00    +0.000 A 
ATOM     16  C   UNL     1      -3.357  12.636  21.465  0.00  0.00    +0.000 A 
ATOM     17  C   UNL     1      -3.073  12.986  22.782  0.00  0.00    +0.000 A 
ATOM     18  C   UNL     1      -1.809  12.764  23.321  0.00  0.00    +0.000 A 
ATOM     19  C   UNL     1      -0.840  12.105  22.558  0.00  0.00    +0.000 A 
BRANCH  17  20
ATOM     20  S   UNL     1      -4.337  13.658  23.801  0.00  0.00    +0.000 S 
ATOM     21  O   UNL     1      -3.777  14.644  24.694  0.00  0.00    +0.000 OA
ATOM     22  O   UNL     1      -5.527  13.900  23.019  0.00  0.00    +0.000 OA
BRANCH  20  23
ATOM     23  N   UNL     1      -4.689  12.317  24.754  0.00  0.00    +0.000 NA
ATOM     24  H   UNL     1      -5.642  12.371  25.109  0.00  0.00    +0.000 HD
ATOM     25  H   UNL     1      -4.461  11.454  24.259  0.00  0.00    +0.000 HD
ENDBRANCH  20  23
ENDBRANCH  17  20
ENDBRANCH   6  14
BRANCH   5  26
ATOM     26  C   UNL     1       0.517  13.099  18.941  0.00  0.00    +0.000 C 
ATOM     27  O   UNL     1      -0.359  13.401  18.128  0.00  0.00    +0.000 OA
ATOM     28  N   UNL     1       1.302  14.139  19.482  0.00  0.00    +0.000 N 
ATOM     29  C   UNL     1       2.520  14.028  20.282  0.00  0.00    +0.000 C 
ATOM     30  C   UNL     1       0.931  15.514  19.177  0.00  0.00    +0.000 C 
ENDBRANCH   5  26
TORSDOF 5
ENDMDL
MODEL 3
REMARK VINA RESULT:      -7.2      5.873     10.188
REMARK  Name = 
REMARK  8 active torsions:
REMARK  status: ('A' for Active; 'I' for Inactive)
REMARK    1  A    between atoms: C_1  and  C_2
REMARK    2  A    between atoms: C_3  and  C_4
REMARK    3  A    between atoms: C_12  and  C_13
REMARK    4  A    between atoms: N_15  and  C_16
REMARK    5  A    between atoms: N_15  and  C_17
REMARK    6  A    between atoms: C_18  and  C_19
REMARK    7  A    between atoms: C_22  and  S_23
REMARK    8  A    between atoms: S_23  and  N_24
REMARK                            x       y       z     vdW  Elec       q    Type
REMARK                         _______ _______ _______ _____ _____    ______ ____
ROOT
ATOM      1  C   UNL     1       2.634   9.362  18.191  0.00  0.00    +0.000 C 
ATOM      2  C   UNL     1       2.039   8.359  19.144  0.00  0.00    +0.000 A 
ATOM      3  C   UNL     1       0.948   8.610  19.973  0.00  0.00    +0.000 A 
ATOM      4  S   UNL     1       0.503   7.206  20.847  0.00  0.00    +0.000 S 
ATOM      5  C   UNL     1       1.862   6.309  20.329  0.00  0.00    +0.000 A 
ATOM      6  C   UNL     1       2.543   6.992  19.313  0.00  0.00    +0.000 A 
ENDROOT
BRANCH   3   7
ATOM      7  C   UNL     1       0.153   9.846  20.148  0.00  0.00    +0.000 A 
ATOM      8  C   UNL     1       0.287  10.632  21.304  0.00  0.00    +0.000 A 
ATOM      9  C   UNL     1      -0.530  11.747  21.522  0.00  0.00    +0.000 A 
ATOM     10  C   UNL     1      -1.465  12.117  20.560  0.00  0.00    +0.000 A 
ATOM     11 CL   UNL     1      -2.476  13.483  20.828  0.00  0.00    +0.000 Cl
ATOM     12  C   UNL     1      -1.586  11.382  19.384  0.00  0.00    +0.000 A 
ATOM     13  C   UNL     1      -0.789  10.249  19.186  0.00  0.00    +0.000 A 
ENDBRANCH   3   7
BRANCH   6  14
ATOM     14  C   UNL     1       3.638   6.378  18.527  0.00  0.00    +0.000 A 
ATOM     15  C   UNL     1       3.725   6.607  17.140  0.00  0.00    +0.000 A 
ATOM     16  C   UNL     1       4.777   6.085  16.382  0.00  0.00    +0.000 A 
ATOM     17  C   UNL     1       5.728   5.282  17.005  0.00  0.00    +0.000 A 
ATOM     18  C   UNL     1       5.629   4.982  18.361  0.00  0.00    +0.000 A 
ATOM     19  C   UNL     1       4.612   5.564  19.123  0.00  0.00    +0.000 A 
BRANCH  17  20
ATOM     20  S   UNL     1       7.105   4.686  16.091  0.00  0.00    +0.000 S 
ATOM     21  O   UNL     1       7.419   5.602  15.020  0.00  0.00    +0.000 OA
ATOM     22  O   UNL     1       8.109   4.166  16.991  0.00  0.00    +0.000 OA
BRANCH  20  23
ATOM     23  N   UNL     1       6.412   3.338  15.361  0.00  0.00    +0.000 NA
ATOM     24  H   UNL     1       6.655   2.491  15.871  0.00  0.00    +0.000 HD
ATOM     25  H   UNL     1       5.412   3.483  15.215  0.00  0.00    +0.000 HD
ENDBRANCH  20  23
ENDBRANCH  17  20
ENDBRANCH   6  14
BRANCH   5  26
ATOM     26  C   UNL     1       2.045   4.919  20.764  0.00  0.00    +0.000 C 
ATOM     27  O   UNL     1       2.527   4.685  21.874  0.00  0.00    +0.000 OA
ATOM     28  N   UNL     1       1.598   3.825  19.995  0.00  0.00    +0.000 N 
ATOM     29  C   UNL     1       1.195   3.814  18.590  0.00  0.00    +0.000 C 
ATOM     30  C   UNL     1       1.581   2.506  20.613  0.00  0.00    +0.000 C 
ENDBRANCH   5  26
TORSDOF 5
ENDMDL
MODEL 4
REMARK VINA RESULT:      -7.2      0.797      1.046
REMARK  Name = 
REMARK  8 active torsions:
REMARK  status: ('A' for Active; 'I' for Inactive)
REMARK    1  A    between atoms: C_1  and  C_2
REMARK    2  A    between atoms: C_3  and  C_4
REMARK    3  A    between atoms: C_12  and  C_13
REMARK    4  A    between atoms: N_15  and  C_16
REMARK    5  A    between atoms: N_15  and  C_17
REMARK    6  A    between atoms: C_18  and  C_19
REMARK    7  A    between atoms: C_22  and  S_23
REMARK    8  A    between atoms: S_23  and  N_24
REMARK                            x       y       z     vdW  Elec       q    Type
REMARK                         _______ _______ _______ _____ _____    ______ ____
ROOT
ATOM      1  C   UNL     1      -0.017   8.539  21.348  0.00  0.00    +0.000 C 
ATOM      2  C   UNL     1       0.483   9.535  20.336  0.00  0.00    +0.000 A 
ATOM      3  C   UNL     1       1.428   9.255  19.352  0.00  0.00    +0.000 A 
ATOM      4  S   UNL     1       1.677  10.608  18.334  0.00  0.00    +0.000 S 
ATOM      5  C   UNL     1       0.726  11.654  19.292  0.00  0.00    +0.000 A 
ATOM      6  C   UNL     1       0.030  10.929  20.269  0.00  0.00    +0.000 A 
ENDROOT
BRANCH   3   7
ATOM      7  C   UNL     1       2.162   8.000  19.072  0.00  0.00    +0.000 A 
ATOM      8  C   UNL     1       2.872   7.833  17.871  0.00  0.00    +0.000 A 
ATOM      9  C   UNL     1       3.486   6.616  17.555  0.00  0.00    +0.000 A 
ATOM     10  C   UNL     1       3.434   5.561  18.460  0.00  0.00    +0.000 A 
ATOM     11 CL   UNL     1       4.182   4.061  18.071  0.00  0.00    +0.000 Cl
ATOM     12  C   UNL     1       2.776   5.714  19.676  0.00  0.00    +0.000 A 
ATOM     13  C   UNL     1       2.136   6.923  19.974  0.00  0.00    +0.000 A 
ENDBRANCH   3   7
BRANCH   6  14
ATOM     14  C   UNL     1      -1.026  11.530  21.115  0.00  0.00    +0.000 A 
ATOM     15  C   UNL     1      -2.231  11.970  20.533  0.00  0.00    +0.000 A 
ATOM     16  C   UNL     1      -3.268  12.491  21.314  0.00  0.00    +0.000 A 
ATOM     17  C   UNL     1      -3.081  12.623  22.687  0.00  0.00    +0.000 A 
ATOM     18  C   UNL     1      -1.874  12.260  23.280  0.00  0.00    +0.000 A 
ATOM     19  C   UNL     1      -0.871  11.677  22.501  0.00  0.00    +0.000 A 
BRANCH  17  20
ATOM     20  S   UNL     1      -4.398  13.194  23.699  0.00  0.00    +0.000 S 
ATOM     21  O   UNL     1      -4.390  12.494  24.961  0.00  0.00    +0.000 OA
ATOM     22  O   UNL     1      -4.507  14.632  23.605  0.00  0.00    +0.000 OA
BRANCH  20  23
ATOM     23  N   UNL     1      -5.712  12.586  22.841  0.00  0.00    +0.000 NA
ATOM     24  H   UNL     1      -6.136  13.316  22.271  0.00  0.00    +0.000 HD
ATOM     25  H   UNL     1      -5.449  11.740  22.335  0.00  0.00    +0.000 HD
ENDBRANCH  20  23
ENDBRANCH  17  20
ENDBRANCH   6  14
BRANCH   5  26
ATOM     26  C   UNL     1       0.531  13.055  18.897  0.00  0.00    +0.000 C 
ATOM     27  O   UNL     1      -0.336  13.341  18.069  0.00  0.00    +0.000 OA
ATOM     28  N   UNL     1       1.238  14.114  19.504  0.00  0.00    +0.000 N 
ATOM     29  C   UNL     1       2.436  14.038  20.338  0.00  0.00    +0.000 C 
ATOM     30  C   UNL     1       0.799  15.477  19.242  0.00  0.00    +0.000 C 
ENDBRANCH   5  26
TORSDOF 5
ENDMDL
MODEL 5
REMARK VINA RESULT:      -7.1      5.888     10.184
REMARK  Name = 
REMARK  8 active torsions:
REMARK  status: ('A' for Active; 'I' for Inactive)
REMARK    1  A    between atoms: C_1  and  C_2
REMARK    2  A    between atoms: C_3  and  C_4
REMARK    3  A    between atoms: C_12  and  C_13
REMARK    4  A    between atoms: N_15  and  C_16
REMARK    5  A    between atoms: N_15  and  C_17
REMARK    6  A    between atoms: C_18  and  C_19
REMARK    7  A    between atoms: C_22  and  S_23
REMARK    8  A    between atoms: S_23  and  N_24
REMARK                            x       y       z     vdW  Elec       q    Type
REMARK                         _______ _______ _______ _____ _____    ______ ____
ROOT
ATOM      1  C   UNL     1       2.549   9.449  18.410  0.00  0.00    +0.000 C 
ATOM      2  C   UNL     1       1.969   8.365  19.278  0.00  0.00    +0.000 A 
ATOM      3  C   UNL     1       0.849   8.519  20.091  0.00  0.00    +0.000 A 
ATOM      4  S   UNL     1       0.436   7.045  20.857  0.00  0.00    +0.000 S 
ATOM      5  C   UNL     1       1.841   6.235  20.320  0.00  0.00    +0.000 A 
ATOM      6  C   UNL     1       2.521   7.008  19.370  0.00  0.00    +0.000 A 
ENDROOT
BRANCH   3   7
ATOM      7  C   UNL     1       0.002   9.711  20.324  0.00  0.00    +0.000 A 
ATOM      8  C   UNL     1      -0.778  10.255  19.290  0.00  0.00    +0.000 A 
ATOM      9  C   UNL     1      -1.503  11.437  19.474  0.00  0.00    +0.000 A 
ATOM     10  C   UNL     1      -1.492  12.069  20.713  0.00  0.00    +0.000 A 
ATOM     11 CL   UNL     1      -2.378  13.526  20.940  0.00  0.00    +0.000 Cl
ATOM     12  C   UNL     1      -0.764  11.526  21.768  0.00  0.00    +0.000 A 
ATOM     13  C   UNL     1      -0.014  10.361  21.570  0.00  0.00    +0.000 A 
ENDBRANCH   3   7
BRANCH   6  14
ATOM     14  C   UNL     1       3.658   6.489  18.577  0.00  0.00    +0.000 A 
ATOM     15  C   UNL     1       4.725   5.831  19.219  0.00  0.00    +0.000 A 
ATOM     16  C   UNL     1       5.785   5.283  18.490  0.00  0.00    +0.000 A 
ATOM     17  C   UNL     1       5.808   5.437  17.107  0.00  0.00    +0.000 A 
ATOM     18  C   UNL     1       4.802   6.143  16.452  0.00  0.00    +0.000 A 
ATOM     19  C   UNL     1       3.713   6.627  17.182  0.00  0.00    +0.000 A 
BRANCH  17  20
ATOM     20  S   UNL     1       7.084   4.684  16.163  0.00  0.00    +0.000 S 
ATOM     21  O   UNL     1       7.395   5.501  15.014  0.00  0.00    +0.000 OA
ATOM     22  O   UNL     1       8.101   4.154  17.041  0.00  0.00    +0.000 OA
BRANCH  20  23
ATOM     23  N   UNL     1       6.257   3.344  15.569  0.00  0.00    +0.000 NA
ATOM     24  H   UNL     1       5.482   3.636  14.977  0.00  0.00    +0.000 HD
ATOM     25  H   UNL     1       6.906   2.684  15.138  0.00  0.00    +0.000 HD
ENDBRANCH  20  23
ENDBRANCH  17  20
ENDBRANCH   6  14
BRANCH   5  26
ATOM     26  C   UNL     1       2.066   4.826  20.667  0.00  0.00    +0.000 C 
ATOM     27  O   UNL     1       2.531   4.536  21.772  0.00  0.00    +0.000 OA
ATOM     28  N   UNL     1       1.678   3.770  19.817  0.00  0.00    +0.000 N 
ATOM     29  C   UNL     1       1.308   3.838  18.404  0.00  0.00    +0.000 C 
ATOM     30  C   UNL     1       1.697   2.414  20.347  0.00  0.00    +0.000 C 
ENDBRANCH   5  26
TORSDOF 5
ENDMDL
MODEL 6
REMARK VINA RESULT:      -7.1      1.019      1.156
REMARK  Name = 
REMARK  8 active torsions:
REMARK  status: ('A' for Active; 'I' for Inactive)
REMARK    1  A    between atoms: C_1  and  C_2
REMARK    2  A    between atoms: C_3  and  C_4
REMARK    3  A    between atoms: C_12  and  C_13
REMARK    4  A    between atoms: N_15  and  C_16
REMARK    5  A    between atoms: N_15  and  C_17
REMARK    6  A    between atoms: C_18  and  C_19
REMARK    7  A    between atoms: C_22  and  S_23
REMARK    8  A    between atoms: S_23  and  N_24
REMARK                            x       y       z     vdW  Elec       q    Type
REMARK                         _______ _______ _______ _____ _____    ______ ____
ROOT
ATOM      1  C   UNL     1      -0.130   9.033  22.068  0.00  0.00    +0.000 C 
ATOM      2  C   UNL     1       0.276   9.830  20.857  0.00  0.00    +0.000 A 
ATOM      3  C   UNL     1       1.063   9.340  19.817  0.00  0.00    +0.000 A 
ATOM      4  S   UNL     1       1.239  10.507  18.576  0.00  0.00    +0.000 S 
ATOM      5  C   UNL     1       0.481  11.748  19.472  0.00  0.00    +0.000 A 
ATOM      6  C   UNL     1      -0.111  11.227  20.631  0.00  0.00    +0.000 A 
ENDROOT
BRANCH   3   7
ATOM      7  C   UNL     1       1.687   8.009  19.645  0.00  0.00    +0.000 A 
ATOM      8  C   UNL     1       2.429   7.704  18.492  0.00  0.00    +0.000 A 
ATOM      9  C   UNL     1       2.939   6.420  18.276  0.00  0.00    +0.000 A 
ATOM     10  C   UNL     1       2.751   5.431  19.237  0.00  0.00    +0.000 A 
ATOM     11 CL   UNL     1       3.371   3.849  18.972  0.00  0.00    +0.000 Cl
ATOM     12  C   UNL     1       2.060   5.719  20.410  0.00  0.00    +0.000 A 
ATOM     13  C   UNL     1       1.523   6.997  20.607  0.00  0.00    +0.000 A 
ENDBRANCH   3   7
BRANCH   6  14
ATOM     14  C   UNL     1      -1.010  12.019  21.499  0.00  0.00    +0.000 A 
ATOM     15  C   UNL     1      -2.404  11.966  21.309  0.00  0.00    +0.000 A 
ATOM     16  C   UNL     1      -3.280  12.660  22.148  0.00  0.00    +0.000 A 
ATOM     17  C   UNL     1      -2.758  13.461  23.160  0.00  0.00    +0.000 A 
ATOM     18  C   UNL     1      -1.381  13.588  23.329  0.00  0.00    +0.000 A 
ATOM     19  C   UNL     1      -0.517  12.836  22.528  0.00  0.00    +0.000 A 
BRANCH  17  20
ATOM     20  S   UNL     1      -3.839  14.274  24.280  0.00  0.00    +0.000 S 
ATOM     21  O   UNL     1      -3.080  14.878  25.348  0.00  0.00    +0.000 OA
ATOM     22  O   UNL     1      -4.862  14.988  23.550  0.00  0.00    +0.000 OA
BRANCH  20  23
ATOM     23  N   UNL     1      -4.615  12.944  24.957  0.00  0.00    +0.000 NA
ATOM     24  H   UNL     1      -5.087  12.400  24.237  0.00  0.00    +0.000 HD
ATOM     25  H   UNL     1      -3.972  12.414  25.546  0.00  0.00    +0.000 HD
ENDBRANCH  20  23
ENDBRANCH  17  20
ENDBRANCH   6  14
BRANCH   5  26
ATOM     26  C   UNL     1       0.305  13.085  18.890  0.00  0.00    +0.000 C 
ATOM     27  O   UNL     1      -0.567  13.270  18.039  0.00  0.00    +0.000 OA
ATOM     28  N   UNL     1       1.036  14.204  19.340  0.00  0.00    +0.000 N 
ATOM     29  C   UNL     1       2.242  14.221  20.167  0.00  0.00    +0.000 C 
ATOM     30  C   UNL     1       0.616  15.526  18.899  0.00  0.00    +0.000 C 
ENDBRANCH   5  26
TORSDOF 5
ENDMDL
MODEL 7
REMARK VINA RESULT:      -7.1      0.629      1.181
REMARK  Name = 
REMARK  8 active torsions:
REMARK  status: ('A' for Active; 'I' for Inactive)
REMARK    1  A    between atoms: C_1  and  C_2
REMARK    2  A    between atoms: C_3  and  C_4
REMARK    3  A    between atoms: C_12  and  C_13
REMARK    4  A    between atoms: N_15  and  C_16
REMARK    5  A    between atoms: N_15  and  C_17
REMARK    6  A    between atoms: C_18  and  C_19
REMARK    7  A    between atoms: C_22  and  S_23
REMARK    8  A    between atoms: S_23  and  N_24
REMARK                            x       y       z     vdW  Elec       q    Type
REMARK                         _______ _______ _______ _____ _____    ______ ____
ROOT
ATOM      1  C   UNL     1      -0.403   8.683  21.575  0.00  0.00    +0.000 C 
ATOM      2  C   UNL     1       0.154   9.661  20.574  0.00  0.00    +0.000 A 
ATOM      3  C   UNL     1       1.124   9.351  19.624  0.00  0.00    +0.000 A 
ATOM      4  S   UNL     1       1.439  10.692  18.606  0.00  0.00    +0.000 S 
ATOM      5  C   UNL     1       0.483  11.767  19.527  0.00  0.00    +0.000 A 
ATOM      6  C   UNL     1      -0.262  11.065  20.484  0.00  0.00    +0.000 A 
ENDROOT
BRANCH   3   7
ATOM      7  C   UNL     1       1.836   8.078  19.374  0.00  0.00    +0.000 A 
ATOM      8  C   UNL     1       2.504   7.851  18.160  0.00  0.00    +0.000 A 
ATOM      9  C   UNL     1       3.095   6.615  17.877  0.00  0.00    +0.000 A 
ATOM     10  C   UNL     1       3.063   5.600  18.828  0.00  0.00    +0.000 A 
ATOM     11 CL   UNL     1       3.783   4.077  18.481  0.00  0.00    +0.000 Cl
ATOM     12  C   UNL     1       2.447   5.813  20.058  0.00  0.00    +0.000 A 
ATOM     13  C   UNL     1       1.829   7.041  20.324  0.00  0.00    +0.000 A 
ENDBRANCH   3   7
BRANCH   6  14
ATOM     14  C   UNL     1      -1.330  11.696  21.292  0.00  0.00    +0.000 A 
ATOM     15  C   UNL     1      -1.157  11.871  22.678  0.00  0.00    +0.000 A 
ATOM     16  C   UNL     1      -2.125  12.512  23.457  0.00  0.00    +0.000 A 
ATOM     17  C   UNL     1      -3.305  12.940  22.855  0.00  0.00    +0.000 A 
ATOM     18  C   UNL     1      -3.533  12.719  21.499  0.00  0.00    +0.000 A 
ATOM     19  C   UNL     1      -2.531  12.139  20.717  0.00  0.00    +0.000 A 
BRANCH  17  20
ATOM     20  S   UNL     1      -4.497  13.824  23.795  0.00  0.00    +0.000 S 
ATOM     21  O   UNL     1      -3.855  14.886  24.531  0.00  0.00    +0.000 OA
ATOM     22  O   UNL     1      -5.692  14.031  23.010  0.00  0.00    +0.000 OA
BRANCH  20  23
ATOM     23  N   UNL     1      -4.902  12.651  24.932  0.00  0.00    +0.000 NA
ATOM     24  H   UNL     1      -4.763  13.006  25.876  0.00  0.00    +0.000 HD
ATOM     25  H   UNL     1      -5.832  12.275  24.744  0.00  0.00    +0.000 HD
ENDBRANCH  20  23
ENDBRANCH  17  20
ENDBRANCH   6  14
BRANCH   5  26
ATOM     26  C   UNL     1       0.335  13.169  19.118  0.00  0.00    +0.000 C 
ATOM     27  O   UNL     1      -0.426  13.459  18.193  0.00  0.00    +0.000 OA
ATOM     28  N   UNL     1       0.963  14.226  19.811  0.00  0.00    +0.000 N 
ATOM     29  C   UNL     1       2.051  14.146  20.783  0.00  0.00    +0.000 C 
ATOM     30  C   UNL     1       0.556  15.590  19.505  0.00  0.00    +0.000 C 
ENDBRANCH   5  26
TORSDOF 5
ENDMDL
MODEL 8
REMARK VINA RESULT:      -7.1      0.299      1.322
REMARK  Name = 
REMARK  8 active torsions:
REMARK  status: ('A' for Active; 'I' for Inactive)
REMARK    1  A    between atoms: C_1  and  C_2
REMARK    2  A    between atoms: C_3  and  C_4
REMARK    3  A    between atoms: C_12  and  C_13
REMARK    4  A    between atoms: N_15  and  C_16
REMARK    5  A    between atoms: N_15  and  C_17
REMARK    6  A    between atoms: C_18  and  C_19
REMARK    7  A    between atoms: C_22  and  S_23
REMARK    8  A    between atoms: S_23  and  N_24
REMARK                            x       y       z     vdW  Elec       q    Type
REMARK                         _______ _______ _______ _____ _____    ______ ____
ROOT
ATOM      1  C   UNL     1      -0.399   8.650  21.222  0.00  0.00    +0.000 C 
ATOM      2  C   UNL     1       0.176   9.752  20.372  0.00  0.00    +0.000 A 
ATOM      3  C   UNL     1       1.201   9.580  19.445  0.00  0.00    +0.000 A 
ATOM      4  S   UNL     1       1.525  11.038  18.607  0.00  0.00    +0.000 S 
ATOM      5  C   UNL     1       0.489  11.973  19.594  0.00  0.00    +0.000 A 
ATOM      6  C   UNL     1      -0.280  11.145  20.422  0.00  0.00    +0.000 A 
ENDROOT
BRANCH   3   7
ATOM      7  C   UNL     1       1.965   8.363  19.089  0.00  0.00    +0.000 A 
ATOM      8  C   UNL     1       2.073   7.290  19.989  0.00  0.00    +0.000 A 
ATOM      9  C   UNL     1       2.873   6.179  19.701  0.00  0.00    +0.000 A 
ATOM     10  C   UNL     1       3.543   6.108  18.484  0.00  0.00    +0.000 A 
ATOM     11 CL   UNL     1       4.532   4.746  18.130  0.00  0.00    +0.000 Cl
ATOM     12  C   UNL     1       3.417   7.136  17.555  0.00  0.00    +0.000 A 
ATOM     13  C   UNL     1       2.641   8.260  17.861  0.00  0.00    +0.000 A 
ENDBRANCH   3   7
BRANCH   6  14
ATOM     14  C   UNL     1      -1.407  11.650  21.239  0.00  0.00    +0.000 A 
ATOM     15  C   UNL     1      -1.347  11.580  22.644  0.00  0.00    +0.000 A 
ATOM     16  C   UNL     1      -2.372  12.098  23.442  0.00  0.00    +0.000 A 
ATOM     17  C   UNL     1      -3.495  12.647  22.831  0.00  0.00    +0.000 A 
ATOM     18  C   UNL     1      -3.612  12.668  21.443  0.00  0.00    +0.000 A 
ATOM     19  C   UNL     1      -2.553  12.210  20.655  0.00  0.00    +0.000 A 
BRANCH  17  20
ATOM     20  S   UNL     1      -4.755  13.381  23.811  0.00  0.00    +0.000 S 
ATOM     21  O   UNL     1      -5.358  14.480  23.097  0.00  0.00    +0.000 OA
ATOM     22  O   UNL     1      -5.534  12.355  24.465  0.00  0.00    +0.000 OA
BRANCH  20  23
ATOM     23  N   UNL     1      -3.816  14.075  25.023  0.00  0.00    +0.000 NA
ATOM     24  H   UNL     1      -3.763  13.458  25.832  0.00  0.00    +0.000 HD
ATOM     25  H   UNL     1      -2.916  14.378  24.651  0.00  0.00    +0.000 HD
ENDBRANCH  20  23
ENDBRANCH  17  20
ENDBRANCH   6  14
BRANCH   5  26
ATOM     26  C   UNL     1       0.318  13.409  19.341  0.00  0.00    +0.000 C 
ATOM     27  O   UNL     1      -0.359  13.784  18.382  0.00  0.00    +0.000 OA
ATOM     28  N   UNL     1       0.821  14.393  20.218  0.00  0.00    +0.000 N 
ATOM     29  C   UNL     1       1.809  14.232  21.284  0.00  0.00    +0.000 C 
ATOM     30  C   UNL     1       0.384  15.770  20.036  0.00  0.00    +0.000 C 
ENDBRANCH   5  26
TORSDOF 5
ENDMDL
MODEL 9
REMARK VINA RESULT:      -7.0      5.947     10.249
REMARK  Name = 
REMARK  8 active torsions:
REMARK  status: ('A' for Active; 'I' for Inactive)
REMARK    1  A    between atoms: C_1  and  C_2
REMARK    2  A    between atoms: C_3  and  C_4
REMARK    3  A    between atoms: C_12  and  C_13
REMARK    4  A    between atoms: N_15  and  C_16
REMARK    5  A    between atoms: N_15  and  C_17
REMARK    6  A    between atoms: C_18  and  C_19
REMARK    7  A    between atoms: C_22  and  S_23
REMARK    8  A    between atoms: S_23  and  N_24
REMARK                            x       y       z     vdW  Elec       q    Type
REMARK                         _______ _______ _______ _____ _____    ______ ____
ROOT
ATOM      1  C   UNL     1       2.370   9.319  17.862  0.00  0.00    +0.000 C 
ATOM      2  C   UNL     1       1.987   8.309  18.911  0.00  0.00    +0.000 A 
ATOM      3  C   UNL     1       1.024   8.520  19.895  0.00  0.00    +0.000 A 
ATOM      4  S   UNL     1       0.800   7.115  20.848  0.00  0.00    +0.000 S 
ATOM      5  C   UNL     1       2.113   6.281  20.140  0.00  0.00    +0.000 A 
ATOM      6  C   UNL     1       2.589   6.976  19.020  0.00  0.00    +0.000 A 
ENDROOT
BRANCH   3   7
ATOM      7  C   UNL     1       0.195   9.714  20.171  0.00  0.00    +0.000 A 
ATOM      8  C   UNL     1      -0.771  10.151  19.249  0.00  0.00    +0.000 A 
ATOM      9  C   UNL     1      -1.489  11.333  19.457  0.00  0.00    +0.000 A 
ATOM     10  C   UNL     1      -1.280  12.074  20.615  0.00  0.00    +0.000 A 
ATOM     11 CL   UNL     1      -2.157  13.532  20.870  0.00  0.00    +0.000 Cl
ATOM     12  C   UNL     1      -0.362  11.640  21.567  0.00  0.00    +0.000 A 
ATOM     13  C   UNL     1       0.378  10.474  21.340  0.00  0.00    +0.000 A 
ENDBRANCH   3   7
BRANCH   6  14
ATOM     14  C   UNL     1       3.584   6.404  18.084  0.00  0.00    +0.000 A 
ATOM     15  C   UNL     1       4.743   7.132  17.754  0.00  0.00    +0.000 A 
ATOM     16  C   UNL     1       5.725   6.596  16.916  0.00  0.00    +0.000 A 
ATOM     17  C   UNL     1       5.525   5.336  16.358  0.00  0.00    +0.000 A 
ATOM     18  C   UNL     1       4.357   4.622  16.611  0.00  0.00    +0.000 A 
ATOM     19  C   UNL     1       3.414   5.138  17.505  0.00  0.00    +0.000 A 
BRANCH  17  20
ATOM     20  S   UNL     1       6.782   4.606  15.372  0.00  0.00    +0.000 S 
ATOM     21  O   UNL     1       6.277   3.414  14.733  0.00  0.00    +0.000 OA
ATOM     22  O   UNL     1       7.504   5.630  14.652  0.00  0.00    +0.000 OA
BRANCH  20  23
ATOM     23  N   UNL     1       7.831   4.078  16.577  0.00  0.00    +0.000 NA
ATOM     24  H   UNL     1       7.994   4.817  17.258  0.00  0.00    +0.000 HD
ATOM     25  H   UNL     1       7.510   3.192  16.969  0.00  0.00    +0.000 HD
ENDBRANCH  20  23
ENDBRANCH  17  20
ENDBRANCH   6  14
BRANCH   5  26
ATOM     26  C   UNL     1       2.441   4.914  20.563  0.00  0.00    +0.000 C 
ATOM     27  O   UNL     1       3.418   4.716  21.288  0.00  0.00    +0.000 OA
ATOM     28  N   UNL     1       1.618   3.812  20.250  0.00  0.00    +0.000 N 
ATOM     29  C   UNL     1       0.547   3.738  19.258  0.00  0.00    +0.000 C 
ATOM     30  C   UNL     1       1.872   2.546  20.924  0.00  0.00    +0.000 C 
ENDBRANCH   5  26
TORSDOF 5
ENDMDL
