MODEL 1
REMARK VINA RESULT:      -8.8      0.000      0.000
REMARK  Name = 
REMARK  7 active torsions:
REMARK  status: ('A' for Active; 'I' for Inactive)
REMARK    1  A    between atoms: C_2  and  C_4
REMARK    2  A    between atoms: C_8  and  C_9
REMARK    3  A    between atoms: C_10  and  C_11
REMARK    4  A    between atoms: N_13  and  C_14
REMARK    5  A    between atoms: C_17  and  C_18
REMARK    6  A    between atoms: C_23  and  S_24
REMARK    7  A    between atoms: S_24  and  N_25
REMARK                            x       y       z     vdW  Elec       q    Type
REMARK                         _______ _______ _______ _____ _____    ______ ____
ROOT
ATOM      1  C   UNL     1       0.305  10.744  21.116  0.00  0.00    +0.000 C 
ATOM      2  O   UNL     1       1.409  11.130  21.481  0.00  0.00    +0.000 OA
ATOM      3  N   UNL     1       0.039   9.725  20.229  0.00  0.00    +0.000 N 
ATOM      4  H   UNL     1      -0.914   9.597  19.918  0.00  0.00    +0.000 HD
ENDROOT
BRANCH   3   5
ATOM      5  C   UNL     1       1.015   8.923  19.609  0.00  0.00    +0.000 A 
ATOM      6  C   UNL     1       1.468   9.140  18.314  0.00  0.00    +0.000 A 
ATOM      7  C   UNL     1       2.350   8.242  17.707  0.00  0.00    +0.000 A 
ATOM      8  C   UNL     1       2.873   7.125  18.384  0.00  0.00    +0.000 A 
ATOM      9  C   UNL     1       2.500   7.009  19.730  0.00  0.00    +0.000 A 
ATOM     10  C   UNL     1       1.556   7.860  20.325  0.00  0.00    +0.000 A 
BRANCH   8  11
ATOM     11  C   UNL     1       3.793   6.184  17.676  0.00  0.00    +0.000 A 
ATOM     12  C   UNL     1       4.984   6.731  17.123  0.00  0.00    +0.000 A 
ATOM     13  C   UNL     1       5.883   5.988  16.353  0.00  0.00    +0.000 A 
ATOM     14  C   UNL     1       5.649   4.644  16.133  0.00  0.00    +0.000 A 
ATOM     15  C   UNL     1       4.516   4.053  16.682  0.00  0.00    +0.000 A 
ATOM     16  C   UNL     1       3.586   4.800  17.439  0.00  0.00    +0.000 A 
BRANCH  16  17
ATOM     17  S   UNL     1       2.136   3.928  17.992  0.00  0.00    +0.000 S 
ATOM     18  O   UNL     1       2.183   3.771  19.426  0.00  0.00    +0.000 OA
ATOM     19  O   UNL     1       0.978   4.416  17.280  0.00  0.00    +0.000 OA
BRANCH  17  20
ATOM     20  N   UNL     1       2.329   2.342  17.453  0.00  0.00    +0.000 NA
ATOM     21  H   UNL     1       1.638   1.761  17.933  0.00  0.00    +0.000 HD
ATOM     22  H   UNL     1       2.241   2.321  16.437  0.00  0.00    +0.000 HD
ENDBRANCH  17  20
ENDBRANCH  16  17
ENDBRANCH   8  11
ENDBRANCH   3   5
BRANCH   1  24
ATOM     23  C   UNL     1      -0.785  12.266  22.637  0.00  0.00    +0.000 C 
ATOM     24  C   UNL     1      -0.919  11.418  21.605  0.00  0.00    +0.000 C 
BRANCH  23  29
ATOM     25  C   UNL     1      -4.220  13.420  23.692  0.00  0.00    +0.000 A 
ATOM     26  C   UNL     1      -3.905  14.614  24.346  0.00  0.00    +0.000 A 
ATOM     27  C   UNL     1      -2.573  15.015  24.454  0.00  0.00    +0.000 A 
ATOM     28  C   UNL     1      -1.566  14.233  23.889  0.00  0.00    +0.000 A 
ATOM     29  C   UNL     1      -1.877  13.041  23.221  0.00  0.00    +0.000 A 
ATOM     30  C   UNL     1      -3.207  12.622  23.156  0.00  0.00    +0.000 A 
BRANCH  25  32
ATOM     31  N   UNL     1      -6.498  13.252  24.436  0.00  0.00    +0.000 NA
ATOM     32  C   UNL     1      -5.632  12.997  23.511  0.00  0.00    +0.000 C 
ATOM     33  N   UNL     1      -5.994  12.301  22.395  0.00  0.00    +0.000 N 
ATOM     34  H   UNL     1      -7.420  12.926  24.145  0.00  0.00    +0.000 HD
ATOM     35  H   UNL     1      -6.819  11.724  22.500  0.00  0.00    +0.000 HD
ATOM     36  H   UNL     1      -5.240  11.785  21.951  0.00  0.00    +0.000 HD
ENDBRANCH  25  32
ENDBRANCH  23  29
ENDBRANCH   1  24
TORSDOF 7
ENDMDL
MODEL 2
REMARK VINA RESULT:      -8.8      1.113      1.529
REMARK  Name = 
REMARK  7 active torsions:
REMARK  status: ('A' for Active; 'I' for Inactive)
REMARK    1  A    between atoms: C_2  and  C_4
REMARK    2  A    between atoms: C_8  and  C_9
REMARK    3  A    between atoms: C_10  and  C_11
REMARK    4  A    between atoms: N_13  and  C_14
REMARK    5  A    between atoms: C_17  and  C_18
REMARK    6  A    between atoms: C_23  and  S_24
REMARK    7  A    between atoms: S_24  and  N_25
REMARK                            x       y       z     vdW  Elec       q    Type
REMARK                         _______ _______ _______ _____ _____    ______ ____
ROOT
ATOM      1  C   UNL     1      -0.536  10.565  19.330  0.00  0.00    +0.000 C 
ATOM      2  O   UNL     1      -0.973  10.318  18.214  0.00  0.00    +0.000 OA
ATOM      3  N   UNL     1       0.510   9.932  19.965  0.00  0.00    +0.000 N 
ATOM      4  H   UNL     1       0.684  10.149  20.937  0.00  0.00    +0.000 HD
ENDROOT
BRANCH   3   5
ATOM      5  C   UNL     1       1.285   8.898  19.405  0.00  0.00    +0.000 A 
ATOM      6  C   UNL     1       1.712   7.792  20.127  0.00  0.00    +0.000 A 
ATOM      7  C   UNL     1       2.578   6.857  19.554  0.00  0.00    +0.000 A 
ATOM      8  C   UNL     1       3.001   6.943  18.214  0.00  0.00    +0.000 A 
ATOM      9  C   UNL     1       2.445   7.997  17.476  0.00  0.00    +0.000 A 
ATOM     10  C   UNL     1       1.638   8.984  18.063  0.00  0.00    +0.000 A 
BRANCH   8  11
ATOM     11  C   UNL     1       3.947   5.928  17.661  0.00  0.00    +0.000 A 
ATOM     12  C   UNL     1       5.197   6.402  17.172  0.00  0.00    +0.000 A 
ATOM     13  C   UNL     1       6.134   5.580  16.540  0.00  0.00    +0.000 A 
ATOM     14  C   UNL     1       5.878   4.229  16.403  0.00  0.00    +0.000 A 
ATOM     15  C   UNL     1       4.685   3.709  16.896  0.00  0.00    +0.000 A 
ATOM     16  C   UNL     1       3.718   4.535  17.512  0.00  0.00    +0.000 A 
BRANCH  16  17
ATOM     17  S   UNL     1       2.201   3.744  18.004  0.00  0.00    +0.000 S 
ATOM     18  O   UNL     1       2.180   3.589  19.439  0.00  0.00    +0.000 OA
ATOM     19  O   UNL     1       1.103   4.293  17.244  0.00  0.00    +0.000 OA
BRANCH  17  20
ATOM     20  N   UNL     1       2.331   2.149  17.473  0.00  0.00    +0.000 NA
ATOM     21  H   UNL     1       2.446   2.165  16.457  0.00  0.00    +0.000 HD
ATOM     22  H   UNL     1       3.103   1.696  17.962  0.00  0.00    +0.000 HD
ENDBRANCH  17  20
ENDBRANCH  16  17
ENDBRANCH   8  11
ENDBRANCH   3   5
BRANCH   1  24
ATOM     23  C   UNL     1      -1.088  11.467  21.497  0.00  0.00    +0.000 C 
ATOM     24  C   UNL     1      -1.168  11.611  20.165  0.00  0.00    +0.000 C 
BRANCH  23  29
ATOM     25  C   UNL     1      -3.385  13.257  23.898  0.00  0.00    +0.000 A 
ATOM     26  C   UNL     1      -2.566  14.315  24.302  0.00  0.00    +0.000 A 
ATOM     27  C   UNL     1      -1.268  14.417  23.803  0.00  0.00    +0.000 A 
ATOM     28  C   UNL     1      -0.802  13.475  22.887  0.00  0.00    +0.000 A 
ATOM     29  C   UNL     1      -1.622  12.419  22.468  0.00  0.00    +0.000 A 
ATOM     30  C   UNL     1      -2.905  12.296  23.006  0.00  0.00    +0.000 A 
BRANCH  25  32
ATOM     31  N   UNL     1      -5.205  12.056  24.905  0.00  0.00    +0.000 NA
ATOM     32  C   UNL     1      -4.790  13.155  24.367  0.00  0.00    +0.000 C 
ATOM     33  N   UNL     1      -5.644  14.203  24.184  0.00  0.00    +0.000 N 
ATOM     34  H   UNL     1      -6.177  12.160  25.199  0.00  0.00    +0.000 HD
ATOM     35  H   UNL     1      -6.625  13.955  24.154  0.00  0.00    +0.000 HD
ATOM     36  H   UNL     1      -5.400  14.822  23.417  0.00  0.00    +0.000 HD
ENDBRANCH  25  32
ENDBRANCH  23  29
ENDBRANCH   1  24
TORSDOF 7
ENDMDL
MODEL 3
REMARK VINA RESULT:      -8.7      1.044      1.213
REMARK  Name = 
REMARK  7 active torsions:
REMARK  status: ('A' for Active; 'I' for Inactive)
REMARK    1  A    between atoms: C_2  and  C_4
REMARK    2  A    between atoms: C_8  and  C_9
REMARK    3  A    between atoms: C_10  and  C_11
REMARK    4  A    between atoms: N_13  and  C_14
REMARK    5  A    between atoms: C_17  and  C_18
REMARK    6  A    between atoms: C_23  and  S_24
REMARK    7  A    between atoms: S_24  and  N_25
REMARK                            x       y       z     vdW  Elec       q    Type
REMARK                         _______ _______ _______ _____ _____    ______ ____
ROOT
ATOM      1  C   UNL     1       0.466   9.998  21.809  0.00  0.00    +0.000 C 
ATOM      2  O   UNL     1       1.428   9.792  22.538  0.00  0.00    +0.000 OA
ATOM      3  N   UNL     1       0.299   9.555  20.516  0.00  0.00    +0.000 N 
ATOM      4  H   UNL     1      -0.486   9.907  19.985  0.00  0.00    +0.000 HD
ENDROOT
BRANCH   3   5
ATOM      5  C   UNL     1       1.216   8.746  19.818  0.00  0.00    +0.000 A 
ATOM      6  C   UNL     1       1.658   9.032  18.533  0.00  0.00    +0.000 A 
ATOM      7  C   UNL     1       2.475   8.132  17.843  0.00  0.00    +0.000 A 
ATOM      8  C   UNL     1       2.945   6.940  18.427  0.00  0.00    +0.000 A 
ATOM      9  C   UNL     1       2.590   6.748  19.769  0.00  0.00    +0.000 A 
ATOM     10  C   UNL     1       1.707   7.605  20.444  0.00  0.00    +0.000 A 
BRANCH   8  11
ATOM     11  C   UNL     1       3.796   6.003  17.633  0.00  0.00    +0.000 A 
ATOM     12  C   UNL     1       4.947   6.549  16.998  0.00  0.00    +0.000 A 
ATOM     13  C   UNL     1       5.775   5.811  16.147  0.00  0.00    +0.000 A 
ATOM     14  C   UNL     1       5.509   4.473  15.923  0.00  0.00    +0.000 A 
ATOM     15  C   UNL     1       4.415   3.883  16.549  0.00  0.00    +0.000 A 
ATOM     16  C   UNL     1       3.556   4.626  17.389  0.00  0.00    +0.000 A 
BRANCH  16  17
ATOM     17  S   UNL     1       2.143   3.759  18.039  0.00  0.00    +0.000 S 
ATOM     18  O   UNL     1       2.280   3.615  19.468  0.00  0.00    +0.000 OA
ATOM     19  O   UNL     1       0.943   4.240  17.395  0.00  0.00    +0.000 OA
BRANCH  17  20
ATOM     20  N   UNL     1       2.304   2.168  17.502  0.00  0.00    +0.000 NA
ATOM     21  H   UNL     1       2.574   1.592  18.303  0.00  0.00    +0.000 HD
ATOM     22  H   UNL     1       1.431   1.872  17.066  0.00  0.00    +0.000 HD
ENDBRANCH  17  20
ENDBRANCH  16  17
ENDBRANCH   8  11
ENDBRANCH   3   5
BRANCH   1  24
ATOM     23  C   UNL     1      -1.070  11.826  21.472  0.00  0.00    +0.000 C 
ATOM     24  C   UNL     1      -0.661  10.836  22.280  0.00  0.00    +0.000 C 
BRANCH  23  29
ATOM     25  C   UNL     1      -4.180  13.334  22.988  0.00  0.00    +0.000 A 
ATOM     26  C   UNL     1      -4.314  14.490  22.214  0.00  0.00    +0.000 A 
ATOM     27  C   UNL     1      -3.375  14.773  21.223  0.00  0.00    +0.000 A 
ATOM     28  C   UNL     1      -2.320  13.890  20.995  0.00  0.00    +0.000 A 
ATOM     29  C   UNL     1      -2.187  12.723  21.760  0.00  0.00    +0.000 A 
ATOM     30  C   UNL     1      -3.105  12.468  22.781  0.00  0.00    +0.000 A 
BRANCH  25  32
ATOM     31  N   UNL     1      -6.333  13.590  24.022  0.00  0.00    +0.000 NA
ATOM     32  C   UNL     1      -5.196  12.977  24.011  0.00  0.00    +0.000 C 
ATOM     33  N   UNL     1      -4.904  12.041  24.960  0.00  0.00    +0.000 N 
ATOM     34  H   UNL     1      -6.925  13.208  24.761  0.00  0.00    +0.000 HD
ATOM     35  H   UNL     1      -5.437  12.121  25.817  0.00  0.00    +0.000 HD
ATOM     36  H   UNL     1      -3.913  11.927  25.155  0.00  0.00    +0.000 HD
ENDBRANCH  25  32
ENDBRANCH  23  29
ENDBRANCH   1  24
TORSDOF 7
ENDMDL
MODEL 4
REMARK VINA RESULT:      -8.7      3.648     11.319
REMARK  Name = 
REMARK  7 active torsions:
REMARK  status: ('A' for Active; 'I' for Inactive)
REMARK    1  A    between atoms: C_2  and  C_4
REMARK    2  A    between atoms: C_8  and  C_9
REMARK    3  A    between atoms: C_10  and  C_11
REMARK    4  A    between atoms: N_13  and  C_14
REMARK    5  A    between atoms: C_17  and  C_18
REMARK    6  A    between atoms: C_23  and  S_24
REMARK    7  A    between atoms: S_24  and  N_25
REMARK                            x       y       z     vdW  Elec       q    Type
REMARK                         _______ _______ _______ _____ _____    ______ ____
ROOT
ATOM      1  C   UNL     1       1.929   9.360  18.300  0.00  0.00    +0.000 C 
ATOM      2  O   UNL     1       2.118  10.520  17.956  0.00  0.00    +0.000 OA
ATOM      3  N   UNL     1       1.121   8.925  19.327  0.00  0.00    +0.000 N 
ATOM      4  H   UNL     1       1.158   7.949  19.585  0.00  0.00    +0.000 HD
ENDROOT
BRANCH   3   5
ATOM      5  C   UNL     1       0.337   9.761  20.144  0.00  0.00    +0.000 A 
ATOM      6  C   UNL     1      -0.661  10.590  19.648  0.00  0.00    +0.000 A 
ATOM      7  C   UNL     1      -1.327  11.486  20.488  0.00  0.00    +0.000 A 
ATOM      8  C   UNL     1      -1.076  11.551  21.872  0.00  0.00    +0.000 A 
ATOM      9  C   UNL     1      -0.160  10.610  22.361  0.00  0.00    +0.000 A 
ATOM     10  C   UNL     1       0.570   9.759  21.515  0.00  0.00    +0.000 A 
BRANCH   8  11
ATOM     11  C   UNL     1      -1.800  12.547  22.719  0.00  0.00    +0.000 A 
ATOM     12  C   UNL     1      -2.918  12.077  23.463  0.00  0.00    +0.000 A 
ATOM     13  C   UNL     1      -3.743  12.917  24.217  0.00  0.00    +0.000 A 
ATOM     14  C   UNL     1      -3.462  14.268  24.292  0.00  0.00    +0.000 A 
ATOM     15  C   UNL     1      -2.358  14.771  23.610  0.00  0.00    +0.000 A 
ATOM     16  C   UNL     1      -1.533  13.937  22.823  0.00  0.00    +0.000 A 
BRANCH  16  17
ATOM     17  S   UNL     1      -0.219  14.741  21.931  0.00  0.00    +0.000 S 
ATOM     18  O   UNL     1       1.048  14.165  22.314  0.00  0.00    +0.000 OA
ATOM     19  O   UNL     1      -0.621  14.945  20.559  0.00  0.00    +0.000 OA
BRANCH  17  20
ATOM     20  N   UNL     1      -0.117  16.294  22.580  0.00  0.00    +0.000 NA
ATOM     21  H   UNL     1      -0.168  16.961  21.807  0.00  0.00    +0.000 HD
ATOM     22  H   UNL     1      -0.856  16.416  23.272  0.00  0.00    +0.000 HD
ENDBRANCH  17  20
ENDBRANCH  16  17
ENDBRANCH   8  11
ENDBRANCH   3   5
BRANCH   1  24
ATOM     23  C   UNL     1       2.947   7.175  18.351  0.00  0.00    +0.000 C 
ATOM     24  C   UNL     1       2.638   8.255  17.616  0.00  0.00    +0.000 C 
BRANCH  23  29
ATOM     25  C   UNL     1       5.544   4.814  16.965  0.00  0.00    +0.000 A 
ATOM     26  C   UNL     1       4.786   3.649  16.816  0.00  0.00    +0.000 A 
ATOM     27  C   UNL     1       3.442   3.644  17.193  0.00  0.00    +0.000 A 
ATOM     28  C   UNL     1       2.859   4.807  17.694  0.00  0.00    +0.000 A 
ATOM     29  C   UNL     1       3.611   5.981  17.833  0.00  0.00    +0.000 A 
ATOM     30  C   UNL     1       4.966   5.968  17.497  0.00  0.00    +0.000 A 
BRANCH  25  32
ATOM     31  N   UNL     1       7.865   4.237  17.193  0.00  0.00    +0.000 NA
ATOM     32  C   UNL     1       6.960   4.866  16.518  0.00  0.00    +0.000 C 
ATOM     33  N   UNL     1       7.301   5.616  15.430  0.00  0.00    +0.000 N 
ATOM     34  H   UNL     1       8.773   4.347  16.739  0.00  0.00    +0.000 HD
ATOM     35  H   UNL     1       8.265   5.924  15.410  0.00  0.00    +0.000 HD
ATOM     36  H   UNL     1       6.667   6.382  15.225  0.00  0.00    +0.000 HD
ENDBRANCH  25  32
ENDBRANCH  23  29
ENDBRANCH   1  24
TORSDOF 7
ENDMDL
MODEL 5
REMARK VINA RESULT:      -8.6      0.785      1.312
REMARK  Name = 
REMARK  7 active torsions:
REMARK  status: ('A' for Active; 'I' for Inactive)
REMARK    1  A    between atoms: C_2  and  C_4
REMARK    2  A    between atoms: C_8  and  C_9
REMARK    3  A    between atoms: C_10  and  C_11
REMARK    4  A    between atoms: N_13  and  C_14
REMARK    5  A    between atoms: C_17  and  C_18
REMARK    6  A    between atoms: C_23  and  S_24
REMARK    7  A    between atoms: S_24  and  N_25
REMARK                            x       y       z     vdW  Elec       q    Type
REMARK                         _______ _______ _______ _____ _____    ______ ____
ROOT
ATOM      1  C   UNL     1       0.602   9.611  22.359  0.00  0.00    +0.000 C 
ATOM      2  O   UNL     1       1.689   9.448  22.900  0.00  0.00    +0.000 OA
ATOM      3  N   UNL     1       0.209   9.122  21.133  0.00  0.00    +0.000 N 
ATOM      4  H   UNL     1      -0.670   9.440  20.749  0.00  0.00    +0.000 HD
ENDROOT
BRANCH   3   5
ATOM      5  C   UNL     1       1.001   8.309  20.299  0.00  0.00    +0.000 A 
ATOM      6  C   UNL     1       1.477   7.062  20.683  0.00  0.00    +0.000 A 
ATOM      7  C   UNL     1       2.356   6.351  19.862  0.00  0.00    +0.000 A 
ATOM      8  C   UNL     1       2.747   6.817  18.593  0.00  0.00    +0.000 A 
ATOM      9  C   UNL     1       2.145   8.014  18.181  0.00  0.00    +0.000 A 
ATOM     10  C   UNL     1       1.322   8.773  19.028  0.00  0.00    +0.000 A 
BRANCH   8  11
ATOM     11  C   UNL     1       3.711   6.027  17.769  0.00  0.00    +0.000 A 
ATOM     12  C   UNL     1       4.789   6.736  17.170  0.00  0.00    +0.000 A 
ATOM     13  C   UNL     1       5.705   6.143  16.297  0.00  0.00    +0.000 A 
ATOM     14  C   UNL     1       5.606   4.794  16.013  0.00  0.00    +0.000 A 
ATOM     15  C   UNL     1       4.590   4.048  16.601  0.00  0.00    +0.000 A 
ATOM     16  C   UNL     1       3.641   4.642  17.463  0.00  0.00    +0.000 A 
BRANCH  16  17
ATOM     17  S   UNL     1       2.342   3.582  18.060  0.00  0.00    +0.000 S 
ATOM     18  O   UNL     1       2.518   3.349  19.473  0.00  0.00    +0.000 OA
ATOM     19  O   UNL     1       1.086   3.976  17.465  0.00  0.00    +0.000 OA
BRANCH  17  20
ATOM     20  N   UNL     1       2.663   2.061  17.404  0.00  0.00    +0.000 NA
ATOM     21  H   UNL     1       3.015   2.197  16.454  0.00  0.00    +0.000 HD
ATOM     22  H   UNL     1       3.317   1.568  18.012  0.00  0.00    +0.000 HD
ENDBRANCH  17  20
ENDBRANCH  16  17
ENDBRANCH   8  11
ENDBRANCH   3   5
BRANCH   1  24
ATOM     23  C   UNL     1      -0.658  11.661  22.498  0.00  0.00    +0.000 C 
ATOM     24  C   UNL     1      -0.437  10.440  23.009  0.00  0.00    +0.000 C 
BRANCH  23  29
ATOM     25  C   UNL     1      -3.957  13.219  23.462  0.00  0.00    +0.000 A 
ATOM     26  C   UNL     1      -3.532  14.469  23.920  0.00  0.00    +0.000 A 
ATOM     27  C   UNL     1      -2.172  14.778  23.929  0.00  0.00    +0.000 A 
ATOM     28  C   UNL     1      -1.246  13.846  23.461  0.00  0.00    +0.000 A 
ATOM     29  C   UNL     1      -1.668  12.596  22.989  0.00  0.00    +0.000 A 
ATOM     30  C   UNL     1      -3.026  12.276  23.024  0.00  0.00    +0.000 A 
BRANCH  25  32
ATOM     31  N   UNL     1      -5.883  12.376  22.299  0.00  0.00    +0.000 NA
ATOM     32  C   UNL     1      -5.403  12.884  23.386  0.00  0.00    +0.000 C 
ATOM     33  N   UNL     1      -6.219  13.160  24.443  0.00  0.00    +0.000 N 
ATOM     34  H   UNL     1      -6.877  12.177  22.421  0.00  0.00    +0.000 HD
ATOM     35  H   UNL     1      -7.197  13.280  24.208  0.00  0.00    +0.000 HD
ATOM     36  H   UNL     1      -5.894  13.907  25.049  0.00  0.00    +0.000 HD
ENDBRANCH  25  32
ENDBRANCH  23  29
ENDBRANCH   1  24
TORSDOF 7
ENDMDL
MODEL 6
REMARK VINA RESULT:      -8.6      3.519     11.027
REMARK  Name = 
REMARK  7 active torsions:
REMARK  status: ('A' for Active; 'I' for Inactive)
REMARK    1  A    between atoms: C_2  and  C_4
REMARK    2  A    between atoms: C_8  and  C_9
REMARK    3  A    between atoms: C_10  and  C_11
REMARK    4  A    between atoms: N_13  and  C_14
REMARK    5  A    between atoms: C_17  and  C_18
REMARK    6  A    between atoms: C_23  and  S_24
REMARK    7  A    between atoms: S_24  and  N_25
REMARK                            x       y       z     vdW  Elec       q    Type
REMARK                         _______ _______ _______ _____ _____    ______ ____
ROOT
ATOM      1  C   UNL     1       1.844   9.423  18.380  0.00  0.00    +0.000 C 
ATOM      2  O   UNL     1       2.001  10.583  18.021  0.00  0.00    +0.000 OA
ATOM      3  N   UNL     1       1.064   8.981  19.426  0.00  0.00    +0.000 N 
ATOM      4  H   UNL     1       1.127   8.008  19.693  0.00  0.00    +0.000 HD
ENDROOT
BRANCH   3   5
ATOM      5  C   UNL     1       0.275   9.808  20.248  0.00  0.00    +0.000 A 
ATOM      6  C   UNL     1      -0.626  10.739  19.749  0.00  0.00    +0.000 A 
ATOM      7  C   UNL     1      -1.294  11.616  20.607  0.00  0.00    +0.000 A 
ATOM      8  C   UNL     1      -1.147  11.561  22.006  0.00  0.00    +0.000 A 
ATOM      9  C   UNL     1      -0.333  10.524  22.484  0.00  0.00    +0.000 A 
ATOM     10  C   UNL     1       0.402   9.689  21.628  0.00  0.00    +0.000 A 
BRANCH   8  11
ATOM     11  C   UNL     1      -1.867  12.541  22.874  0.00  0.00    +0.000 A 
ATOM     12  C   UNL     1      -3.039  12.083  23.538  0.00  0.00    +0.000 A 
ATOM     13  C   UNL     1      -3.863  12.917  24.300  0.00  0.00    +0.000 A 
ATOM     14  C   UNL     1      -3.526  14.247  24.466  0.00  0.00    +0.000 A 
ATOM     15  C   UNL     1      -2.370  14.735  23.866  0.00  0.00    +0.000 A 
ATOM     16  C   UNL     1      -1.544  13.909  23.071  0.00  0.00    +0.000 A 
BRANCH  16  17
ATOM     17  S   UNL     1      -0.154  14.700  22.289  0.00  0.00    +0.000 S 
ATOM     18  O   UNL     1       0.962  13.785  22.247  0.00  0.00    +0.000 OA
ATOM     19  O   UNL     1      -0.609  15.457  21.146  0.00  0.00    +0.000 OA
BRANCH  17  20
ATOM     20  N   UNL     1       0.379  15.865  23.386  0.00  0.00    +0.000 NA
ATOM     21  H   UNL     1      -0.263  16.659  23.337  0.00  0.00    +0.000 HD
ATOM     22  H   UNL     1       0.438  15.447  24.314  0.00  0.00    +0.000 HD
ENDBRANCH  17  20
ENDBRANCH  16  17
ENDBRANCH   8  11
ENDBRANCH   3   5
BRANCH   1  24
ATOM     23  C   UNL     1       2.697   7.168  18.360  0.00  0.00    +0.000 C 
ATOM     24  C   UNL     1       2.565   8.327  17.695  0.00  0.00    +0.000 C 
BRANCH  23  29
ATOM     25  C   UNL     1       3.597   3.574  17.645  0.00  0.00    +0.000 A 
ATOM     26  C   UNL     1       4.673   3.743  16.768  0.00  0.00    +0.000 A 
ATOM     27  C   UNL     1       5.075   5.028  16.405  0.00  0.00    +0.000 A 
ATOM     28  C   UNL     1       4.415   6.137  16.935  0.00  0.00    +0.000 A 
ATOM     29  C   UNL     1       3.345   5.973  17.824  0.00  0.00    +0.000 A 
ATOM     30  C   UNL     1       2.918   4.684  18.149  0.00  0.00    +0.000 A 
BRANCH  25  32
ATOM     31  N   UNL     1       4.078   1.300  18.252  0.00  0.00    +0.000 NA
ATOM     32  C   UNL     1       3.184   2.220  18.095  0.00  0.00    +0.000 C 
ATOM     33  N   UNL     1       1.862   1.944  18.291  0.00  0.00    +0.000 N 
ATOM     34  H   UNL     1       3.637   0.444  18.593  0.00  0.00    +0.000 HD
ATOM     35  H   UNL     1       1.613   0.966  18.210  0.00  0.00    +0.000 HD
ATOM     36  H   UNL     1       1.222   2.530  17.764  0.00  0.00    +0.000 HD
ENDBRANCH  25  32
ENDBRANCH  23  29
ENDBRANCH   1  24
TORSDOF 7
ENDMDL
MODEL 7
REMARK VINA RESULT:      -8.6      0.623      1.119
REMARK  Name = 
REMARK  7 active torsions:
REMARK  status: ('A' for Active; 'I' for Inactive)
REMARK    1  A    between atoms: C_2  and  C_4
REMARK    2  A    between atoms: C_8  and  C_9
REMARK    3  A    between atoms: C_10  and  C_11
REMARK    4  A    between atoms: N_13  and  C_14
REMARK    5  A    between atoms: C_17  and  C_18
REMARK    6  A    between atoms: C_23  and  S_24
REMARK    7  A    between atoms: S_24  and  N_25
REMARK                            x       y       z     vdW  Elec       q    Type
REMARK                         _______ _______ _______ _____ _____    ______ ____
ROOT
ATOM      1  C   UNL     1       0.611  11.455  20.432  0.00  0.00    +0.000 C 
ATOM      2  O   UNL     1       1.716  11.930  20.203  0.00  0.00    +0.000 OA
ATOM      3  N   UNL     1       0.190  10.173  20.154  0.00  0.00    +0.000 N 
ATOM      4  H   UNL     1      -0.789   9.952  20.277  0.00  0.00    +0.000 HD
ENDROOT
BRANCH   3   5
ATOM      5  C   UNL     1       0.992   9.169  19.579  0.00  0.00    +0.000 A 
ATOM      6  C   UNL     1       1.574   8.147  20.317  0.00  0.00    +0.000 A 
ATOM      7  C   UNL     1       2.458   7.247  19.715  0.00  0.00    +0.000 A 
ATOM      8  C   UNL     1       2.748   7.283  18.338  0.00  0.00    +0.000 A 
ATOM      9  C   UNL     1       2.042   8.242  17.599  0.00  0.00    +0.000 A 
ATOM     10  C   UNL     1       1.213   9.199  18.206  0.00  0.00    +0.000 A 
BRANCH   8  11
ATOM     11  C   UNL     1       3.721   6.311  17.752  0.00  0.00    +0.000 A 
ATOM     12  C   UNL     1       4.955   6.834  17.275  0.00  0.00    +0.000 A 
ATOM     13  C   UNL     1       5.912   6.057  16.616  0.00  0.00    +0.000 A 
ATOM     14  C   UNL     1       5.694   4.704  16.440  0.00  0.00    +0.000 A 
ATOM     15  C   UNL     1       4.518   4.137  16.920  0.00  0.00    +0.000 A 
ATOM     16  C   UNL     1       3.530   4.917  17.562  0.00  0.00    +0.000 A 
BRANCH  16  17
ATOM     17  S   UNL     1       2.037   4.070  18.034  0.00  0.00    +0.000 S 
ATOM     18  O   UNL     1       1.986   3.943  19.471  0.00  0.00    +0.000 OA
ATOM     19  O   UNL     1       0.935   4.554  17.235  0.00  0.00    +0.000 OA
BRANCH  17  20
ATOM     20  N   UNL     1       2.250   2.471  17.540  0.00  0.00    +0.000 NA
ATOM     21  H   UNL     1       3.048   2.444  16.902  0.00  0.00    +0.000 HD
ATOM     22  H   UNL     1       2.368   1.881  18.363  0.00  0.00    +0.000 HD
ENDBRANCH  17  20
ENDBRANCH  16  17
ENDBRANCH   8  11
ENDBRANCH   3   5
BRANCH   1  24
ATOM     23  C   UNL     1      -0.640  12.193  22.357  0.00  0.00    +0.000 C 
ATOM     24  C   UNL     1      -0.452  12.293  21.031  0.00  0.00    +0.000 C 
BRANCH  23  29
ATOM     25  C   UNL     1      -3.844  13.353  23.977  0.00  0.00    +0.000 A 
ATOM     26  C   UNL     1      -3.421  14.546  24.569  0.00  0.00    +0.000 A 
ATOM     27  C   UNL     1      -2.089  14.944  24.451  0.00  0.00    +0.000 A 
ATOM     28  C   UNL     1      -1.194  14.161  23.724  0.00  0.00    +0.000 A 
ATOM     29  C   UNL     1      -1.615  12.970  23.117  0.00  0.00    +0.000 A 
ATOM     30  C   UNL     1      -2.939  12.554  23.278  0.00  0.00    +0.000 A 
BRANCH  25  32
ATOM     31  N   UNL     1      -6.154  13.583  23.357  0.00  0.00    +0.000 NA
ATOM     32  C   UNL     1      -5.268  12.934  24.037  0.00  0.00    +0.000 C 
ATOM     33  N   UNL     1      -5.636  11.899  24.847  0.00  0.00    +0.000 N 
ATOM     34  H   UNL     1      -7.070  13.152  23.482  0.00  0.00    +0.000 HD
ATOM     35  H   UNL     1      -6.604  11.912  25.143  0.00  0.00    +0.000 HD
ATOM     36  H   UNL     1      -5.015  11.731  25.632  0.00  0.00    +0.000 HD
ENDBRANCH  25  32
ENDBRANCH  23  29
ENDBRANCH   1  24
TORSDOF 7
ENDMDL
MODEL 8
REMARK VINA RESULT:      -8.6      1.079      1.541
REMARK  Name = 
REMARK  7 active torsions:
REMARK  status: ('A' for Active; 'I' for Inactive)
REMARK    1  A    between atoms: C_2  and  C_4
REMARK    2  A    between atoms: C_8  and  C_9
REMARK    3  A    between atoms: C_10  and  C_11
REMARK    4  A    between atoms: N_13  and  C_14
REMARK    5  A    between atoms: C_17  and  C_18
REMARK    6  A    between atoms: C_23  and  S_24
REMARK    7  A    between atoms: S_24  and  N_25
REMARK                            x       y       z     vdW  Elec       q    Type
REMARK                         _______ _______ _______ _____ _____    ______ ____
ROOT
ATOM      1  C   UNL     1       0.633   9.869  21.946  0.00  0.00    +0.000 C 
ATOM      2  O   UNL     1       1.480   9.400  22.695  0.00  0.00    +0.000 OA
ATOM      3  N   UNL     1       0.456   9.573  20.612  0.00  0.00    +0.000 N 
ATOM      4  H   UNL     1      -0.199  10.129  20.080  0.00  0.00    +0.000 HD
ENDROOT
BRANCH   3   5
ATOM      5  C   UNL     1       1.218   8.637  19.887  0.00  0.00    +0.000 A 
ATOM      6  C   UNL     1       1.700   7.458  20.441  0.00  0.00    +0.000 A 
ATOM      7  C   UNL     1       2.551   6.623  19.711  0.00  0.00    +0.000 A 
ATOM      8  C   UNL     1       2.905   6.889  18.375  0.00  0.00    +0.000 A 
ATOM      9  C   UNL     1       2.295   8.016  17.805  0.00  0.00    +0.000 A 
ATOM     10  C   UNL     1       1.502   8.901  18.552  0.00  0.00    +0.000 A 
BRANCH   8  11
ATOM     11  C   UNL     1       3.839   5.975  17.651  0.00  0.00    +0.000 A 
ATOM     12  C   UNL     1       5.005   6.556  17.079  0.00  0.00    +0.000 A 
ATOM     13  C   UNL     1       5.911   5.839  16.294  0.00  0.00    +0.000 A 
ATOM     14  C   UNL     1       5.712   4.489  16.076  0.00  0.00    +0.000 A 
ATOM     15  C   UNL     1       4.605   3.865  16.643  0.00  0.00    +0.000 A 
ATOM     16  C   UNL     1       3.666   4.586  17.416  0.00  0.00    +0.000 A 
BRANCH  16  17
ATOM     17  S   UNL     1       2.251   3.674  17.992  0.00  0.00    +0.000 S 
ATOM     18  O   UNL     1       2.373   3.435  19.411  0.00  0.00    +0.000 OA
ATOM     19  O   UNL     1       1.056   4.194  17.370  0.00  0.00    +0.000 OA
BRANCH  17  20
ATOM     20  N   UNL     1       2.422   2.122  17.353  0.00  0.00    +0.000 NA
ATOM     21  H   UNL     1       2.070   1.457  18.045  0.00  0.00    +0.000 HD
ATOM     22  H   UNL     1       1.935   2.074  16.458  0.00  0.00    +0.000 HD
ENDBRANCH  17  20
ENDBRANCH  16  17
ENDBRANCH   8  11
ENDBRANCH   3   5
BRANCH   1  24
ATOM     23  C   UNL     1      -1.170  11.420  21.548  0.00  0.00    +0.000 C 
ATOM     24  C   UNL     1      -0.313  10.896  22.438  0.00  0.00    +0.000 C 
BRANCH  23  29
ATOM     25  C   UNL     1      -4.029  13.241  23.207  0.00  0.00    +0.000 A 
ATOM     26  C   UNL     1      -4.142  14.360  22.377  0.00  0.00    +0.000 A 
ATOM     27  C   UNL     1      -3.269  14.516  21.300  0.00  0.00    +0.000 A 
ATOM     28  C   UNL     1      -2.303  13.544  21.046  0.00  0.00    +0.000 A 
ATOM     29  C   UNL     1      -2.192  12.414  21.867  0.00  0.00    +0.000 A 
ATOM     30  C   UNL     1      -3.039  12.286  22.969  0.00  0.00    +0.000 A 
BRANCH  25  32
ATOM     31  N   UNL     1      -4.581  12.413  25.393  0.00  0.00    +0.000 NA
ATOM     32  C   UNL     1      -4.981  13.019  24.325  0.00  0.00    +0.000 C 
ATOM     33  N   UNL     1      -6.282  13.412  24.196  0.00  0.00    +0.000 N 
ATOM     34  H   UNL     1      -5.342  12.369  26.072  0.00  0.00    +0.000 HD
ATOM     35  H   UNL     1      -6.939  12.910  24.780  0.00  0.00    +0.000 HD
ATOM     36  H   UNL     1      -6.615  13.474  23.239  0.00  0.00    +0.000 HD
ENDBRANCH  25  32
ENDBRANCH  23  29
ENDBRANCH   1  24
TORSDOF 7
ENDMDL
MODEL 9
REMARK VINA RESULT:      -8.5      1.286      1.826
REMARK  Name = 
REMARK  7 active torsions:
REMARK  status: ('A' for Active; 'I' for Inactive)
REMARK    1  A    between atoms: C_2  and  C_4
REMARK    2  A    between atoms: C_8  and  C_9
REMARK    3  A    between atoms: C_10  and  C_11
REMARK    4  A    between atoms: N_13  and  C_14
REMARK    5  A    between atoms: C_17  and  C_18
REMARK    6  A    between atoms: C_23  and  S_24
REMARK    7  A    between atoms: S_24  and  N_25
REMARK                            x       y       z     vdW  Elec       q    Type
REMARK                         _______ _______ _______ _____ _____    ______ ____
ROOT
ATOM      1  C   UNL     1       0.577  11.116  20.319  0.00  0.00    +0.000 C 
ATOM      2  O   UNL     1       1.571  11.762  20.015  0.00  0.00    +0.000 OA
ATOM      3  N   UNL     1       0.356   9.777  20.079  0.00  0.00    +0.000 N 
ATOM      4  H   UNL     1      -0.563   9.401  20.267  0.00  0.00    +0.000 HD
ENDROOT
BRANCH   3   5
ATOM      5  C   UNL     1       1.275   8.909  19.460  0.00  0.00    +0.000 A 
ATOM      6  C   UNL     1       1.701   9.062  18.147  0.00  0.00    +0.000 A 
ATOM      7  C   UNL     1       2.522   8.104  17.547  0.00  0.00    +0.000 A 
ATOM      8  C   UNL     1       3.011   6.984  18.247  0.00  0.00    +0.000 A 
ATOM      9  C   UNL     1       2.670   6.930  19.605  0.00  0.00    +0.000 A 
ATOM     10  C   UNL     1       1.785   7.845  20.197  0.00  0.00    +0.000 A 
BRANCH   8  11
ATOM     11  C   UNL     1       3.864   5.978  17.547  0.00  0.00    +0.000 A 
ATOM     12  C   UNL     1       5.056   6.452  16.931  0.00  0.00    +0.000 A 
ATOM     13  C   UNL     1       5.895   5.641  16.161  0.00  0.00    +0.000 A 
ATOM     14  C   UNL     1       5.598   4.300  16.004  0.00  0.00    +0.000 A 
ATOM     15  C   UNL     1       4.461   3.780  16.615  0.00  0.00    +0.000 A 
ATOM     16  C   UNL     1       3.591   4.596  17.373  0.00  0.00    +0.000 A 
BRANCH  16  17
ATOM     17  S   UNL     1       2.127   3.810  18.011  0.00  0.00    +0.000 S 
ATOM     18  O   UNL     1       2.213   3.719  19.449  0.00  0.00    +0.000 OA
ATOM     19  O   UNL     1       0.967   4.310  17.310  0.00  0.00    +0.000 OA
BRANCH  17  20
ATOM     20  N   UNL     1       2.242   2.193  17.543  0.00  0.00    +0.000 NA
ATOM     21  H   UNL     1       2.079   2.146  16.535  0.00  0.00    +0.000 HD
ATOM     22  H   UNL     1       3.151   1.828  17.824  0.00  0.00    +0.000 HD
ENDBRANCH  17  20
ENDBRANCH  16  17
ENDBRANCH   8  11
ENDBRANCH   3   5
BRANCH   1  24
ATOM     23  C   UNL     1      -1.737  11.794  20.319  0.00  0.00    +0.000 C 
ATOM     24  C   UNL     1      -0.570  11.778  20.981  0.00  0.00    +0.000 C 
BRANCH  23  29
ATOM     25  C   UNL     1      -4.386  13.143  22.644  0.00  0.00    +0.000 A 
ATOM     26  C   UNL     1      -5.401  13.449  21.734  0.00  0.00    +0.000 A 
ATOM     27  C   UNL     1      -5.199  13.231  20.371  0.00  0.00    +0.000 A 
ATOM     28  C   UNL     1      -3.993  12.690  19.927  0.00  0.00    +0.000 A 
ATOM     29  C   UNL     1      -2.976  12.370  20.836  0.00  0.00    +0.000 A 
ATOM     30  C   UNL     1      -3.167  12.632  22.194  0.00  0.00    +0.000 A 
BRANCH  25  32
ATOM     31  N   UNL     1      -4.883  12.280  24.830  0.00  0.00    +0.000 NA
ATOM     32  C   UNL     1      -4.593  13.310  24.106  0.00  0.00    +0.000 C 
ATOM     33  N   UNL     1      -4.525  14.553  24.663  0.00  0.00    +0.000 N 
ATOM     34  H   UNL     1      -4.962  12.557  25.809  0.00  0.00    +0.000 HD
ATOM     35  H   UNL     1      -5.038  14.661  25.530  0.00  0.00    +0.000 HD
ATOM     36  H   UNL     1      -4.720  15.318  24.024  0.00  0.00    +0.000 HD
ENDBRANCH  25  32
ENDBRANCH  23  29
ENDBRANCH   1  24
TORSDOF 7
ENDMDL
