MODEL 1
REMARK VINA RESULT:      -9.3      0.000      0.000
REMARK  Name = 
REMARK  9 active torsions:
REMARK  status: ('A' for Active; 'I' for Inactive)
REMARK    1  A    between atoms: C_1  and  C_2
REMARK    2  A    between atoms: C_2  and  C_3
REMARK    3  A    between atoms: C_5  and  C_6
REMARK    4  A    between atoms: C_6  and  N_7
REMARK    5  A    between atoms: C_9  and  C_10
REMARK    6  A    between atoms: C_17  and  C_18
REMARK    7  A    between atoms: N_20  and  C_21
REMARK    8  A    between atoms: C_21  and  C_22
REMARK    9  A    between atoms: C_26  and  C_27
REMARK                            x       y       z     vdW  Elec       q    Type
REMARK                         _______ _______ _______ _____ _____    ______ ____
ROOT
ATOM      1  N   UNL     1       6.720   4.800  17.688  0.00  0.00    +0.000 N 
ATOM      2  N   UNL     1       7.310   4.654  16.482  0.00  0.00    +0.000 NA
ATOM      3  C   UNL     1       6.324   4.315  15.648  0.00  0.00    +0.000 A 
ATOM      4  C   UNL     1       5.111   4.161  16.360  0.00  0.00    +0.000 A 
ATOM      5  C   UNL     1       5.380   4.459  17.688  0.00  0.00    +0.000 A 
ENDROOT
BRANCH   3   6
ATOM      6  C   UNL     1       6.545   4.188  14.210  0.00  0.00    +0.000 A 
ATOM      7  C   UNL     1       7.515   4.969  13.564  0.00  0.00    +0.000 A 
ATOM      8  C   UNL     1       7.693   4.876  12.183  0.00  0.00    +0.000 A 
ATOM      9  C   UNL     1       6.903   4.006  11.434  0.00  0.00    +0.000 A 
ATOM     10  C   UNL     1       5.935   3.225  12.065  0.00  0.00    +0.000 A 
ATOM     11  C   UNL     1       5.760   3.313  13.448  0.00  0.00    +0.000 A 
ENDBRANCH   3   6
BRANCH   5  12
ATOM     12  C   UNL     1       4.499   4.479  18.838  0.00  0.00    +0.000 C 
ATOM     13  O   UNL     1       4.400   3.550  19.630  0.00  0.00    +0.000 OA
ATOM     14  N   UNL     1       3.773   5.641  18.990  0.00  0.00    +0.000 N 
ATOM     15  H   UNL     1       3.752   6.313  18.239  0.00  0.00    +0.000 HD
BRANCH  14  16
ATOM     16  C   UNL     1       2.830   5.837  20.069  0.00  0.00    +0.000 C 
BRANCH  16  17
ATOM     17  C   UNL     1       2.126   7.169  19.941  0.00  0.00    +0.000 A 
ATOM     18  C   UNL     1       2.206   7.918  18.760  0.00  0.00    +0.000 A 
ATOM     19  C   UNL     1       1.536   9.139  18.646  0.00  0.00    +0.000 A 
ATOM     20  C   UNL     1       0.780   9.628  19.709  0.00  0.00    +0.000 A 
ATOM     21  C   UNL     1       0.680   8.900  20.903  0.00  0.00    +0.000 A 
ATOM     22  C   UNL     1       1.353   7.667  21.005  0.00  0.00    +0.000 A 
BRANCH  21  23
ATOM     23  C   UNL     1      -0.133   9.419  22.062  0.00  0.00    +0.000 C 
ATOM     24  F   UNL     1       0.617   9.744  23.153  0.00  0.00    +0.000 F 
ATOM     25  F   UNL     1      -0.837  10.542  21.747  0.00  0.00    +0.000 F 
ATOM     26  F   UNL     1      -1.051   8.514  22.500  0.00  0.00    +0.000 F 
ENDBRANCH  21  23
ENDBRANCH  16  17
ENDBRANCH  14  16
ENDBRANCH   5  12
BRANCH   1  27
ATOM     27  C   UNL     1       7.500   5.439  18.745  0.00  0.00    +0.000 C 
BRANCH  27  30
ATOM     28  C   UNL     1       8.378   8.953  18.178  0.00  0.00    +0.000 A 
ATOM     29  C   UNL     1       8.669   7.780  18.905  0.00  0.00    +0.000 A 
ATOM     30  C   UNL     1       7.769   6.854  18.438  0.00  0.00    +0.000 A 
ATOM     31  O   UNL     1       6.961   7.449  17.515  0.00  0.00    +0.000 OA
ATOM     32  N   UNL     1       7.343   8.769  17.350  0.00  0.00    +0.000 NA
BRANCH  28  34
ATOM     33  C   UNL     1       9.278  10.731  19.671  0.00  0.00    +0.000 C 
ATOM     34  C   UNL     1       9.086  10.258  18.238  0.00  0.00    +0.000 C 
ENDBRANCH  28  34
ENDBRANCH  27  30
ENDBRANCH   1  27
TORSDOF 8
ENDMDL
MODEL 2
REMARK VINA RESULT:      -8.9      4.665      8.143
REMARK  Name = 
REMARK  9 active torsions:
REMARK  status: ('A' for Active; 'I' for Inactive)
REMARK    1  A    between atoms: C_1  and  C_2
REMARK    2  A    between atoms: C_2  and  C_3
REMARK    3  A    between atoms: C_5  and  C_6
REMARK    4  A    between atoms: C_6  and  N_7
REMARK    5  A    between atoms: C_9  and  C_10
REMARK    6  A    between atoms: C_17  and  C_18
REMARK    7  A    between atoms: N_20  and  C_21
REMARK    8  A    between atoms: C_21  and  C_22
REMARK    9  A    between atoms: C_26  and  C_27
REMARK                            x       y       z     vdW  Elec       q    Type
REMARK                         _______ _______ _______ _____ _____    ______ ____
ROOT
ATOM      1  N   UNL     1       5.983   5.118  17.801  0.00  0.00    +0.000 N 
ATOM      2  N   UNL     1       5.296   4.789  18.917  0.00  0.00    +0.000 NA
ATOM      3  C   UNL     1       4.084   4.427  18.489  0.00  0.00    +0.000 A 
ATOM      4  C   UNL     1       3.982   4.616  17.090  0.00  0.00    +0.000 A 
ATOM      5  C   UNL     1       5.213   5.084  16.653  0.00  0.00    +0.000 A 
ENDROOT
BRANCH   3   6
ATOM      6  C   UNL     1       3.081   3.879  19.397  0.00  0.00    +0.000 A 
ATOM      7  C   UNL     1       1.724   4.203  19.243  0.00  0.00    +0.000 A 
ATOM      8  C   UNL     1       0.774   3.713  20.140  0.00  0.00    +0.000 A 
ATOM      9  C   UNL     1       1.169   2.898  21.199  0.00  0.00    +0.000 A 
ATOM     10  C   UNL     1       2.513   2.569  21.362  0.00  0.00    +0.000 A 
ATOM     11  C   UNL     1       3.465   3.055  20.462  0.00  0.00    +0.000 A 
ENDBRANCH   3   6
BRANCH   5  12
ATOM     12  C   UNL     1       5.665   5.421  15.319  0.00  0.00    +0.000 C 
ATOM     13  O   UNL     1       5.301   6.424  14.716  0.00  0.00    +0.000 OA
ATOM     14  N   UNL     1       6.555   4.526  14.766  0.00  0.00    +0.000 N 
ATOM     15  H   UNL     1       6.704   3.635  15.214  0.00  0.00    +0.000 HD
BRANCH  14  16
ATOM     16  C   UNL     1       7.101   4.688  13.437  0.00  0.00    +0.000 C 
BRANCH  16  17
ATOM     17  C   UNL     1       6.509   3.679  12.478  0.00  0.00    +0.000 A 
ATOM     18  C   UNL     1       7.274   2.614  11.987  0.00  0.00    +0.000 A 
ATOM     19  C   UNL     1       6.713   1.677  11.115  0.00  0.00    +0.000 A 
ATOM     20  C   UNL     1       5.381   1.793  10.723  0.00  0.00    +0.000 A 
ATOM     21  C   UNL     1       4.590   2.848  11.199  0.00  0.00    +0.000 A 
ATOM     22  C   UNL     1       5.163   3.783  12.082  0.00  0.00    +0.000 A 
BRANCH  21  23
ATOM     23  C   UNL     1       3.148   2.987  10.779  0.00  0.00    +0.000 C 
ATOM     24  F   UNL     1       2.754   2.059   9.862  0.00  0.00    +0.000 F 
ATOM     25  F   UNL     1       2.283   2.866  11.825  0.00  0.00    +0.000 F 
ATOM     26  F   UNL     1       2.886   4.199  10.215  0.00  0.00    +0.000 F 
ENDBRANCH  21  23
ENDBRANCH  16  17
ENDBRANCH  14  16
ENDBRANCH   5  12
BRANCH   1  27
ATOM     27  C   UNL     1       7.428   5.290  17.928  0.00  0.00    +0.000 C 
BRANCH  27  30
ATOM     28  C   UNL     1       8.453   8.765  18.487  0.00  0.00    +0.000 A 
ATOM     29  C   UNL     1       8.430   7.456  19.012  0.00  0.00    +0.000 A 
ATOM     30  C   UNL     1       7.795   6.711  18.050  0.00  0.00    +0.000 A 
ATOM     31  O   UNL     1       7.425   7.533  17.027  0.00  0.00    +0.000 OA
ATOM     32  N   UNL     1       7.839   8.826  17.300  0.00  0.00    +0.000 NA
BRANCH  28  34
ATOM     33  C   UNL     1       9.523  10.965  18.026  0.00  0.00    +0.000 C 
ATOM     34  C   UNL     1       9.076   9.973  19.088  0.00  0.00    +0.000 C 
ENDBRANCH  28  34
ENDBRANCH  27  30
ENDBRANCH   1  27
TORSDOF 8
ENDMDL
MODEL 3
REMARK VINA RESULT:      -8.9      1.621      2.275
REMARK  Name = 
REMARK  9 active torsions:
REMARK  status: ('A' for Active; 'I' for Inactive)
REMARK    1  A    between atoms: C_1  and  C_2
REMARK    2  A    between atoms: C_2  and  C_3
REMARK    3  A    between atoms: C_5  and  C_6
REMARK    4  A    between atoms: C_6  and  N_7
REMARK    5  A    between atoms: C_9  and  C_10
REMARK    6  A    between atoms: C_17  and  C_18
REMARK    7  A    between atoms: N_20  and  C_21
REMARK    8  A    between atoms: C_21  and  C_22
REMARK    9  A    between atoms: C_26  and  C_27
REMARK                            x       y       z     vdW  Elec       q    Type
REMARK                         _______ _______ _______ _____ _____    ______ ____
ROOT
ATOM      1  N   UNL     1       6.926   4.799  17.604  0.00  0.00    +0.000 N 
ATOM      2  N   UNL     1       7.451   4.743  16.360  0.00  0.00    +0.000 NA
ATOM      3  C   UNL     1       6.449   4.336  15.576  0.00  0.00    +0.000 A 
ATOM      4  C   UNL     1       5.302   4.050  16.354  0.00  0.00    +0.000 A 
ATOM      5  C   UNL     1       5.626   4.334  17.673  0.00  0.00    +0.000 A 
ENDROOT
BRANCH   3   6
ATOM      6  C   UNL     1       6.589   4.270  14.124  0.00  0.00    +0.000 A 
ATOM      7  C   UNL     1       5.848   3.343  13.376  0.00  0.00    +0.000 A 
ATOM      8  C   UNL     1       6.017   3.253  11.994  0.00  0.00    +0.000 A 
ATOM      9  C   UNL     1       6.929   4.086  11.346  0.00  0.00    +0.000 A 
ATOM     10  C   UNL     1       7.670   5.011  12.079  0.00  0.00    +0.000 A 
ATOM     11  C   UNL     1       7.498   5.106  13.462  0.00  0.00    +0.000 A 
ENDBRANCH   3   6
BRANCH   5  12
ATOM     12  C   UNL     1       4.822   4.240  18.874  0.00  0.00    +0.000 C 
ATOM     13  O   UNL     1       5.006   3.401  19.747  0.00  0.00    +0.000 OA
ATOM     14  N   UNL     1       3.820   5.183  18.975  0.00  0.00    +0.000 N 
ATOM     15  H   UNL     1       3.589   5.747  18.172  0.00  0.00    +0.000 HD
BRANCH  14  16
ATOM     16  C   UNL     1       2.906   5.234  20.094  0.00  0.00    +0.000 C 
BRANCH  16  17
ATOM     17  C   UNL     1       2.204   6.571  20.162  0.00  0.00    +0.000 A 
ATOM     18  C   UNL     1       1.519   6.969  21.318  0.00  0.00    +0.000 A 
ATOM     19  C   UNL     1       0.888   8.214  21.378  0.00  0.00    +0.000 A 
ATOM     20  C   UNL     1       0.931   9.077  20.284  0.00  0.00    +0.000 A 
ATOM     21  C   UNL     1       1.609   8.706  19.114  0.00  0.00    +0.000 A 
ATOM     22  C   UNL     1       2.247   7.452  19.067  0.00  0.00    +0.000 A 
BRANCH  21  23
ATOM     23  C   UNL     1       1.659   9.629  17.922  0.00  0.00    +0.000 C 
ATOM     24  F   UNL     1       0.430   9.962  17.437  0.00  0.00    +0.000 F 
ATOM     25  F   UNL     1       2.283  10.808  18.198  0.00  0.00    +0.000 F 
ATOM     26  F   UNL     1       2.336   9.085  16.873  0.00  0.00    +0.000 F 
ENDBRANCH  21  23
ENDBRANCH  16  17
ENDBRANCH  14  16
ENDBRANCH   5  12
BRANCH   1  27
ATOM     27  C   UNL     1       7.710   5.478  18.633  0.00  0.00    +0.000 C 
BRANCH  27  30
ATOM     28  C   UNL     1       8.263   9.066  18.122  0.00  0.00    +0.000 A 
ATOM     29  C   UNL     1       8.595   7.932  18.892  0.00  0.00    +0.000 A 
ATOM     30  C   UNL     1       7.858   6.915  18.340  0.00  0.00    +0.000 A 
ATOM     31  O   UNL     1       7.099   7.417  17.325  0.00  0.00    +0.000 OA
ATOM     32  N   UNL     1       7.353   8.771  17.186  0.00  0.00    +0.000 NA
BRANCH  28  34
ATOM     33  C   UNL     1       9.648  10.604  19.506  0.00  0.00    +0.000 C 
ATOM     34  C   UNL     1       8.816  10.440  18.243  0.00  0.00    +0.000 C 
ENDBRANCH  28  34
ENDBRANCH  27  30
ENDBRANCH   1  27
TORSDOF 8
ENDMDL
MODEL 4
REMARK VINA RESULT:      -8.9      0.432      1.155
REMARK  Name = 
REMARK  9 active torsions:
REMARK  status: ('A' for Active; 'I' for Inactive)
REMARK    1  A    between atoms: C_1  and  C_2
REMARK    2  A    between atoms: C_2  and  C_3
REMARK    3  A    between atoms: C_5  and  C_6
REMARK    4  A    between atoms: C_6  and  N_7
REMARK    5  A    between atoms: C_9  and  C_10
REMARK    6  A    between atoms: C_17  and  C_18
REMARK    7  A    between atoms: N_20  and  C_21
REMARK    8  A    between atoms: C_21  and  C_22
REMARK    9  A    between atoms: C_26  and  C_27
REMARK                            x       y       z     vdW  Elec       q    Type
REMARK                         _______ _______ _______ _____ _____    ______ ____
ROOT
ATOM      1  N   UNL     1       6.931   5.073  17.563  0.00  0.00    +0.000 N 
ATOM      2  N   UNL     1       7.427   4.805  16.335  0.00  0.00    +0.000 NA
ATOM      3  C   UNL     1       6.361   4.524  15.580  0.00  0.00    +0.000 A 
ATOM      4  C   UNL     1       5.186   4.531  16.370  0.00  0.00    +0.000 A 
ATOM      5  C   UNL     1       5.567   4.869  17.660  0.00  0.00    +0.000 A 
ENDROOT
BRANCH   3   6
ATOM      6  C   UNL     1       6.476   4.301  14.142  0.00  0.00    +0.000 A 
ATOM      7  C   UNL     1       5.624   3.398  13.489  0.00  0.00    +0.000 A 
ATOM      8  C   UNL     1       5.766   3.155  12.122  0.00  0.00    +0.000 A 
ATOM      9  C   UNL     1       6.761   3.807  11.396  0.00  0.00    +0.000 A 
ATOM     10  C   UNL     1       7.614   4.705  12.035  0.00  0.00    +0.000 A 
ATOM     11  C   UNL     1       7.470   4.954  13.402  0.00  0.00    +0.000 A 
ENDBRANCH   3   6
BRANCH   5  12
ATOM     12  C   UNL     1       4.767   5.039  18.857  0.00  0.00    +0.000 C 
ATOM     13  O   UNL     1       5.210   4.897  19.990  0.00  0.00    +0.000 OA
ATOM     14  N   UNL     1       3.453   5.385  18.629  0.00  0.00    +0.000 N 
ATOM     15  H   UNL     1       3.081   5.331  17.693  0.00  0.00    +0.000 HD
BRANCH  14  16
ATOM     16  C   UNL     1       2.500   5.580  19.699  0.00  0.00    +0.000 C 
BRANCH  16  17
ATOM     17  C   UNL     1       2.005   7.008  19.735  0.00  0.00    +0.000 A 
ATOM     18  C   UNL     1       2.244   7.882  18.666  0.00  0.00    +0.000 A 
ATOM     19  C   UNL     1       1.766   9.194  18.700  0.00  0.00    +0.000 A 
ATOM     20  C   UNL     1       1.046   9.652  19.802  0.00  0.00    +0.000 A 
ATOM     21  C   UNL     1       0.790   8.800  20.886  0.00  0.00    +0.000 A 
ATOM     22  C   UNL     1       1.270   7.477  20.838  0.00  0.00    +0.000 A 
BRANCH  21  23
ATOM     23  C   UNL     1       0.015   9.283  22.086  0.00  0.00    +0.000 C 
ATOM     24  F   UNL     1      -0.942   8.409  22.507  0.00  0.00    +0.000 F 
ATOM     25  F   UNL     1       0.812   9.512  23.167  0.00  0.00    +0.000 F 
ATOM     26  F   UNL     1      -0.635  10.456  21.846  0.00  0.00    +0.000 F 
ENDBRANCH  21  23
ENDBRANCH  16  17
ENDBRANCH  14  16
ENDBRANCH   5  12
BRANCH   1  27
ATOM     27  C   UNL     1       7.836   5.684  18.534  0.00  0.00    +0.000 C 
BRANCH  27  30
ATOM     28  C   UNL     1       8.395   9.288  18.163  0.00  0.00    +0.000 A 
ATOM     29  C   UNL     1       8.728   8.123  18.885  0.00  0.00    +0.000 A 
ATOM     30  C   UNL     1       7.986   7.130  18.297  0.00  0.00    +0.000 A 
ATOM     31  O   UNL     1       7.223   7.675  17.307  0.00  0.00    +0.000 OA
ATOM     32  N   UNL     1       7.480   9.032  17.221  0.00  0.00    +0.000 NA
BRANCH  28  34
ATOM     33  C   UNL     1       9.645  10.816  19.681  0.00  0.00    +0.000 C 
ATOM     34  C   UNL     1       8.952  10.655  18.336  0.00  0.00    +0.000 C 
ENDBRANCH  28  34
ENDBRANCH  27  30
ENDBRANCH   1  27
TORSDOF 8
ENDMDL
MODEL 5
REMARK VINA RESULT:      -8.4      4.341      7.079
REMARK  Name = 
REMARK  9 active torsions:
REMARK  status: ('A' for Active; 'I' for Inactive)
REMARK    1  A    between atoms: C_1  and  C_2
REMARK    2  A    between atoms: C_2  and  C_3
REMARK    3  A    between atoms: C_5  and  C_6
REMARK    4  A    between atoms: C_6  and  N_7
REMARK    5  A    between atoms: C_9  and  C_10
REMARK    6  A    between atoms: C_17  and  C_18
REMARK    7  A    between atoms: N_20  and  C_21
REMARK    8  A    between atoms: C_21  and  C_22
REMARK    9  A    between atoms: C_26  and  C_27
REMARK                            x       y       z     vdW  Elec       q    Type
REMARK                         _______ _______ _______ _____ _____    ______ ____
ROOT
ATOM      1  N   UNL     1       5.446   6.464  16.464  0.00  0.00    +0.000 N 
ATOM      2  N   UNL     1       5.069   5.944  15.275  0.00  0.00    +0.000 NA
ATOM      3  C   UNL     1       6.109   5.210  14.869  0.00  0.00    +0.000 A 
ATOM      4  C   UNL     1       7.186   5.341  15.777  0.00  0.00    +0.000 A 
ATOM      5  C   UNL     1       6.755   6.173  16.800  0.00  0.00    +0.000 A 
ENDROOT
BRANCH   3   6
ATOM      6  C   UNL     1       6.040   4.380  13.670  0.00  0.00    +0.000 A 
ATOM      7  C   UNL     1       4.811   3.868  13.224  0.00  0.00    +0.000 A 
ATOM      8  C   UNL     1       4.756   3.040  12.103  0.00  0.00    +0.000 A 
ATOM      9  C   UNL     1       5.925   2.713  11.417  0.00  0.00    +0.000 A 
ATOM     10  C   UNL     1       7.150   3.215  11.851  0.00  0.00    +0.000 A 
ATOM     11  C   UNL     1       7.207   4.049  12.970  0.00  0.00    +0.000 A 
ENDBRANCH   3   6
BRANCH   5  12
ATOM     12  C   UNL     1       7.445   6.623  17.992  0.00  0.00    +0.000 C 
ATOM     13  O   UNL     1       7.568   5.939  19.001  0.00  0.00    +0.000 OA
ATOM     14  N   UNL     1       7.971   7.895  17.910  0.00  0.00    +0.000 N 
ATOM     15  H   UNL     1       7.711   8.489  17.138  0.00  0.00    +0.000 HD
BRANCH  14  16
ATOM     16  C   UNL     1       8.677   8.520  19.006  0.00  0.00    +0.000 C 
BRANCH  16  17
ATOM     17  C   UNL     1       8.968   9.973  18.709  0.00  0.00    +0.000 A 
ATOM     18  C   UNL     1       8.229  10.676  17.748  0.00  0.00    +0.000 A 
ATOM     19  C   UNL     1       8.493  12.024  17.493  0.00  0.00    +0.000 A 
ATOM     20  C   UNL     1       9.498  12.688  18.194  0.00  0.00    +0.000 A 
ATOM     21  C   UNL     1      10.253  12.011  19.163  0.00  0.00    +0.000 A 
ATOM     22  C   UNL     1       9.975  10.655  19.416  0.00  0.00    +0.000 A 
BRANCH  21  23
ATOM     23  C   UNL     1      11.347  12.717  19.925  0.00  0.00    +0.000 C 
ATOM     24  F   UNL     1      11.997  13.667  19.195  0.00  0.00    +0.000 F 
ATOM     25  F   UNL     1      10.883  13.354  21.036  0.00  0.00    +0.000 F 
ATOM     26  F   UNL     1      12.312  11.861  20.361  0.00  0.00    +0.000 F 
ENDBRANCH  21  23
ENDBRANCH  16  17
ENDBRANCH  14  16
ENDBRANCH   5  12
BRANCH   1  27
ATOM     27  C   UNL     1       4.410   7.089  17.282  0.00  0.00    +0.000 C 
BRANCH  27  30
ATOM     28  C   UNL     1       2.440   4.555  19.053  0.00  0.00    +0.000 A 
ATOM     29  C   UNL     1       2.646   5.229  17.831  0.00  0.00    +0.000 A 
ATOM     30  C   UNL     1       3.682   6.093  18.087  0.00  0.00    +0.000 A 
ATOM     31  O   UNL     1       4.048   5.971  19.394  0.00  0.00    +0.000 OA
ATOM     32  N   UNL     1       3.267   5.003  20.004  0.00  0.00    +0.000 NA
BRANCH  28  34
ATOM     33  C   UNL     1       1.939   2.134  18.756  0.00  0.00    +0.000 C 
ATOM     34  C   UNL     1       1.474   3.461  19.334  0.00  0.00    +0.000 C 
ENDBRANCH  28  34
ENDBRANCH  27  30
ENDBRANCH   1  27
TORSDOF 8
ENDMDL
MODEL 6
REMARK VINA RESULT:      -8.4      4.475      7.151
REMARK  Name = 
REMARK  9 active torsions:
REMARK  status: ('A' for Active; 'I' for Inactive)
REMARK    1  A    between atoms: C_1  and  C_2
REMARK    2  A    between atoms: C_2  and  C_3
REMARK    3  A    between atoms: C_5  and  C_6
REMARK    4  A    between atoms: C_6  and  N_7
REMARK    5  A    between atoms: C_9  and  C_10
REMARK    6  A    between atoms: C_17  and  C_18
REMARK    7  A    between atoms: N_20  and  C_21
REMARK    8  A    between atoms: C_21  and  C_22
REMARK    9  A    between atoms: C_26  and  C_27
REMARK                            x       y       z     vdW  Elec       q    Type
REMARK                         _______ _______ _______ _____ _____    ______ ____
ROOT
ATOM      1  N   UNL     1       5.438   6.310  16.655  0.00  0.00    +0.000 N 
ATOM      2  N   UNL     1       5.061   5.788  15.467  0.00  0.00    +0.000 NA
ATOM      3  C   UNL     1       6.158   5.201  14.980  0.00  0.00    +0.000 A 
ATOM      4  C   UNL     1       7.260   5.434  15.836  0.00  0.00    +0.000 A 
ATOM      5  C   UNL     1       6.789   6.172  16.912  0.00  0.00    +0.000 A 
ENDROOT
BRANCH   3   6
ATOM      6  C   UNL     1       6.124   4.410  13.753  0.00  0.00    +0.000 A 
ATOM      7  C   UNL     1       7.256   4.319  12.929  0.00  0.00    +0.000 A 
ATOM      8  C   UNL     1       7.206   3.598  11.736  0.00  0.00    +0.000 A 
ATOM      9  C   UNL     1       6.025   2.963  11.353  0.00  0.00    +0.000 A 
ATOM     10  C   UNL     1       4.894   3.046  12.163  0.00  0.00    +0.000 A 
ATOM     11  C   UNL     1       4.944   3.763  13.361  0.00  0.00    +0.000 A 
ENDBRANCH   3   6
BRANCH   5  12
ATOM     12  C   UNL     1       7.484   6.664  18.084  0.00  0.00    +0.000 C 
ATOM     13  O   UNL     1       7.624   6.010  19.111  0.00  0.00    +0.000 OA
ATOM     14  N   UNL     1       7.995   7.939  17.961  0.00  0.00    +0.000 N 
ATOM     15  H   UNL     1       7.722   8.507  17.175  0.00  0.00    +0.000 HD
BRANCH  14  16
ATOM     16  C   UNL     1       8.704   8.602  19.033  0.00  0.00    +0.000 C 
BRANCH  16  17
ATOM     17  C   UNL     1       8.990  10.045  18.685  0.00  0.00    +0.000 A 
ATOM     18  C   UNL     1       8.180  10.744  17.780  0.00  0.00    +0.000 A 
ATOM     19  C   UNL     1       8.442  12.083  17.479  0.00  0.00    +0.000 A 
ATOM     20  C   UNL     1       9.516  12.741  18.075  0.00  0.00    +0.000 A 
ATOM     21  C   UNL     1      10.343  12.067  18.985  0.00  0.00    +0.000 A 
ATOM     22  C   UNL     1      10.067  10.720  19.287  0.00  0.00    +0.000 A 
BRANCH  21  23
ATOM     23  C   UNL     1      11.512  12.766  19.635  0.00  0.00    +0.000 C 
ATOM     24  F   UNL     1      11.145  13.714  20.542  0.00  0.00    +0.000 F 
ATOM     25  F   UNL     1      12.331  11.907  20.303  0.00  0.00    +0.000 F 
ATOM     26  F   UNL     1      12.302  13.407  18.729  0.00  0.00    +0.000 F 
ENDBRANCH  21  23
ENDBRANCH  16  17
ENDBRANCH  14  16
ENDBRANCH   5  12
BRANCH   1  27
ATOM     27  C   UNL     1       4.380   6.776  17.549  0.00  0.00    +0.000 C 
BRANCH  27  30
ATOM     28  C   UNL     1       2.807   3.966  19.302  0.00  0.00    +0.000 A 
ATOM     29  C   UNL     1       2.846   4.727  18.115  0.00  0.00    +0.000 A 
ATOM     30  C   UNL     1       3.818   5.669  18.343  0.00  0.00    +0.000 A 
ATOM     31  O   UNL     1       4.305   5.507  19.605  0.00  0.00    +0.000 OA
ATOM     32  N   UNL     1       3.670   4.435  20.210  0.00  0.00    +0.000 NA
BRANCH  28  34
ATOM     33  C   UNL     1       0.771   2.686  18.658  0.00  0.00    +0.000 C 
ATOM     34  C   UNL     1       1.972   2.770  19.587  0.00  0.00    +0.000 C 
ENDBRANCH  28  34
ENDBRANCH  27  30
ENDBRANCH   1  27
TORSDOF 8
ENDMDL
MODEL 7
REMARK VINA RESULT:      -8.4      1.619      2.119
REMARK  Name = 
REMARK  9 active torsions:
REMARK  status: ('A' for Active; 'I' for Inactive)
REMARK    1  A    between atoms: C_1  and  C_2
REMARK    2  A    between atoms: C_2  and  C_3
REMARK    3  A    between atoms: C_5  and  C_6
REMARK    4  A    between atoms: C_6  and  N_7
REMARK    5  A    between atoms: C_9  and  C_10
REMARK    6  A    between atoms: C_17  and  C_18
REMARK    7  A    between atoms: N_20  and  C_21
REMARK    8  A    between atoms: C_21  and  C_22
REMARK    9  A    between atoms: C_26  and  C_27
REMARK                            x       y       z     vdW  Elec       q    Type
REMARK                         _______ _______ _______ _____ _____    ______ ____
ROOT
ATOM      1  N   UNL     1       6.860   4.867  17.788  0.00  0.00    +0.000 N 
ATOM      2  N   UNL     1       7.452   4.832  16.574  0.00  0.00    +0.000 NA
ATOM      3  C   UNL     1       6.510   4.389  15.738  0.00  0.00    +0.000 A 
ATOM      4  C   UNL     1       5.335   4.059  16.454  0.00  0.00    +0.000 A 
ATOM      5  C   UNL     1       5.576   4.354  17.788  0.00  0.00    +0.000 A 
ENDROOT
BRANCH   3   6
ATOM      6  C   UNL     1       6.730   4.330  14.295  0.00  0.00    +0.000 A 
ATOM      7  C   UNL     1       7.631   5.207  13.674  0.00  0.00    +0.000 A 
ATOM      8  C   UNL     1       7.806   5.177  12.290  0.00  0.00    +0.000 A 
ATOM      9  C   UNL     1       7.082   4.274  11.514  0.00  0.00    +0.000 A 
ATOM     10  C   UNL     1       6.184   3.397  12.120  0.00  0.00    +0.000 A 
ATOM     11  C   UNL     1       6.012   3.423  13.506  0.00  0.00    +0.000 A 
ENDBRANCH   3   6
BRANCH   5  12
ATOM     12  C   UNL     1       4.713   4.229  18.944  0.00  0.00    +0.000 C 
ATOM     13  O   UNL     1       4.800   3.315  19.756  0.00  0.00    +0.000 OA
ATOM     14  N   UNL     1       3.775   5.230  19.077  0.00  0.00    +0.000 N 
ATOM     15  H   UNL     1       3.621   5.868  18.312  0.00  0.00    +0.000 HD
BRANCH  14  16
ATOM     16  C   UNL     1       2.816   5.263  20.159  0.00  0.00    +0.000 C 
BRANCH  16  17
ATOM     17  C   UNL     1       2.115   6.601  20.224  0.00  0.00    +0.000 A 
ATOM     18  C   UNL     1       1.406   6.990  21.368  0.00  0.00    +0.000 A 
ATOM     19  C   UNL     1       0.777   8.236  21.426  0.00  0.00    +0.000 A 
ATOM     20  C   UNL     1       0.845   9.109  20.342  0.00  0.00    +0.000 A 
ATOM     21  C   UNL     1       1.549   8.748  19.184  0.00  0.00    +0.000 A 
ATOM     22  C   UNL     1       2.185   7.493  19.139  0.00  0.00    +0.000 A 
BRANCH  21  23
ATOM     23  C   UNL     1       1.628   9.682  18.002  0.00  0.00    +0.000 C 
ATOM     24  F   UNL     1       2.403   9.211  16.985  0.00  0.00    +0.000 F 
ATOM     25  F   UNL     1       0.408   9.937  17.453  0.00  0.00    +0.000 F 
ATOM     26  F   UNL     1       2.150  10.896  18.334  0.00  0.00    +0.000 F 
ENDBRANCH  21  23
ENDBRANCH  16  17
ENDBRANCH  14  16
ENDBRANCH   5  12
BRANCH   1  27
ATOM     27  C   UNL     1       7.562   5.575  18.857  0.00  0.00    +0.000 C 
BRANCH  27  30
ATOM     28  C   UNL     1       8.428   9.068  18.158  0.00  0.00    +0.000 A 
ATOM     29  C   UNL     1       8.681   7.942  18.971  0.00  0.00    +0.000 A 
ATOM     30  C   UNL     1       7.832   6.976  18.491  0.00  0.00    +0.000 A 
ATOM     31  O   UNL     1       7.088   7.503  17.478  0.00  0.00    +0.000 OA
ATOM     32  N   UNL     1       7.462   8.819  17.267  0.00  0.00    +0.000 NA
BRANCH  28  34
ATOM     33  C   UNL     1       8.159  11.526  17.866  0.00  0.00    +0.000 C 
ATOM     34  C   UNL     1       9.111  10.387  18.197  0.00  0.00    +0.000 C 
ENDBRANCH  28  34
ENDBRANCH  27  30
ENDBRANCH   1  27
TORSDOF 8
ENDMDL
MODEL 8
REMARK VINA RESULT:      -8.4      4.557      8.043
REMARK  Name = 
REMARK  9 active torsions:
REMARK  status: ('A' for Active; 'I' for Inactive)
REMARK    1  A    between atoms: C_1  and  C_2
REMARK    2  A    between atoms: C_2  and  C_3
REMARK    3  A    between atoms: C_5  and  C_6
REMARK    4  A    between atoms: C_6  and  N_7
REMARK    5  A    between atoms: C_9  and  C_10
REMARK    6  A    between atoms: C_17  and  C_18
REMARK    7  A    between atoms: N_20  and  C_21
REMARK    8  A    between atoms: C_21  and  C_22
REMARK    9  A    between atoms: C_26  and  C_27
REMARK                            x       y       z     vdW  Elec       q    Type
REMARK                         _______ _______ _______ _____ _____    ______ ____
ROOT
ATOM      1  N   UNL     1       6.336   5.151  18.278  0.00  0.00    +0.000 N 
ATOM      2  N   UNL     1       5.327   5.095  19.175  0.00  0.00    +0.000 NA
ATOM      3  C   UNL     1       4.359   4.401  18.571  0.00  0.00    +0.000 A 
ATOM      4  C   UNL     1       4.734   4.091  17.242  0.00  0.00    +0.000 A 
ATOM      5  C   UNL     1       6.012   4.598  17.053  0.00  0.00    +0.000 A 
ENDROOT
BRANCH   3   6
ATOM      6  C   UNL     1       3.137   4.019  19.272  0.00  0.00    +0.000 A 
ATOM      7  C   UNL     1       2.331   4.990  19.886  0.00  0.00    +0.000 A 
ATOM      8  C   UNL     1       1.188   4.616  20.593  0.00  0.00    +0.000 A 
ATOM      9  C   UNL     1       0.839   3.270  20.695  0.00  0.00    +0.000 A 
ATOM     10  C   UNL     1       1.631   2.297  20.089  0.00  0.00    +0.000 A 
ATOM     11  C   UNL     1       2.774   2.670  19.377  0.00  0.00    +0.000 A 
ENDBRANCH   3   6
BRANCH   5  12
ATOM     12  C   UNL     1       6.876   4.546  15.891  0.00  0.00    +0.000 C 
ATOM     13  O   UNL     1       8.078   4.318  15.952  0.00  0.00    +0.000 OA
ATOM     14  N   UNL     1       6.240   4.765  14.688  0.00  0.00    +0.000 N 
ATOM     15  H   UNL     1       5.293   5.111  14.684  0.00  0.00    +0.000 HD
BRANCH  14  16
ATOM     16  C   UNL     1       6.941   4.769  13.423  0.00  0.00    +0.000 C 
BRANCH  16  17
ATOM     17  C   UNL     1       6.361   3.744  12.475  0.00  0.00    +0.000 A 
ATOM     18  C   UNL     1       7.100   2.621  12.085  0.00  0.00    +0.000 A 
ATOM     19  C   UNL     1       6.549   1.670  11.222  0.00  0.00    +0.000 A 
ATOM     20  C   UNL     1       5.252   1.829  10.738  0.00  0.00    +0.000 A 
ATOM     21  C   UNL     1       4.487   2.944  11.112  0.00  0.00    +0.000 A 
ATOM     22  C   UNL     1       5.050   3.892  11.987  0.00  0.00    +0.000 A 
BRANCH  21  23
ATOM     23  C   UNL     1       3.083   3.130  10.592  0.00  0.00    +0.000 C 
ATOM     24  F   UNL     1       2.789   4.419  10.264  0.00  0.00    +0.000 F 
ATOM     25  F   UNL     1       2.837   2.395   9.472  0.00  0.00    +0.000 F 
ATOM     26  F   UNL     1       2.139   2.754  11.499  0.00  0.00    +0.000 F 
ENDBRANCH  21  23
ENDBRANCH  16  17
ENDBRANCH  14  16
ENDBRANCH   5  12
BRANCH   1  27
ATOM     27  C   UNL     1       7.637   5.609  18.758  0.00  0.00    +0.000 C 
BRANCH  27  30
ATOM     28  C   UNL     1       8.368   9.158  18.200  0.00  0.00    +0.000 A 
ATOM     29  C   UNL     1       8.629   8.024  18.997  0.00  0.00    +0.000 A 
ATOM     30  C   UNL     1       7.858   7.032  18.444  0.00  0.00    +0.000 A 
ATOM     31  O   UNL     1       7.148   7.550  17.403  0.00  0.00    +0.000 OA
ATOM     32  N   UNL     1       7.468   8.889  17.248  0.00  0.00    +0.000 NA
BRANCH  28  34
ATOM     33  C   UNL     1       9.768  10.664  19.604  0.00  0.00    +0.000 C 
ATOM     34  C   UNL     1       8.981  10.507  18.312  0.00  0.00    +0.000 C 
ENDBRANCH  28  34
ENDBRANCH  27  30
ENDBRANCH   1  27
TORSDOF 8
ENDMDL
MODEL 9
REMARK VINA RESULT:      -8.3      5.919      9.955
REMARK  Name = 
REMARK  9 active torsions:
REMARK  status: ('A' for Active; 'I' for Inactive)
REMARK    1  A    between atoms: C_1  and  C_2
REMARK    2  A    between atoms: C_2  and  C_3
REMARK    3  A    between atoms: C_5  and  C_6
REMARK    4  A    between atoms: C_6  and  N_7
REMARK    5  A    between atoms: C_9  and  C_10
REMARK    6  A    between atoms: C_17  and  C_18
REMARK    7  A    between atoms: N_20  and  C_21
REMARK    8  A    between atoms: C_21  and  C_22
REMARK    9  A    between atoms: C_26  and  C_27
REMARK                            x       y       z     vdW  Elec       q    Type
REMARK                         _______ _______ _______ _____ _____    ______ ____
ROOT
ATOM      1  N   UNL     1      -0.746  12.520  20.095  0.00  0.00    +0.000 N 
ATOM      2  N   UNL     1      -0.439  13.676  19.469  0.00  0.00    +0.000 NA
ATOM      3  C   UNL     1       0.896  13.715  19.437  0.00  0.00    +0.000 A 
ATOM      4  C   UNL     1       1.434  12.606  20.132  0.00  0.00    +0.000 A 
ATOM      5  C   UNL     1       0.362  11.844  20.573  0.00  0.00    +0.000 A 
ENDROOT
BRANCH   3   6
ATOM      6  C   UNL     1       1.616  14.765  18.723  0.00  0.00    +0.000 A 
ATOM      7  C   UNL     1       2.830  14.486  18.077  0.00  0.00    +0.000 A 
ATOM      8  C   UNL     1       3.538  15.501  17.433  0.00  0.00    +0.000 A 
ATOM      9  C   UNL     1       3.042  16.804  17.430  0.00  0.00    +0.000 A 
ATOM     10  C   UNL     1       1.838  17.093  18.069  0.00  0.00    +0.000 A 
ATOM     11  C   UNL     1       1.125  16.077  18.710  0.00  0.00    +0.000 A 
ENDBRANCH   3   6
BRANCH   5  12
ATOM     12  C   UNL     1       0.342  10.600  21.315  0.00  0.00    +0.000 C 
ATOM     13  O   UNL     1      -0.343  10.420  22.315  0.00  0.00    +0.000 OA
ATOM     14  N   UNL     1       1.154   9.609  20.804  0.00  0.00    +0.000 N 
ATOM     15  H   UNL     1       1.823   9.839  20.087  0.00  0.00    +0.000 HD
BRANCH  14  16
ATOM     16  C   UNL     1       1.277   8.306  21.420  0.00  0.00    +0.000 C 
BRANCH  16  17
ATOM     17  C   UNL     1       1.704   7.265  20.410  0.00  0.00    +0.000 A 
ATOM     18  C   UNL     1       2.224   7.638  19.164  0.00  0.00    +0.000 A 
ATOM     19  C   UNL     1       2.633   6.669  18.245  0.00  0.00    +0.000 A 
ATOM     20  C   UNL     1       2.527   5.315  18.557  0.00  0.00    +0.000 A 
ATOM     21  C   UNL     1       2.011   4.911  19.797  0.00  0.00    +0.000 A 
ATOM     22  C   UNL     1       1.608   5.896  20.719  0.00  0.00    +0.000 A 
BRANCH  21  23
ATOM     23  C   UNL     1       1.887   3.449  20.147  0.00  0.00    +0.000 C 
ATOM     24  F   UNL     1       2.307   2.613  19.155  0.00  0.00    +0.000 F 
ATOM     25  F   UNL     1       2.611   3.111  21.250  0.00  0.00    +0.000 F 
ATOM     26  F   UNL     1       0.603   3.087  20.417  0.00  0.00    +0.000 F 
ENDBRANCH  21  23
ENDBRANCH  16  17
ENDBRANCH  14  16
ENDBRANCH   5  12
BRANCH   1  27
ATOM     27  C   UNL     1      -2.134  12.069  20.032  0.00  0.00    +0.000 C 
BRANCH  27  30
ATOM     28  C   UNL     1      -2.720  10.642  16.706  0.00  0.00    +0.000 A 
ATOM     29  C   UNL     1      -1.820  10.753  17.787  0.00  0.00    +0.000 A 
ATOM     30  C   UNL     1      -2.473  11.547  18.697  0.00  0.00    +0.000 A 
ATOM     31  O   UNL     1      -3.675  11.921  18.176  0.00  0.00    +0.000 OA
ATOM     32  N   UNL     1      -3.833  11.352  16.923  0.00  0.00    +0.000 NA
BRANCH  28  34
ATOM     33  C   UNL     1      -3.620  10.176  14.432  0.00  0.00    +0.000 C 
ATOM     34  C   UNL     1      -2.552   9.845  15.463  0.00  0.00    +0.000 C 
ENDBRANCH  28  34
ENDBRANCH  27  30
ENDBRANCH   1  27
TORSDOF 8
ENDMDL
