MODEL 1
REMARK VINA RESULT:      -8.1      0.000      0.000
REMARK  Name = 
REMARK  6 active torsions:
REMARK  status: ('A' for Active; 'I' for Inactive)
REMARK    1  A    between atoms: C_1  and  O_2
REMARK    2  A    between atoms: O_2  and  C_3
REMARK    3  A    between atoms: C_6  and  N_7
REMARK    4  A    between atoms: C_11  and  C_12
REMARK    5  A    between atoms: C_17  and  C_18
REMARK    6  A    between atoms: C_25  and  C_26
REMARK                            x       y       z     vdW  Elec       q    Type
REMARK                         _______ _______ _______ _____ _____    ______ ____
ROOT
ATOM      1  C   UNL     1       1.607   7.313  20.658  0.00  0.00    +0.000 A 
ATOM      2  C   UNL     1       0.742   8.194  21.337  0.00  0.00    +0.000 A 
ATOM      3  C   UNL     1       0.278   9.351  20.734  0.00  0.00    +0.000 A 
ATOM      4  C   UNL     1       0.674   9.633  19.432  0.00  0.00    +0.000 A 
ATOM      5  C   UNL     1       1.649   8.842  18.803  0.00  0.00    +0.000 A 
ATOM      6  C   UNL     1       2.156   7.668  19.402  0.00  0.00    +0.000 A 
ENDROOT
BRANCH   6   7
ATOM      7  C   UNL     1       3.191   6.888  18.668  0.00  0.00    +0.000 C 
ATOM      8  C   UNL     1       3.160   6.450  17.402  0.00  0.00    +0.000 C 
ATOM      9  C   UNL     1       4.413   5.707  17.041  0.00  0.00    +0.000 C 
ATOM     10  C   UNL     1       5.157   6.439  15.900  0.00  0.00    +0.000 C 
ATOM     11  C   UNL     1       6.413   5.675  15.474  0.00  0.00    +0.000 C 
ATOM     12  C   UNL     1       6.072   4.243  15.077  0.00  0.00    +0.000 C 
ATOM     13  N   UNL     1       5.424   3.519  16.167  0.00  0.00    +0.000 NA
ATOM     14  C   UNL     1       4.182   4.197  16.617  0.00  0.00    +0.000 C 
ATOM     15  O   UNL     1       5.244   5.802  18.224  0.00  0.00    +0.000 OA
ATOM     16  C   UNL     1       4.500   6.486  19.261  0.00  0.00    +0.000 C 
ATOM     17  H   UNL     1       6.061   3.508  16.964  0.00  0.00    +0.000 HD
BRANCH  14  18
ATOM     18  C   UNL     1       3.508   3.334  17.685  0.00  0.00    +0.000 A 
ATOM     19  C   UNL     1       4.207   2.890  18.821  0.00  0.00    +0.000 A 
ATOM     20  C   UNL     1       3.580   2.114  19.797  0.00  0.00    +0.000 A 
ATOM     21  C   UNL     1       2.242   1.760  19.649  0.00  0.00    +0.000 A 
ATOM     22  C   UNL     1       1.539   2.163  18.516  0.00  0.00    +0.000 A 
ATOM     23  C   UNL     1       2.168   2.940  17.538  0.00  0.00    +0.000 A 
ENDBRANCH  14  18
ENDBRANCH   6   7
BRANCH   4  24
ATOM     24  N   UNL     1       0.063  10.718  18.772  0.00  0.00    +0.000 N 
ATOM     25  N   UNL     1      -1.101  10.538  18.092  0.00  0.00    +0.000 NA
ATOM     26  N   UNL     1      -1.486  11.737  17.708  0.00  0.00    +0.000 NA
ATOM     27  N   UNL     1      -0.546  12.678  18.019  0.00  0.00    +0.000 NA
ATOM     28  C   UNL     1       0.448  12.031  18.619  0.00  0.00    +0.000 A 
BRANCH  28  29
ATOM     29  C   UNL     1       1.794  12.555  18.885  0.00  0.00    +0.000 C 
ATOM     30  F   UNL     1       2.790  11.944  18.195  0.00  0.00    +0.000 F 
ATOM     31  F   UNL     1       1.888  13.870  18.558  0.00  0.00    +0.000 F 
ATOM     32  F   UNL     1       2.116  12.455  20.199  0.00  0.00    +0.000 F 
ENDBRANCH  28  29
ENDBRANCH   4  24
BRANCH   1  34
ATOM     33  C   UNL     1       1.211   4.991  20.632  0.00  0.00    +0.000 C 
ATOM     34  O   UNL     1       1.915   6.095  21.221  0.00  0.00    +0.000 OA
ENDBRANCH   1  34
TORSDOF 5
ENDMDL
MODEL 2
REMARK VINA RESULT:      -8.1      1.724      1.965
REMARK  Name = 
REMARK  6 active torsions:
REMARK  status: ('A' for Active; 'I' for Inactive)
REMARK    1  A    between atoms: C_1  and  O_2
REMARK    2  A    between atoms: O_2  and  C_3
REMARK    3  A    between atoms: C_6  and  N_7
REMARK    4  A    between atoms: C_11  and  C_12
REMARK    5  A    between atoms: C_17  and  C_18
REMARK    6  A    between atoms: C_25  and  C_26
REMARK                            x       y       z     vdW  Elec       q    Type
REMARK                         _______ _______ _______ _____ _____    ______ ____
ROOT
ATOM      1  C   UNL     1       1.554   7.117  20.650  0.00  0.00    +0.000 A 
ATOM      2  C   UNL     1       0.720   7.985  21.381  0.00  0.00    +0.000 A 
ATOM      3  C   UNL     1       0.420   9.254  20.914  0.00  0.00    +0.000 A 
ATOM      4  C   UNL     1       0.954   9.664  19.698  0.00  0.00    +0.000 A 
ATOM      5  C   UNL     1       1.902   8.866  19.038  0.00  0.00    +0.000 A 
ATOM      6  C   UNL     1       2.242   7.576  19.501  0.00  0.00    +0.000 A 
ENDROOT
BRANCH   6   7
ATOM      7  C   UNL     1       3.261   6.797  18.743  0.00  0.00    +0.000 C 
ATOM      8  C   UNL     1       3.213   6.383  17.468  0.00  0.00    +0.000 C 
ATOM      9  C   UNL     1       4.452   5.631  17.082  0.00  0.00    +0.000 C 
ATOM     10  C   UNL     1       5.195   6.374  15.948  0.00  0.00    +0.000 C 
ATOM     11  C   UNL     1       6.437   5.602  15.497  0.00  0.00    +0.000 C 
ATOM     12  C   UNL     1       6.073   4.182  15.076  0.00  0.00    +0.000 C 
ATOM     13  N   UNL     1       5.425   3.447  16.158  0.00  0.00    +0.000 NA
ATOM     14  C   UNL     1       4.197   4.133  16.632  0.00  0.00    +0.000 C 
ATOM     15  O   UNL     1       5.294   5.692  18.259  0.00  0.00    +0.000 OA
ATOM     16  C   UNL     1       4.569   6.366  19.316  0.00  0.00    +0.000 C 
ATOM     17  H   UNL     1       6.069   3.412  16.949  0.00  0.00    +0.000 HD
BRANCH  14  18
ATOM     18  C   UNL     1       3.521   3.258  17.690  0.00  0.00    +0.000 A 
ATOM     19  C   UNL     1       4.210   2.824  18.835  0.00  0.00    +0.000 A 
ATOM     20  C   UNL     1       3.581   2.038  19.802  0.00  0.00    +0.000 A 
ATOM     21  C   UNL     1       2.251   1.663  19.634  0.00  0.00    +0.000 A 
ATOM     22  C   UNL     1       1.559   2.056  18.491  0.00  0.00    +0.000 A 
ATOM     23  C   UNL     1       2.189   2.843  17.522  0.00  0.00    +0.000 A 
ENDBRANCH  14  18
ENDBRANCH   6   7
BRANCH   4  24
ATOM     24  N   UNL     1       0.506  10.884  19.154  0.00  0.00    +0.000 N 
ATOM     25  N   UNL     1       1.028  12.062  19.590  0.00  0.00    +0.000 NA
ATOM     26  N   UNL     1       0.519  12.994  18.812  0.00  0.00    +0.000 NA
ATOM     27  N   UNL     1      -0.408  12.469  17.957  0.00  0.00    +0.000 NA
ATOM     28  C   UNL     1      -0.465  11.168  18.219  0.00  0.00    +0.000 A 
BRANCH  28  29
ATOM     29  C   UNL     1      -1.501  10.232  17.764  0.00  0.00    +0.000 C 
ATOM     30  F   UNL     1      -2.219   9.650  18.758  0.00  0.00    +0.000 F 
ATOM     31  F   UNL     1      -2.418  10.851  16.976  0.00  0.00    +0.000 F 
ATOM     32  F   UNL     1      -0.971   9.223  17.028  0.00  0.00    +0.000 F 
ENDBRANCH  28  29
ENDBRANCH   4  24
BRANCH   1  34
ATOM     33  C   UNL     1       0.841   4.890  20.360  0.00  0.00    +0.000 C 
ATOM     34  O   UNL     1       1.697   5.809  21.056  0.00  0.00    +0.000 OA
ENDBRANCH   1  34
TORSDOF 5
ENDMDL
MODEL 3
REMARK VINA RESULT:      -8.0      2.360      3.985
REMARK  Name = 
REMARK  6 active torsions:
REMARK  status: ('A' for Active; 'I' for Inactive)
REMARK    1  A    between atoms: C_1  and  O_2
REMARK    2  A    between atoms: O_2  and  C_3
REMARK    3  A    between atoms: C_6  and  N_7
REMARK    4  A    between atoms: C_11  and  C_12
REMARK    5  A    between atoms: C_17  and  C_18
REMARK    6  A    between atoms: C_25  and  C_26
REMARK                            x       y       z     vdW  Elec       q    Type
REMARK                         _______ _______ _______ _____ _____    ______ ____
ROOT
ATOM      1  C   UNL     1       2.184   4.966  19.428  0.00  0.00    +0.000 A 
ATOM      2  C   UNL     1       1.455   5.171  20.616  0.00  0.00    +0.000 A 
ATOM      3  C   UNL     1       1.204   6.447  21.092  0.00  0.00    +0.000 A 
ATOM      4  C   UNL     1       1.679   7.537  20.372  0.00  0.00    +0.000 A 
ATOM      5  C   UNL     1       2.530   7.340  19.272  0.00  0.00    +0.000 A 
ATOM      6  C   UNL     1       2.819   6.050  18.776  0.00  0.00    +0.000 A 
ENDROOT
BRANCH   6   7
ATOM      7  C   UNL     1       3.735   5.930  17.607  0.00  0.00    +0.000 C 
ATOM      8  C   UNL     1       4.477   4.877  17.236  0.00  0.00    +0.000 C 
ATOM      9  C   UNL     1       5.258   5.160  15.987  0.00  0.00    +0.000 C 
ATOM     10  C   UNL     1       4.819   4.204  14.854  0.00  0.00    +0.000 C 
ATOM     11  C   UNL     1       5.637   4.436  13.582  0.00  0.00    +0.000 C 
ATOM     12  C   UNL     1       7.130   4.305  13.862  0.00  0.00    +0.000 C 
ATOM     13  N   UNL     1       7.572   5.246  14.887  0.00  0.00    +0.000 NA
ATOM     14  C   UNL     1       6.831   5.062  16.161  0.00  0.00    +0.000 C 
ATOM     15  O   UNL     1       4.852   6.497  15.602  0.00  0.00    +0.000 OA
ATOM     16  C   UNL     1       3.947   7.016  16.607  0.00  0.00    +0.000 C 
ATOM     17  H   UNL     1       7.370   6.191  14.561  0.00  0.00    +0.000 HD
BRANCH  14  18
ATOM     18  C   UNL     1       7.414   6.008  17.212  0.00  0.00    +0.000 A 
ATOM     19  C   UNL     1       7.758   5.557  18.498  0.00  0.00    +0.000 A 
ATOM     20  C   UNL     1       8.303   6.424  19.446  0.00  0.00    +0.000 A 
ATOM     21  C   UNL     1       8.504   7.764  19.127  0.00  0.00    +0.000 A 
ATOM     22  C   UNL     1       8.142   8.239  17.868  0.00  0.00    +0.000 A 
ATOM     23  C   UNL     1       7.596   7.370  16.918  0.00  0.00    +0.000 A 
ENDBRANCH  14  18
ENDBRANCH   6   7
BRANCH   4  24
ATOM     24  N   UNL     1       1.272   8.826  20.772  0.00  0.00    +0.000 N 
ATOM     25  N   UNL     1       0.980   9.079  22.075  0.00  0.00    +0.000 NA
ATOM     26  N   UNL     1       0.770  10.377  22.154  0.00  0.00    +0.000 NA
ATOM     27  N   UNL     1       0.803  10.956  20.917  0.00  0.00    +0.000 NA
ATOM     28  C   UNL     1       1.047   9.978  20.051  0.00  0.00    +0.000 A 
BRANCH  28  29
ATOM     29  C   UNL     1       0.899  10.049  18.592  0.00  0.00    +0.000 C 
ATOM     30  F   UNL     1       0.089   9.102  18.055  0.00  0.00    +0.000 F 
ATOM     31  F   UNL     1       0.366  11.237  18.204  0.00  0.00    +0.000 F 
ATOM     32  F   UNL     1       2.096   9.935  17.964  0.00  0.00    +0.000 F 
ENDBRANCH  28  29
ENDBRANCH   4  24
BRANCH   1  34
ATOM     33  C   UNL     1       1.080   2.918  19.063  0.00  0.00    +0.000 C 
ATOM     34  O   UNL     1       2.272   3.700  18.896  0.00  0.00    +0.000 OA
ENDBRANCH   1  34
TORSDOF 5
ENDMDL
MODEL 4
REMARK VINA RESULT:      -7.6      3.648      8.174
REMARK  Name = 
REMARK  6 active torsions:
REMARK  status: ('A' for Active; 'I' for Inactive)
REMARK    1  A    between atoms: C_1  and  O_2
REMARK    2  A    between atoms: O_2  and  C_3
REMARK    3  A    between atoms: C_6  and  N_7
REMARK    4  A    between atoms: C_11  and  C_12
REMARK    5  A    between atoms: C_17  and  C_18
REMARK    6  A    between atoms: C_25  and  C_26
REMARK                            x       y       z     vdW  Elec       q    Type
REMARK                         _______ _______ _______ _____ _____    ______ ____
ROOT
ATOM      1  C   UNL     1       1.464   7.808  20.765  0.00  0.00    +0.000 A 
ATOM      2  C   UNL     1       1.661   6.425  20.942  0.00  0.00    +0.000 A 
ATOM      3  C   UNL     1       2.267   5.655  19.963  0.00  0.00    +0.000 A 
ATOM      4  C   UNL     1       2.691   6.272  18.792  0.00  0.00    +0.000 A 
ATOM      5  C   UNL     1       2.366   7.616  18.544  0.00  0.00    +0.000 A 
ATOM      6  C   UNL     1       1.731   8.420  19.516  0.00  0.00    +0.000 A 
ENDROOT
BRANCH   6   7
ATOM      7  C   UNL     1       1.419   9.835  19.171  0.00  0.00    +0.000 C 
ATOM      8  C   UNL     1       0.750  10.741  19.898  0.00  0.00    +0.000 C 
ATOM      9  C   UNL     1       0.660  12.062  19.193  0.00  0.00    +0.000 C 
ATOM     10  C   UNL     1       1.385  13.155  20.012  0.00  0.00    +0.000 C 
ATOM     11  C   UNL     1       1.264  14.526  19.342  0.00  0.00    +0.000 C 
ATOM     12  C   UNL     1      -0.199  14.892  19.111  0.00  0.00    +0.000 C 
ATOM     13  N   UNL     1      -0.881  13.899  18.287  0.00  0.00    +0.000 NA
ATOM     14  C   UNL     1      -0.820  12.545  18.891  0.00  0.00    +0.000 C 
ATOM     15  O   UNL     1       1.413  11.872  17.970  0.00  0.00    +0.000 OA
ATOM     16  C   UNL     1       1.856  10.495  17.906  0.00  0.00    +0.000 C 
ATOM     17  H   UNL     1      -0.399  13.845  17.389  0.00  0.00    +0.000 HD
BRANCH  14  18
ATOM     18  C   UNL     1      -1.638  11.582  18.028  0.00  0.00    +0.000 A 
ATOM     19  C   UNL     1      -1.860  11.827  16.662  0.00  0.00    +0.000 A 
ATOM     20  C   UNL     1      -2.596  10.935  15.879  0.00  0.00    +0.000 A 
ATOM     21  C   UNL     1      -3.132   9.786  16.453  0.00  0.00    +0.000 A 
ATOM     22  C   UNL     1      -2.950   9.540  17.812  0.00  0.00    +0.000 A 
ATOM     23  C   UNL     1      -2.213  10.433  18.596  0.00  0.00    +0.000 A 
ENDBRANCH  14  18
ENDBRANCH   6   7
BRANCH   4  24
ATOM     24  N   UNL     1       3.456   5.516  17.881  0.00  0.00    +0.000 N 
ATOM     25  N   UNL     1       4.413   6.118  17.126  0.00  0.00    +0.000 NA
ATOM     26  N   UNL     1       5.035   5.147  16.489  0.00  0.00    +0.000 NA
ATOM     27  N   UNL     1       4.434   3.943  16.720  0.00  0.00    +0.000 NA
ATOM     28  C   UNL     1       3.409   4.184  17.531  0.00  0.00    +0.000 A 
BRANCH  28  29
ATOM     29  C   UNL     1       2.305   3.267  17.839  0.00  0.00    +0.000 C 
ATOM     30  F   UNL     1       1.065   3.785  17.652  0.00  0.00    +0.000 F 
ATOM     31  F   UNL     1       2.349   2.158  17.056  0.00  0.00    +0.000 F 
ATOM     32  F   UNL     1       2.357   2.839  19.125  0.00  0.00    +0.000 F 
ENDBRANCH  28  29
ENDBRANCH   4  24
BRANCH   1  34
ATOM     33  C   UNL     1      -0.388   8.415  22.087  0.00  0.00    +0.000 C 
ATOM     34  O   UNL     1       1.014   8.571  21.819  0.00  0.00    +0.000 OA
ENDBRANCH   1  34
TORSDOF 5
ENDMDL
MODEL 5
REMARK VINA RESULT:      -7.6      3.632      8.159
REMARK  Name = 
REMARK  6 active torsions:
REMARK  status: ('A' for Active; 'I' for Inactive)
REMARK    1  A    between atoms: C_1  and  O_2
REMARK    2  A    between atoms: O_2  and  C_3
REMARK    3  A    between atoms: C_6  and  N_7
REMARK    4  A    between atoms: C_11  and  C_12
REMARK    5  A    between atoms: C_17  and  C_18
REMARK    6  A    between atoms: C_25  and  C_26
REMARK                            x       y       z     vdW  Elec       q    Type
REMARK                         _______ _______ _______ _____ _____    ______ ____
ROOT
ATOM      1  C   UNL     1       1.446   7.857  20.784  0.00  0.00    +0.000 A 
ATOM      2  C   UNL     1       1.647   6.475  20.974  0.00  0.00    +0.000 A 
ATOM      3  C   UNL     1       2.270   5.702  20.008  0.00  0.00    +0.000 A 
ATOM      4  C   UNL     1       2.705   6.313  18.838  0.00  0.00    +0.000 A 
ATOM      5  C   UNL     1       2.377   7.653  18.577  0.00  0.00    +0.000 A 
ATOM      6  C   UNL     1       1.726   8.461  19.534  0.00  0.00    +0.000 A 
ENDROOT
BRANCH   6   7
ATOM      7  C   UNL     1       1.411   9.872  19.175  0.00  0.00    +0.000 C 
ATOM      8  C   UNL     1       0.749  10.787  19.897  0.00  0.00    +0.000 C 
ATOM      9  C   UNL     1       0.653  12.099  19.177  0.00  0.00    +0.000 C 
ATOM     10  C   UNL     1       1.385  13.202  19.976  0.00  0.00    +0.000 C 
ATOM     11  C   UNL     1       1.258  14.564  19.291  0.00  0.00    +0.000 C 
ATOM     12  C   UNL     1      -0.206  14.928  19.068  0.00  0.00    +0.000 C 
ATOM     13  N   UNL     1      -0.895  13.926  18.261  0.00  0.00    +0.000 NA
ATOM     14  C   UNL     1      -0.829  12.579  18.882  0.00  0.00    +0.000 C 
ATOM     15  O   UNL     1       1.395  11.894  17.950  0.00  0.00    +0.000 OA
ATOM     16  C   UNL     1       1.838  10.516  17.899  0.00  0.00    +0.000 C 
ATOM     17  H   UNL     1      -0.421  13.861  17.360  0.00  0.00    +0.000 HD
BRANCH  14  18
ATOM     18  C   UNL     1      -1.655  11.606  18.037  0.00  0.00    +0.000 A 
ATOM     19  C   UNL     1      -2.194  10.430  18.586  0.00  0.00    +0.000 A 
ATOM     20  C   UNL     1      -2.958   9.556  17.811  0.00  0.00    +0.000 A 
ATOM     21  C   UNL     1      -3.187   9.838  16.467  0.00  0.00    +0.000 A 
ATOM     22  C   UNL     1      -2.636  10.982  15.896  0.00  0.00    +0.000 A 
ATOM     23  C   UNL     1      -1.871  11.858  16.672  0.00  0.00    +0.000 A 
ENDBRANCH  14  18
ENDBRANCH   6   7
BRANCH   4  24
ATOM     24  N   UNL     1       3.486   5.554  17.943  0.00  0.00    +0.000 N 
ATOM     25  N   UNL     1       4.506   6.137  17.260  0.00  0.00    +0.000 NA
ATOM     26  N   UNL     1       5.121   5.162  16.623  0.00  0.00    +0.000 NA
ATOM     27  N   UNL     1       4.458   3.978  16.781  0.00  0.00    +0.000 NA
ATOM     28  C   UNL     1       3.403   4.238  17.546  0.00  0.00    +0.000 A 
BRANCH  28  29
ATOM     29  C   UNL     1       2.247   3.359  17.764  0.00  0.00    +0.000 C 
ATOM     30  F   UNL     1       2.080   2.945  19.045  0.00  0.00    +0.000 F 
ATOM     31  F   UNL     1       1.083   3.979  17.435  0.00  0.00    +0.000 F 
ATOM     32  F   UNL     1       2.321   2.240  17.001  0.00  0.00    +0.000 F 
ENDBRANCH  28  29
ENDBRANCH   4  24
BRANCH   1  34
ATOM     33  C   UNL     1      -0.424   8.456  22.085  0.00  0.00    +0.000 C 
ATOM     34  O   UNL     1       0.978   8.625  21.826  0.00  0.00    +0.000 OA
ENDBRANCH   1  34
TORSDOF 5
ENDMDL
MODEL 6
REMARK VINA RESULT:      -7.6      1.678      2.078
REMARK  Name = 
REMARK  6 active torsions:
REMARK  status: ('A' for Active; 'I' for Inactive)
REMARK    1  A    between atoms: C_1  and  O_2
REMARK    2  A    between atoms: O_2  and  C_3
REMARK    3  A    between atoms: C_6  and  N_7
REMARK    4  A    between atoms: C_11  and  C_12
REMARK    5  A    between atoms: C_17  and  C_18
REMARK    6  A    between atoms: C_25  and  C_26
REMARK                            x       y       z     vdW  Elec       q    Type
REMARK                         _______ _______ _______ _____ _____    ______ ____
ROOT
ATOM      1  C   UNL     1       1.300   6.722  20.488  0.00  0.00    +0.000 A 
ATOM      2  C   UNL     1       0.442   7.517  21.273  0.00  0.00    +0.000 A 
ATOM      3  C   UNL     1       0.325   8.879  21.053  0.00  0.00    +0.000 A 
ATOM      4  C   UNL     1       1.068   9.459  20.031  0.00  0.00    +0.000 A 
ATOM      5  C   UNL     1       2.033   8.706  19.344  0.00  0.00    +0.000 A 
ATOM      6  C   UNL     1       2.189   7.319  19.561  0.00  0.00    +0.000 A 
ENDROOT
BRANCH   6   7
ATOM      7  C   UNL     1       3.240   6.595  18.793  0.00  0.00    +0.000 C 
ATOM      8  C   UNL     1       3.275   6.328  17.479  0.00  0.00    +0.000 C 
ATOM      9  C   UNL     1       4.519   5.582  17.098  0.00  0.00    +0.000 C 
ATOM     10  C   UNL     1       5.363   6.422  16.111  0.00  0.00    +0.000 C 
ATOM     11  C   UNL     1       6.614   5.663  15.663  0.00  0.00    +0.000 C 
ATOM     12  C   UNL     1       6.245   4.312  15.058  0.00  0.00    +0.000 C 
ATOM     13  N   UNL     1       5.501   3.483  16.001  0.00  0.00    +0.000 NA
ATOM     14  C   UNL     1       4.259   4.153  16.462  0.00  0.00    +0.000 C 
ATOM     15  O   UNL     1       5.274   5.482  18.330  0.00  0.00    +0.000 OA
ATOM     16  C   UNL     1       4.490   6.058  19.404  0.00  0.00    +0.000 C 
ATOM     17  H   UNL     1       6.083   3.338  16.826  0.00  0.00    +0.000 HD
BRANCH  14  18
ATOM     18  C   UNL     1       3.484   3.189  17.363  0.00  0.00    +0.000 A 
ATOM     19  C   UNL     1       2.110   3.356  17.609  0.00  0.00    +0.000 A 
ATOM     20  C   UNL     1       1.409   2.463  18.422  0.00  0.00    +0.000 A 
ATOM     21  C   UNL     1       2.073   1.392  19.011  0.00  0.00    +0.000 A 
ATOM     22  C   UNL     1       3.441   1.226  18.806  0.00  0.00    +0.000 A 
ATOM     23  C   UNL     1       4.144   2.121  17.992  0.00  0.00    +0.000 A 
ENDBRANCH  14  18
ENDBRANCH   6   7
BRANCH   4  24
ATOM     24  N   UNL     1       0.812  10.806  19.706  0.00  0.00    +0.000 N 
ATOM     25  N   UNL     1       1.416  11.806  20.402  0.00  0.00    +0.000 NA
ATOM     26  N   UNL     1       1.091  12.924  19.788  0.00  0.00    +0.000 NA
ATOM     27  N   UNL     1       0.198  12.689  18.781  0.00  0.00    +0.000 NA
ATOM     28  C   UNL     1      -0.028  11.380  18.777  0.00  0.00    +0.000 A 
BRANCH  28  29
ATOM     29  C   UNL     1      -1.112  10.684  18.072  0.00  0.00    +0.000 C 
ATOM     30  F   UNL     1      -2.067  10.154  18.878  0.00  0.00    +0.000 F 
ATOM     31  F   UNL     1      -1.776  11.521  17.234  0.00  0.00    +0.000 F 
ATOM     32  F   UNL     1      -0.638   9.665  17.312  0.00  0.00    +0.000 F 
ENDBRANCH  28  29
ENDBRANCH   4  24
BRANCH   1  34
ATOM     33  C   UNL     1       2.281   4.832  21.496  0.00  0.00    +0.000 C 
ATOM     34  O   UNL     1       1.269   5.352  20.621  0.00  0.00    +0.000 OA
ENDBRANCH   1  34
TORSDOF 5
ENDMDL
MODEL 7
REMARK VINA RESULT:      -7.6      2.440      3.952
REMARK  Name = 
REMARK  6 active torsions:
REMARK  status: ('A' for Active; 'I' for Inactive)
REMARK    1  A    between atoms: C_1  and  O_2
REMARK    2  A    between atoms: O_2  and  C_3
REMARK    3  A    between atoms: C_6  and  N_7
REMARK    4  A    between atoms: C_11  and  C_12
REMARK    5  A    between atoms: C_17  and  C_18
REMARK    6  A    between atoms: C_25  and  C_26
REMARK                            x       y       z     vdW  Elec       q    Type
REMARK                         _______ _______ _______ _____ _____    ______ ____
ROOT
ATOM      1  C   UNL     1       2.168   5.735  19.721  0.00  0.00    +0.000 A 
ATOM      2  C   UNL     1       1.453   6.128  20.870  0.00  0.00    +0.000 A 
ATOM      3  C   UNL     1       1.165   7.460  21.115  0.00  0.00    +0.000 A 
ATOM      4  C   UNL     1       1.588   8.417  20.201  0.00  0.00    +0.000 A 
ATOM      5  C   UNL     1       2.426   8.053  19.134  0.00  0.00    +0.000 A 
ATOM      6  C   UNL     1       2.753   6.704  18.870  0.00  0.00    +0.000 A 
ENDROOT
BRANCH   6   7
ATOM      7  C   UNL     1       3.652   6.405  17.721  0.00  0.00    +0.000 C 
ATOM      8  C   UNL     1       4.331   5.277  17.467  0.00  0.00    +0.000 C 
ATOM      9  C   UNL     1       5.118   5.377  16.194  0.00  0.00    +0.000 C 
ATOM     10  C   UNL     1       4.617   4.330  15.173  0.00  0.00    +0.000 C 
ATOM     11  C   UNL     1       5.438   4.374  13.882  0.00  0.00    +0.000 C 
ATOM     12  C   UNL     1       6.924   4.189  14.174  0.00  0.00    +0.000 C 
ATOM     13  N   UNL     1       7.425   5.209  15.090  0.00  0.00    +0.000 NA
ATOM     14  C   UNL     1       6.684   5.208  16.376  0.00  0.00    +0.000 C 
ATOM     15  O   UNL     1       4.786   6.685  15.665  0.00  0.00    +0.000 OA
ATOM     16  C   UNL     1       3.919   7.361  16.608  0.00  0.00    +0.000 C 
ATOM     17  H   UNL     1       7.275   6.123  14.662  0.00  0.00    +0.000 HD
BRANCH  14  18
ATOM     18  C   UNL     1       7.327   6.229  17.317  0.00  0.00    +0.000 A 
ATOM     19  C   UNL     1       7.510   7.569  16.936  0.00  0.00    +0.000 A 
ATOM     20  C   UNL     1       8.086   8.496  17.806  0.00  0.00    +0.000 A 
ATOM     21  C   UNL     1       8.498   8.094  19.073  0.00  0.00    +0.000 A 
ATOM     22  C   UNL     1       8.355   6.764  19.461  0.00  0.00    +0.000 A 
ATOM     23  C   UNL     1       7.779   5.835  18.588  0.00  0.00    +0.000 A 
ENDBRANCH  14  18
ENDBRANCH   6   7
BRANCH   4  24
ATOM     24  N   UNL     1       1.143   9.743  20.372  0.00  0.00    +0.000 N 
ATOM     25  N   UNL     1       1.422  10.417  21.519  0.00  0.00    +0.000 NA
ATOM     26  N   UNL     1       1.001  11.650  21.327  0.00  0.00    +0.000 NA
ATOM     27  N   UNL     1       0.351  11.766  20.131  0.00  0.00    +0.000 NA
ATOM     28  C   UNL     1       0.379  10.562  19.570  0.00  0.00    +0.000 A 
BRANCH  28  29
ATOM     29  C   UNL     1      -0.421  10.116  18.422  0.00  0.00    +0.000 C 
ATOM     30  F   UNL     1       0.263   9.397  17.496  0.00  0.00    +0.000 F 
ATOM     31  F   UNL     1      -1.445   9.313  18.812  0.00  0.00    +0.000 F 
ATOM     32  F   UNL     1      -0.976  11.165  17.764  0.00  0.00    +0.000 F 
ENDBRANCH  28  29
ENDBRANCH   4  24
BRANCH   1  34
ATOM     33  C   UNL     1       2.367   3.551  20.579  0.00  0.00    +0.000 C 
ATOM     34  O   UNL     1       2.292   4.397  19.422  0.00  0.00    +0.000 OA
ENDBRANCH   1  34
TORSDOF 5
ENDMDL
MODEL 8
REMARK VINA RESULT:      -7.5      2.461      4.079
REMARK  Name = 
REMARK  6 active torsions:
REMARK  status: ('A' for Active; 'I' for Inactive)
REMARK    1  A    between atoms: C_1  and  O_2
REMARK    2  A    between atoms: O_2  and  C_3
REMARK    3  A    between atoms: C_6  and  N_7
REMARK    4  A    between atoms: C_11  and  C_12
REMARK    5  A    between atoms: C_17  and  C_18
REMARK    6  A    between atoms: C_25  and  C_26
REMARK                            x       y       z     vdW  Elec       q    Type
REMARK                         _______ _______ _______ _____ _____    ______ ____
ROOT
ATOM      1  C   UNL     1       2.347   5.624  19.686  0.00  0.00    +0.000 A 
ATOM      2  C   UNL     1       1.599   6.004  20.817  0.00  0.00    +0.000 A 
ATOM      3  C   UNL     1       1.154   7.305  20.979  0.00  0.00    +0.000 A 
ATOM      4  C   UNL     1       1.453   8.243  19.998  0.00  0.00    +0.000 A 
ATOM      5  C   UNL     1       2.322   7.911  18.945  0.00  0.00    +0.000 A 
ATOM      6  C   UNL     1       2.807   6.597  18.765  0.00  0.00    +0.000 A 
ENDROOT
BRANCH   6   7
ATOM      7  C   UNL     1       3.727   6.331  17.625  0.00  0.00    +0.000 C 
ATOM      8  C   UNL     1       4.417   5.214  17.355  0.00  0.00    +0.000 C 
ATOM      9  C   UNL     1       5.225   5.350  16.099  0.00  0.00    +0.000 C 
ATOM     10  C   UNL     1       4.749   4.325  15.043  0.00  0.00    +0.000 C 
ATOM     11  C   UNL     1       5.592   4.406  13.769  0.00  0.00    +0.000 C 
ATOM     12  C   UNL     1       7.073   4.222  14.082  0.00  0.00    +0.000 C 
ATOM     13  N   UNL     1       7.552   5.223  15.031  0.00  0.00    +0.000 NA
ATOM     14  C   UNL     1       6.789   5.185  16.304  0.00  0.00    +0.000 C 
ATOM     15  O   UNL     1       4.895   6.668  15.597  0.00  0.00    +0.000 OA
ATOM     16  C   UNL     1       4.007   7.316  16.540  0.00  0.00    +0.000 C 
ATOM     17  H   UNL     1       7.404   6.146  14.623  0.00  0.00    +0.000 HD
BRANCH  14  18
ATOM     18  C   UNL     1       7.410   6.186  17.281  0.00  0.00    +0.000 A 
ATOM     19  C   UNL     1       7.817   5.800  18.570  0.00  0.00    +0.000 A 
ATOM     20  C   UNL     1       8.396   6.716  19.449  0.00  0.00    +0.000 A 
ATOM     21  C   UNL     1       8.567   8.041  19.057  0.00  0.00    +0.000 A 
ATOM     22  C   UNL     1       8.142   8.452  17.796  0.00  0.00    +0.000 A 
ATOM     23  C   UNL     1       7.562   7.533  16.915  0.00  0.00    +0.000 A 
ENDBRANCH  14  18
ENDBRANCH   6   7
BRANCH   4  24
ATOM     24  N   UNL     1       0.853   9.515  20.089  0.00  0.00    +0.000 N 
ATOM     25  N   UNL     1       1.020  10.424  19.092  0.00  0.00    +0.000 NA
ATOM     26  N   UNL     1       0.242  11.442  19.396  0.00  0.00    +0.000 NA
ATOM     27  N   UNL     1      -0.337  11.269  20.621  0.00  0.00    +0.000 NA
ATOM     28  C   UNL     1       0.099  10.102  21.082  0.00  0.00    +0.000 A 
BRANCH  28  29
ATOM     29  C   UNL     1      -0.016   9.610  22.460  0.00  0.00    +0.000 C 
ATOM     30  F   UNL     1       1.159   9.250  23.037  0.00  0.00    +0.000 F 
ATOM     31  F   UNL     1      -0.542  10.555  23.282  0.00  0.00    +0.000 F 
ATOM     32  F   UNL     1      -0.831   8.528  22.536  0.00  0.00    +0.000 F 
ENDBRANCH  28  29
ENDBRANCH   4  24
BRANCH   1  34
ATOM     33  C   UNL     1       1.491   3.519  19.067  0.00  0.00    +0.000 C 
ATOM     34  O   UNL     1       2.629   4.293  19.473  0.00  0.00    +0.000 OA
ENDBRANCH   1  34
TORSDOF 5
ENDMDL
MODEL 9
REMARK VINA RESULT:      -7.4      2.430      4.250
REMARK  Name = 
REMARK  6 active torsions:
REMARK  status: ('A' for Active; 'I' for Inactive)
REMARK    1  A    between atoms: C_1  and  O_2
REMARK    2  A    between atoms: O_2  and  C_3
REMARK    3  A    between atoms: C_6  and  N_7
REMARK    4  A    between atoms: C_11  and  C_12
REMARK    5  A    between atoms: C_17  and  C_18
REMARK    6  A    between atoms: C_25  and  C_26
REMARK                            x       y       z     vdW  Elec       q    Type
REMARK                         _______ _______ _______ _____ _____    ______ ____
ROOT
ATOM      1  C   UNL     1       2.537   8.483  17.766  0.00  0.00    +0.000 A 
ATOM      2  C   UNL     1       2.046   9.790  17.581  0.00  0.00    +0.000 A 
ATOM      3  C   UNL     1       1.268  10.407  18.546  0.00  0.00    +0.000 A 
ATOM      4  C   UNL     1       0.979   9.717  19.717  0.00  0.00    +0.000 A 
ATOM      5  C   UNL     1       1.338   8.365  19.847  0.00  0.00    +0.000 A 
ATOM      6  C   UNL     1       2.114   7.703  18.870  0.00  0.00    +0.000 A 
ENDROOT
BRANCH   6   7
ATOM      7  C   UNL     1       2.447   6.268  19.084  0.00  0.00    +0.000 C 
ATOM      8  C   UNL     1       3.300   5.734  19.971  0.00  0.00    +0.000 C 
ATOM      9  C   UNL     1       3.342   4.238  19.870  0.00  0.00    +0.000 C 
ATOM     10  C   UNL     1       2.858   3.600  21.193  0.00  0.00    +0.000 C 
ATOM     11  C   UNL     1       2.940   2.073  21.137  0.00  0.00    +0.000 C 
ATOM     12  C   UNL     1       4.354   1.615  20.791  0.00  0.00    +0.000 C 
ATOM     13  N   UNL     1       4.801   2.160  19.513  0.00  0.00    +0.000 NA
ATOM     14  C   UNL     1       4.766   3.645  19.505  0.00  0.00    +0.000 C 
ATOM     15  O   UNL     1       2.360   3.916  18.854  0.00  0.00    +0.000 OA
ATOM     16  C   UNL     1       1.824   5.150  18.318  0.00  0.00    +0.000 C 
ATOM     17  H   UNL     1       4.155   1.845  18.789  0.00  0.00    +0.000 HD
BRANCH  14  18
ATOM     18  C   UNL     1       5.341   4.144  18.178  0.00  0.00    +0.000 A 
ATOM     19  C   UNL     1       4.685   3.908  16.957  0.00  0.00    +0.000 A 
ATOM     20  C   UNL     1       5.210   4.380  15.753  0.00  0.00    +0.000 A 
ATOM     21  C   UNL     1       6.408   5.088  15.748  0.00  0.00    +0.000 A 
ATOM     22  C   UNL     1       7.090   5.306  16.942  0.00  0.00    +0.000 A 
ATOM     23  C   UNL     1       6.564   4.834  18.149  0.00  0.00    +0.000 A 
ENDBRANCH  14  18
ENDBRANCH   6   7
BRANCH   4  24
ATOM     24  N   UNL     1       0.336  10.415  20.758  0.00  0.00    +0.000 N 
ATOM     25  N   UNL     1       0.705  10.211  22.051  0.00  0.00    +0.000 NA
ATOM     26  N   UNL     1       0.031  11.089  22.764  0.00  0.00    +0.000 NA
ATOM     27  N   UNL     1      -0.854  11.779  21.984  0.00  0.00    +0.000 NA
ATOM     28  C   UNL     1      -0.712  11.309  20.749  0.00  0.00    +0.000 A 
BRANCH  28  29
ATOM     29  C   UNL     1      -1.625  11.532  19.622  0.00  0.00    +0.000 C 
ATOM     30  F   UNL     1      -1.949  10.416  18.922  0.00  0.00    +0.000 F 
ATOM     31  F   UNL     1      -2.811  12.048  20.038  0.00  0.00    +0.000 F 
ATOM     32  F   UNL     1      -1.108  12.412  18.729  0.00  0.00    +0.000 F 
ENDBRANCH  28  29
ENDBRANCH   4  24
BRANCH   1  34
ATOM     33  C   UNL     1       4.787   7.915  17.363  0.00  0.00    +0.000 C 
ATOM     34  O   UNL     1       3.441   7.963  16.867  0.00  0.00    +0.000 OA
ENDBRANCH   1  34
TORSDOF 5
ENDMDL
