MODEL 1
REMARK VINA RESULT:      -6.5      0.000      0.000
REMARK  Name = 
REMARK  15 active torsions:
REMARK  status: ('A' for Active; 'I' for Inactive)
REMARK    1  A    between atoms: C_1  and  C_2
REMARK    2  A    between atoms: C_2  and  C_3
REMARK    3  A    between atoms: C_3  and  C_4
REMARK    4  A    between atoms: C_4  and  C_5
REMARK    5  A    between atoms: C_5  and  C_6
REMARK    6  A    between atoms: C_6  and  O_7
REMARK    7  A    between atoms: C_6  and  C_8
REMARK    8  A    between atoms: C_9  and  C_10
REMARK    9  A    between atoms: C_10  and  C_11
REMARK   10  A    between atoms: C_11  and  C_12
REMARK   11  A    between atoms: C_12  and  C_13
REMARK   12  A    between atoms: C_17  and  O_18
REMARK   13  A    between atoms: O_18  and  C_19
REMARK   14  A    between atoms: C_19  and  C_20
REMARK   15  A    between atoms: C_20  and  O_22
REMARK                            x       y       z     vdW  Elec       q    Type
REMARK                         _______ _______ _______ _____ _____    ______ ____
ROOT
ATOM      1  C   UNL     1       1.770   3.489  17.722  0.00  0.00    +0.000 C 
ENDROOT
BRANCH   1   2
ATOM      2  C   UNL     1       2.134   3.060  19.123  0.00  0.00    +0.000 A 
ATOM      3  C   UNL     1       1.174   3.072  20.144  0.00  0.00    +0.000 A 
ATOM      4  C   UNL     1       1.526   2.726  21.447  0.00  0.00    +0.000 A 
ATOM      5  C   UNL     1       2.836   2.345  21.736  0.00  0.00    +0.000 A 
ATOM      6  C   UNL     1       3.794   2.288  20.723  0.00  0.00    +0.000 A 
ATOM      7  C   UNL     1       3.444   2.656  19.423  0.00  0.00    +0.000 A 
BRANCH   6   8
ATOM      8  O   UNL     1       5.049   1.912  21.122  0.00  0.00    +0.000 OA
BRANCH   8   9
ATOM      9  C   UNL     1       5.344   0.518  20.982  0.00  0.00    +0.000 C 
BRANCH   9  10
ATOM     10  C   UNL     1       6.230   0.089  22.142  0.00  0.00    +0.000 C 
ATOM     11  O   UNL     1       6.895   0.863  22.815  0.00  0.00    +0.000 OA
BRANCH  10  12
ATOM     12  O   UNL     1       6.198  -1.245  22.377  0.00  0.00    +0.000 OA
ATOM     13  H   UNL     1       7.030  -1.518  22.824  0.00  0.00    +0.000 HD
ENDBRANCH  10  12
ENDBRANCH   9  10
ENDBRANCH   8   9
ENDBRANCH   6   8
ENDBRANCH   1   2
BRANCH   1  14
ATOM     14  C   UNL     1       1.582   5.004  17.615  0.00  0.00    +0.000 C 
BRANCH  14  15
ATOM     15  C   UNL     1       2.791   5.748  18.179  0.00  0.00    +0.000 C 
BRANCH  15  17
ATOM     16  C   UNL     1       5.095   5.071  17.464  0.00  0.00    +0.000 C 
ATOM     17  C   UNL     1       3.937   5.700  17.213  0.00  0.00    +0.000 C 
BRANCH  16  18
ATOM     18  C   UNL     1       6.252   5.041  16.510  0.00  0.00    +0.000 C 
BRANCH  18  19
ATOM     19  O   UNL     1       6.246   6.265  15.784  0.00  0.00    +0.000 OA
ATOM     20  H   UNL     1       6.768   6.909  16.289  0.00  0.00    +0.000 HD
ENDBRANCH  18  19
BRANCH  18  21
ATOM     21  C   UNL     1       6.137   3.853  15.551  0.00  0.00    +0.000 C 
BRANCH  21  22
ATOM     22  C   UNL     1       5.466   4.253  14.235  0.00  0.00    +0.000 C 
BRANCH  22  23
ATOM     23  C   UNL     1       6.234   3.700  13.035  0.00  0.00    +0.000 C 
BRANCH  23  25
ATOM     24  C   UNL     1       5.747   1.859  11.392  0.00  0.00    +0.000 C 
ATOM     25  C   UNL     1       5.274   3.184  11.965  0.00  0.00    +0.000 C 
ENDBRANCH  23  25
ENDBRANCH  22  23
ENDBRANCH  21  22
ENDBRANCH  18  21
ENDBRANCH  16  18
ENDBRANCH  15  17
ENDBRANCH  14  15
ENDBRANCH   1  14
TORSDOF 14
ENDMDL
MODEL 2
REMARK VINA RESULT:      -6.5      2.466      6.693
REMARK  Name = 
REMARK  15 active torsions:
REMARK  status: ('A' for Active; 'I' for Inactive)
REMARK    1  A    between atoms: C_1  and  C_2
REMARK    2  A    between atoms: C_2  and  C_3
REMARK    3  A    between atoms: C_3  and  C_4
REMARK    4  A    between atoms: C_4  and  C_5
REMARK    5  A    between atoms: C_5  and  C_6
REMARK    6  A    between atoms: C_6  and  O_7
REMARK    7  A    between atoms: C_6  and  C_8
REMARK    8  A    between atoms: C_9  and  C_10
REMARK    9  A    between atoms: C_10  and  C_11
REMARK   10  A    between atoms: C_11  and  C_12
REMARK   11  A    between atoms: C_12  and  C_13
REMARK   12  A    between atoms: C_17  and  O_18
REMARK   13  A    between atoms: O_18  and  C_19
REMARK   14  A    between atoms: C_19  and  C_20
REMARK   15  A    between atoms: C_20  and  O_22
REMARK                            x       y       z     vdW  Elec       q    Type
REMARK                         _______ _______ _______ _____ _____    ______ ____
ROOT
ATOM      1  C   UNL     1       3.382   7.666  17.668  0.00  0.00    +0.000 C 
ENDROOT
BRANCH   1   2
ATOM      2  C   UNL     1       4.497   6.677  17.429  0.00  0.00    +0.000 A 
ATOM      3  C   UNL     1       5.005   5.907  18.483  0.00  0.00    +0.000 A 
ATOM      4  C   UNL     1       6.069   5.034  18.270  0.00  0.00    +0.000 A 
ATOM      5  C   UNL     1       6.622   4.908  16.996  0.00  0.00    +0.000 A 
ATOM      6  C   UNL     1       6.102   5.637  15.926  0.00  0.00    +0.000 A 
ATOM      7  C   UNL     1       5.049   6.527  16.146  0.00  0.00    +0.000 A 
BRANCH   6   8
ATOM      8  O   UNL     1       6.727   5.444  14.723  0.00  0.00    +0.000 OA
BRANCH   8   9
ATOM      9  C   UNL     1       6.910   4.077  14.340  0.00  0.00    +0.000 C 
BRANCH   9  10
ATOM     10  C   UNL     1       6.082   3.805  13.094  0.00  0.00    +0.000 C 
ATOM     11  O   UNL     1       4.859   3.782  13.079  0.00  0.00    +0.000 OA
BRANCH  10  12
ATOM     12  O   UNL     1       6.831   3.609  11.982  0.00  0.00    +0.000 OA
ATOM     13  H   UNL     1       6.244   3.375  11.230  0.00  0.00    +0.000 HD
ENDBRANCH  10  12
ENDBRANCH   9  10
ENDBRANCH   8   9
ENDBRANCH   6   8
ENDBRANCH   1   2
BRANCH   1  14
ATOM     14  C   UNL     1       2.169   7.015  18.337  0.00  0.00    +0.000 C 
BRANCH  14  15
ATOM     15  C   UNL     1       2.097   7.381  19.818  0.00  0.00    +0.000 C 
BRANCH  15  17
ATOM     16  C   UNL     1       1.850   4.915  20.194  0.00  0.00    +0.000 C 
ATOM     17  C   UNL     1       1.750   6.175  20.642  0.00  0.00    +0.000 C 
BRANCH  16  18
ATOM     18  C   UNL     1       1.480   3.710  21.007  0.00  0.00    +0.000 C 
BRANCH  18  19
ATOM     19  O   UNL     1       2.301   3.702  22.168  0.00  0.00    +0.000 OA
ATOM     20  H   UNL     1       2.272   2.807  22.543  0.00  0.00    +0.000 HD
ENDBRANCH  18  19
BRANCH  18  21
ATOM     21  C   UNL     1       1.684   2.425  20.200  0.00  0.00    +0.000 C 
BRANCH  21  22
ATOM     22  C   UNL     1       3.160   2.023  20.144  0.00  0.00    +0.000 C 
BRANCH  22  23
ATOM     23  C   UNL     1       3.743   2.260  18.752  0.00  0.00    +0.000 C 
BRANCH  23  25
ATOM     24  C   UNL     1       2.676   3.522  16.855  0.00  0.00    +0.000 C 
ATOM     25  C   UNL     1       2.643   2.254  17.692  0.00  0.00    +0.000 C 
ENDBRANCH  23  25
ENDBRANCH  22  23
ENDBRANCH  21  22
ENDBRANCH  18  21
ENDBRANCH  16  18
ENDBRANCH  15  17
ENDBRANCH  14  15
ENDBRANCH   1  14
TORSDOF 14
ENDMDL
MODEL 3
REMARK VINA RESULT:      -6.4      3.377      7.827
REMARK  Name = 
REMARK  15 active torsions:
REMARK  status: ('A' for Active; 'I' for Inactive)
REMARK    1  A    between atoms: C_1  and  C_2
REMARK    2  A    between atoms: C_2  and  C_3
REMARK    3  A    between atoms: C_3  and  C_4
REMARK    4  A    between atoms: C_4  and  C_5
REMARK    5  A    between atoms: C_5  and  C_6
REMARK    6  A    between atoms: C_6  and  O_7
REMARK    7  A    between atoms: C_6  and  C_8
REMARK    8  A    between atoms: C_9  and  C_10
REMARK    9  A    between atoms: C_10  and  C_11
REMARK   10  A    between atoms: C_11  and  C_12
REMARK   11  A    between atoms: C_12  and  C_13
REMARK   12  A    between atoms: C_17  and  O_18
REMARK   13  A    between atoms: O_18  and  C_19
REMARK   14  A    between atoms: C_19  and  C_20
REMARK   15  A    between atoms: C_20  and  O_22
REMARK                            x       y       z     vdW  Elec       q    Type
REMARK                         _______ _______ _______ _____ _____    ______ ____
ROOT
ATOM      1  C   UNL     1       6.611   4.806  15.399  0.00  0.00    +0.000 C 
ENDROOT
BRANCH   1   2
ATOM      2  C   UNL     1       7.152   5.514  16.617  0.00  0.00    +0.000 A 
ATOM      3  C   UNL     1       7.517   4.790  17.759  0.00  0.00    +0.000 A 
ATOM      4  C   UNL     1       7.966   5.451  18.901  0.00  0.00    +0.000 A 
ATOM      5  C   UNL     1       8.072   6.841  18.903  0.00  0.00    +0.000 A 
ATOM      6  C   UNL     1       7.751   7.575  17.761  0.00  0.00    +0.000 A 
ATOM      7  C   UNL     1       7.282   6.912  16.625  0.00  0.00    +0.000 A 
BRANCH   6   8
ATOM      8  O   UNL     1       7.882   8.934  17.878  0.00  0.00    +0.000 OA
BRANCH   8   9
ATOM      9  C   UNL     1       8.919   9.375  18.761  0.00  0.00    +0.000 C 
BRANCH   9  10
ATOM     10  C   UNL     1       8.974  10.894  18.727  0.00  0.00    +0.000 C 
ATOM     11  O   UNL     1       9.466  11.579  19.613  0.00  0.00    +0.000 OA
BRANCH  10  12
ATOM     12  O   UNL     1       8.440  11.426  17.601  0.00  0.00    +0.000 OA
ATOM     13  H   UNL     1       7.513  11.117  17.502  0.00  0.00    +0.000 HD
ENDBRANCH  10  12
ENDBRANCH   9  10
ENDBRANCH   8   9
ENDBRANCH   6   8
ENDBRANCH   1   2
BRANCH   1  14
ATOM     14  C   UNL     1       5.123   4.475  15.538  0.00  0.00    +0.000 C 
BRANCH  14  15
ATOM     15  C   UNL     1       4.515   5.181  16.749  0.00  0.00    +0.000 C 
BRANCH  15  17
ATOM     16  C   UNL     1       4.055   2.911  17.705  0.00  0.00    +0.000 C 
ATOM     17  C   UNL     1       3.741   4.210  17.590  0.00  0.00    +0.000 C 
BRANCH  16  18
ATOM     18  C   UNL     1       3.268   1.933  18.527  0.00  0.00    +0.000 C 
BRANCH  18  19
ATOM     19  O   UNL     1       2.044   1.682  17.848  0.00  0.00    +0.000 OA
ATOM     20  H   UNL     1       1.998   2.287  17.090  0.00  0.00    +0.000 HD
ENDBRANCH  18  19
BRANCH  18  21
ATOM     21  C   UNL     1       2.996   2.493  19.926  0.00  0.00    +0.000 C 
BRANCH  21  22
ATOM     22  C   UNL     1       1.497   2.559  20.226  0.00  0.00    +0.000 C 
BRANCH  22  23
ATOM     23  C   UNL     1       0.999   4.003  20.230  0.00  0.00    +0.000 C 
BRANCH  23  25
ATOM     24  C   UNL     1       1.935   6.337  20.304  0.00  0.00    +0.000 C 
ATOM     25  C   UNL     1       2.026   4.932  20.875  0.00  0.00    +0.000 C 
ENDBRANCH  23  25
ENDBRANCH  22  23
ENDBRANCH  21  22
ENDBRANCH  18  21
ENDBRANCH  16  18
ENDBRANCH  15  17
ENDBRANCH  14  15
ENDBRANCH   1  14
TORSDOF 14
ENDMDL
MODEL 4
REMARK VINA RESULT:      -6.4      4.245      8.318
REMARK  Name = 
REMARK  15 active torsions:
REMARK  status: ('A' for Active; 'I' for Inactive)
REMARK    1  A    between atoms: C_1  and  C_2
REMARK    2  A    between atoms: C_2  and  C_3
REMARK    3  A    between atoms: C_3  and  C_4
REMARK    4  A    between atoms: C_4  and  C_5
REMARK    5  A    between atoms: C_5  and  C_6
REMARK    6  A    between atoms: C_6  and  O_7
REMARK    7  A    between atoms: C_6  and  C_8
REMARK    8  A    between atoms: C_9  and  C_10
REMARK    9  A    between atoms: C_10  and  C_11
REMARK   10  A    between atoms: C_11  and  C_12
REMARK   11  A    between atoms: C_12  and  C_13
REMARK   12  A    between atoms: C_17  and  O_18
REMARK   13  A    between atoms: O_18  and  C_19
REMARK   14  A    between atoms: C_19  and  C_20
REMARK   15  A    between atoms: C_20  and  O_22
REMARK                            x       y       z     vdW  Elec       q    Type
REMARK                         _______ _______ _______ _____ _____    ______ ____
ROOT
ATOM      1  C   UNL     1       2.943   6.914  17.574  0.00  0.00    +0.000 C 
ENDROOT
BRANCH   1   2
ATOM      2  C   UNL     1       2.232   7.892  18.478  0.00  0.00    +0.000 A 
ATOM      3  C   UNL     1       2.058   7.608  19.839  0.00  0.00    +0.000 A 
ATOM      4  C   UNL     1       1.356   8.490  20.659  0.00  0.00    +0.000 A 
ATOM      5  C   UNL     1       0.839   9.671  20.129  0.00  0.00    +0.000 A 
ATOM      6  C   UNL     1       1.038   9.988  18.785  0.00  0.00    +0.000 A 
ATOM      7  C   UNL     1       1.723   9.094  17.961  0.00  0.00    +0.000 A 
BRANCH   6   8
ATOM      8  O   UNL     1       0.477  11.167  18.369  0.00  0.00    +0.000 OA
BRANCH   8   9
ATOM      9  C   UNL     1       0.791  12.310  19.172  0.00  0.00    +0.000 C 
BRANCH   9  10
ATOM     10  C   UNL     1       2.097  12.910  18.677  0.00  0.00    +0.000 C 
ATOM     11  O   UNL     1       2.900  13.486  19.397  0.00  0.00    +0.000 OA
BRANCH  10  12
ATOM     12  O   UNL     1       2.304  12.728  17.349  0.00  0.00    +0.000 OA
ATOM     13  H   UNL     1       2.513  13.592  16.930  0.00  0.00    +0.000 HD
ENDBRANCH  10  12
ENDBRANCH   9  10
ENDBRANCH   8   9
ENDBRANCH   6   8
ENDBRANCH   1   2
BRANCH   1  14
ATOM     14  C   UNL     1       4.462   7.098  17.608  0.00  0.00    +0.000 C 
BRANCH  14  15
ATOM     15  C   UNL     1       5.162   5.812  18.041  0.00  0.00    +0.000 C 
BRANCH  15  17
ATOM     16  C   UNL     1       4.443   3.479  18.609  0.00  0.00    +0.000 C 
ATOM     17  C   UNL     1       4.206   4.656  18.010  0.00  0.00    +0.000 C 
BRANCH  16  18
ATOM     18  C   UNL     1       3.500   2.314  18.559  0.00  0.00    +0.000 C 
BRANCH  18  19
ATOM     19  O   UNL     1       4.131   1.277  17.818  0.00  0.00    +0.000 OA
ATOM     20  H   UNL     1       4.063   0.460  18.339  0.00  0.00    +0.000 HD
ENDBRANCH  18  19
BRANCH  18  21
ATOM     21  C   UNL     1       2.177   2.713  17.897  0.00  0.00    +0.000 C 
BRANCH  21  22
ATOM     22  C   UNL     1       0.973   2.207  18.694  0.00  0.00    +0.000 C 
BRANCH  22  23
ATOM     23  C   UNL     1       1.079   2.606  20.165  0.00  0.00    +0.000 C 
BRANCH  23  25
ATOM     24  C   UNL     1       2.159   4.607  21.241  0.00  0.00    +0.000 C 
ATOM     25  C   UNL     1       1.050   4.125  20.321  0.00  0.00    +0.000 C 
ENDBRANCH  23  25
ENDBRANCH  22  23
ENDBRANCH  21  22
ENDBRANCH  18  21
ENDBRANCH  16  18
ENDBRANCH  15  17
ENDBRANCH  14  15
ENDBRANCH   1  14
TORSDOF 14
ENDMDL
MODEL 5
REMARK VINA RESULT:      -6.3      5.748      7.850
REMARK  Name = 
REMARK  15 active torsions:
REMARK  status: ('A' for Active; 'I' for Inactive)
REMARK    1  A    between atoms: C_1  and  C_2
REMARK    2  A    between atoms: C_2  and  C_3
REMARK    3  A    between atoms: C_3  and  C_4
REMARK    4  A    between atoms: C_4  and  C_5
REMARK    5  A    between atoms: C_5  and  C_6
REMARK    6  A    between atoms: C_6  and  O_7
REMARK    7  A    between atoms: C_6  and  C_8
REMARK    8  A    between atoms: C_9  and  C_10
REMARK    9  A    between atoms: C_10  and  C_11
REMARK   10  A    between atoms: C_11  and  C_12
REMARK   11  A    between atoms: C_12  and  C_13
REMARK   12  A    between atoms: C_17  and  O_18
REMARK   13  A    between atoms: O_18  and  C_19
REMARK   14  A    between atoms: C_19  and  C_20
REMARK   15  A    between atoms: C_20  and  O_22
REMARK                            x       y       z     vdW  Elec       q    Type
REMARK                         _______ _______ _______ _____ _____    ______ ____
ROOT
ATOM      1  C   UNL     1       6.529   6.087  16.677  0.00  0.00    +0.000 C 
ENDROOT
BRANCH   1   2
ATOM      2  C   UNL     1       5.104   5.832  17.107  0.00  0.00    +0.000 A 
ATOM      3  C   UNL     1       4.291   6.887  17.540  0.00  0.00    +0.000 A 
ATOM      4  C   UNL     1       2.994   6.641  17.986  0.00  0.00    +0.000 A 
ATOM      5  C   UNL     1       2.493   5.340  17.984  0.00  0.00    +0.000 A 
ATOM      6  C   UNL     1       3.275   4.283  17.518  0.00  0.00    +0.000 A 
ATOM      7  C   UNL     1       4.581   4.529  17.091  0.00  0.00    +0.000 A 
BRANCH   6   8
ATOM      8  O   UNL     1       2.686   3.048  17.571  0.00  0.00    +0.000 OA
BRANCH   8   9
ATOM      9  C   UNL     1       3.510   1.998  18.088  0.00  0.00    +0.000 C 
BRANCH   9  10
ATOM     10  C   UNL     1       3.740   2.244  19.570  0.00  0.00    +0.000 C 
ATOM     11  O   UNL     1       2.842   2.435  20.377  0.00  0.00    +0.000 OA
BRANCH  10  12
ATOM     12  O   UNL     1       5.048   2.211  19.925  0.00  0.00    +0.000 OA
ATOM     13  H   UNL     1       5.292   3.062  20.352  0.00  0.00    +0.000 HD
ENDBRANCH  10  12
ENDBRANCH   9  10
ENDBRANCH   8   9
ENDBRANCH   6   8
ENDBRANCH   1   2
BRANCH   1  14
ATOM     14  C   UNL     1       7.366   6.706  17.799  0.00  0.00    +0.000 C 
BRANCH  14  15
ATOM     15  C   UNL     1       7.753   8.145  17.465  0.00  0.00    +0.000 C 
BRANCH  15  17
ATOM     16  C   UNL     1       8.944  10.030  18.609  0.00  0.00    +0.000 C 
ATOM     17  C   UNL     1       8.562   8.745  18.577  0.00  0.00    +0.000 C 
BRANCH  16  18
ATOM     18  C   UNL     1       9.774  10.625  19.708  0.00  0.00    +0.000 C 
BRANCH  18  19
ATOM     19  O   UNL     1       8.941  11.507  20.451  0.00  0.00    +0.000 OA
ATOM     20  H   UNL     1       8.265  10.970  20.895  0.00  0.00    +0.000 HD
ENDBRANCH  18  19
BRANCH  18  21
ATOM     21  C   UNL     1      10.975  11.383  19.134  0.00  0.00    +0.000 C 
BRANCH  21  22
ATOM     22  C   UNL     1      11.512  12.420  20.123  0.00  0.00    +0.000 C 
BRANCH  22  23
ATOM     23  C   UNL     1      11.580  13.806  19.485  0.00  0.00    +0.000 C 
BRANCH  23  25
ATOM     24  C   UNL     1      10.297  14.609  21.494  0.00  0.00    +0.000 C 
ATOM     25  C   UNL     1      10.440  14.692  19.984  0.00  0.00    +0.000 C 
ENDBRANCH  23  25
ENDBRANCH  22  23
ENDBRANCH  21  22
ENDBRANCH  18  21
ENDBRANCH  16  18
ENDBRANCH  15  17
ENDBRANCH  14  15
ENDBRANCH   1  14
TORSDOF 14
ENDMDL
MODEL 6
REMARK VINA RESULT:      -6.2      5.755      7.995
REMARK  Name = 
REMARK  15 active torsions:
REMARK  status: ('A' for Active; 'I' for Inactive)
REMARK    1  A    between atoms: C_1  and  C_2
REMARK    2  A    between atoms: C_2  and  C_3
REMARK    3  A    between atoms: C_3  and  C_4
REMARK    4  A    between atoms: C_4  and  C_5
REMARK    5  A    between atoms: C_5  and  C_6
REMARK    6  A    between atoms: C_6  and  O_7
REMARK    7  A    between atoms: C_6  and  C_8
REMARK    8  A    between atoms: C_9  and  C_10
REMARK    9  A    between atoms: C_10  and  C_11
REMARK   10  A    between atoms: C_11  and  C_12
REMARK   11  A    between atoms: C_12  and  C_13
REMARK   12  A    between atoms: C_17  and  O_18
REMARK   13  A    between atoms: O_18  and  C_19
REMARK   14  A    between atoms: C_19  and  C_20
REMARK   15  A    between atoms: C_20  and  O_22
REMARK                            x       y       z     vdW  Elec       q    Type
REMARK                         _______ _______ _______ _____ _____    ______ ____
ROOT
ATOM      1  C   UNL     1       6.553   5.824  17.519  0.00  0.00    +0.000 C 
ENDROOT
BRANCH   1   2
ATOM      2  C   UNL     1       5.119   5.759  17.988  0.00  0.00    +0.000 A 
ATOM      3  C   UNL     1       4.204   6.754  17.620  0.00  0.00    +0.000 A 
ATOM      4  C   UNL     1       2.895   6.719  18.097  0.00  0.00    +0.000 A 
ATOM      5  C   UNL     1       2.485   5.679  18.930  0.00  0.00    +0.000 A 
ATOM      6  C   UNL     1       3.372   4.658  19.273  0.00  0.00    +0.000 A 
ATOM      7  C   UNL     1       4.689   4.706  18.811  0.00  0.00    +0.000 A 
BRANCH   6   8
ATOM      8  O   UNL     1       2.867   3.694  20.104  0.00  0.00    +0.000 OA
BRANCH   8   9
ATOM      9  C   UNL     1       1.455   3.478  20.005  0.00  0.00    +0.000 C 
BRANCH   9  10
ATOM     10  C   UNL     1       1.202   2.349  19.020  0.00  0.00    +0.000 C 
ATOM     11  O   UNL     1       0.167   2.219  18.382  0.00  0.00    +0.000 OA
BRANCH  10  12
ATOM     12  O   UNL     1       2.250   1.499  18.895  0.00  0.00    +0.000 OA
ATOM     13  H   UNL     1       1.922   0.572  18.906  0.00  0.00    +0.000 HD
ENDBRANCH  10  12
ENDBRANCH   9  10
ENDBRANCH   8   9
ENDBRANCH   6   8
ENDBRANCH   1   2
BRANCH   1  14
ATOM     14  C   UNL     1       6.996   7.258  17.221  0.00  0.00    +0.000 C 
BRANCH  14  15
ATOM     15  C   UNL     1       8.091   7.706  18.187  0.00  0.00    +0.000 C 
BRANCH  15  17
ATOM     16  C   UNL     1       9.098   9.883  18.916  0.00  0.00    +0.000 C 
ATOM     17  C   UNL     1       8.319   9.185  18.076  0.00  0.00    +0.000 C 
BRANCH  16  18
ATOM     18  C   UNL     1       9.307  11.365  18.822  0.00  0.00    +0.000 C 
BRANCH  18  19
ATOM     19  O   UNL     1       8.647  11.822  17.648  0.00  0.00    +0.000 OA
ATOM     20  H   UNL     1       7.730  12.030  17.888  0.00  0.00    +0.000 HD
ENDBRANCH  18  19
BRANCH  18  21
ATOM     21  C   UNL     1      10.800  11.701  18.758  0.00  0.00    +0.000 C 
BRANCH  21  22
ATOM     22  C   UNL     1      11.358  12.053  20.139  0.00  0.00    +0.000 C 
BRANCH  22  23
ATOM     23  C   UNL     1      10.315  12.781  20.985  0.00  0.00    +0.000 C 
BRANCH  23  25
ATOM     24  C   UNL     1       9.856  14.975  22.125  0.00  0.00    +0.000 C 
ATOM     25  C   UNL     1      10.547  14.290  20.959  0.00  0.00    +0.000 C 
ENDBRANCH  23  25
ENDBRANCH  22  23
ENDBRANCH  21  22
ENDBRANCH  18  21
ENDBRANCH  16  18
ENDBRANCH  15  17
ENDBRANCH  14  15
ENDBRANCH   1  14
TORSDOF 14
ENDMDL
MODEL 7
REMARK VINA RESULT:      -6.1      4.862      8.159
REMARK  Name = 
REMARK  15 active torsions:
REMARK  status: ('A' for Active; 'I' for Inactive)
REMARK    1  A    between atoms: C_1  and  C_2
REMARK    2  A    between atoms: C_2  and  C_3
REMARK    3  A    between atoms: C_3  and  C_4
REMARK    4  A    between atoms: C_4  and  C_5
REMARK    5  A    between atoms: C_5  and  C_6
REMARK    6  A    between atoms: C_6  and  O_7
REMARK    7  A    between atoms: C_6  and  C_8
REMARK    8  A    between atoms: C_9  and  C_10
REMARK    9  A    between atoms: C_10  and  C_11
REMARK   10  A    between atoms: C_11  and  C_12
REMARK   11  A    between atoms: C_12  and  C_13
REMARK   12  A    between atoms: C_17  and  O_18
REMARK   13  A    between atoms: O_18  and  C_19
REMARK   14  A    between atoms: C_19  and  C_20
REMARK   15  A    between atoms: C_20  and  O_22
REMARK                            x       y       z     vdW  Elec       q    Type
REMARK                         _______ _______ _______ _____ _____    ______ ____
ROOT
ATOM      1  C   UNL     1       2.000   7.331  18.764  0.00  0.00    +0.000 C 
ENDROOT
BRANCH   1   2
ATOM      2  C   UNL     1       2.679   6.011  18.491  0.00  0.00    +0.000 A 
ATOM      3  C   UNL     1       1.976   4.959  17.890  0.00  0.00    +0.000 A 
ATOM      4  C   UNL     1       2.590   3.725  17.687  0.00  0.00    +0.000 A 
ATOM      5  C   UNL     1       3.919   3.538  18.066  0.00  0.00    +0.000 A 
ATOM      6  C   UNL     1       4.646   4.587  18.629  0.00  0.00    +0.000 A 
ATOM      7  C   UNL     1       4.022   5.817  18.850  0.00  0.00    +0.000 A 
BRANCH   6   8
ATOM      8  O   UNL     1       5.938   4.290  18.973  0.00  0.00    +0.000 OA
BRANCH   8   9
ATOM      9  C   UNL     1       6.880   5.352  18.791  0.00  0.00    +0.000 C 
BRANCH   9  10
ATOM     10  C   UNL     1       7.533   5.196  17.427  0.00  0.00    +0.000 C 
ATOM     11  O   UNL     1       8.106   4.181  17.057  0.00  0.00    +0.000 OA
BRANCH  10  12
ATOM     12  O   UNL     1       7.404   6.293  16.640  0.00  0.00    +0.000 OA
ATOM     13  H   UNL     1       7.432   6.022  15.696  0.00  0.00    +0.000 HD
ENDBRANCH  10  12
ENDBRANCH   9  10
ENDBRANCH   8   9
ENDBRANCH   6   8
ENDBRANCH   1   2
BRANCH   1  14
ATOM     14  C   UNL     1       2.108   8.290  17.575  0.00  0.00    +0.000 C 
BRANCH  14  15
ATOM     15  C   UNL     1       2.158   9.743  18.044  0.00  0.00    +0.000 C 
BRANCH  15  17
ATOM     16  C   UNL     1      -0.042  10.769  18.669  0.00  0.00    +0.000 C 
ATOM     17  C   UNL     1       1.030  10.030  18.991  0.00  0.00    +0.000 C 
BRANCH  16  18
ATOM     18  C   UNL     1      -1.159  11.077  19.621  0.00  0.00    +0.000 C 
BRANCH  18  19
ATOM     19  O   UNL     1      -2.359  11.176  18.865  0.00  0.00    +0.000 OA
ATOM     20  H   UNL     1      -2.750  10.288  18.815  0.00  0.00    +0.000 HD
ENDBRANCH  18  19
BRANCH  18  21
ATOM     21  C   UNL     1      -0.891  12.387  20.369  0.00  0.00    +0.000 C 
BRANCH  21  22
ATOM     22  C   UNL     1      -0.317  12.132  21.764  0.00  0.00    +0.000 C 
BRANCH  22  23
ATOM     23  C   UNL     1      -1.077  11.015  22.477  0.00  0.00    +0.000 C 
BRANCH  23  25
ATOM     24  C   UNL     1      -0.394   8.613  22.173  0.00  0.00    +0.000 C 
ATOM     25  C   UNL     1      -0.126   9.907  22.923  0.00  0.00    +0.000 C 
ENDBRANCH  23  25
ENDBRANCH  22  23
ENDBRANCH  21  22
ENDBRANCH  18  21
ENDBRANCH  16  18
ENDBRANCH  15  17
ENDBRANCH  14  15
ENDBRANCH   1  14
TORSDOF 14
ENDMDL
MODEL 8
REMARK VINA RESULT:      -6.1      5.860      7.891
REMARK  Name = 
REMARK  15 active torsions:
REMARK  status: ('A' for Active; 'I' for Inactive)
REMARK    1  A    between atoms: C_1  and  C_2
REMARK    2  A    between atoms: C_2  and  C_3
REMARK    3  A    between atoms: C_3  and  C_4
REMARK    4  A    between atoms: C_4  and  C_5
REMARK    5  A    between atoms: C_5  and  C_6
REMARK    6  A    between atoms: C_6  and  O_7
REMARK    7  A    between atoms: C_6  and  C_8
REMARK    8  A    between atoms: C_9  and  C_10
REMARK    9  A    between atoms: C_10  and  C_11
REMARK   10  A    between atoms: C_11  and  C_12
REMARK   11  A    between atoms: C_12  and  C_13
REMARK   12  A    between atoms: C_17  and  O_18
REMARK   13  A    between atoms: O_18  and  C_19
REMARK   14  A    between atoms: C_19  and  C_20
REMARK   15  A    between atoms: C_20  and  O_22
REMARK                            x       y       z     vdW  Elec       q    Type
REMARK                         _______ _______ _______ _____ _____    ______ ____
ROOT
ATOM      1  C   UNL     1       7.293   6.116  18.552  0.00  0.00    +0.000 C 
ENDROOT
BRANCH   1   2
ATOM      2  C   UNL     1       6.106   5.263  18.174  0.00  0.00    +0.000 A 
ATOM      3  C   UNL     1       5.933   4.828  16.853  0.00  0.00    +0.000 A 
ATOM      4  C   UNL     1       4.810   4.085  16.497  0.00  0.00    +0.000 A 
ATOM      5  C   UNL     1       3.859   3.754  17.462  0.00  0.00    +0.000 A 
ATOM      6  C   UNL     1       4.036   4.144  18.789  0.00  0.00    +0.000 A 
ATOM      7  C   UNL     1       5.152   4.906  19.140  0.00  0.00    +0.000 A 
BRANCH   6   8
ATOM      8  O   UNL     1       3.037   3.774  19.650  0.00  0.00    +0.000 OA
BRANCH   8   9
ATOM      9  C   UNL     1       2.451   2.493  19.393  0.00  0.00    +0.000 C 
BRANCH   9  10
ATOM     10  C   UNL     1       0.940   2.653  19.329  0.00  0.00    +0.000 C 
ATOM     11  O   UNL     1       0.239   2.164  18.455  0.00  0.00    +0.000 OA
BRANCH  10  12
ATOM     12  O   UNL     1       0.432   3.379  20.354  0.00  0.00    +0.000 OA
ATOM     13  H   UNL     1       0.282   2.792  21.128  0.00  0.00    +0.000 HD
ENDBRANCH  10  12
ENDBRANCH   9  10
ENDBRANCH   8   9
ENDBRANCH   6   8
ENDBRANCH   1   2
BRANCH   1  14
ATOM     14  C   UNL     1       7.808   6.942  17.370  0.00  0.00    +0.000 C 
BRANCH  14  15
ATOM     15  C   UNL     1       7.529   8.429  17.577  0.00  0.00    +0.000 C 
BRANCH  15  17
ATOM     16  C   UNL     1       8.949  10.271  18.511  0.00  0.00    +0.000 C 
ATOM     17  C   UNL     1       8.491   9.012  18.571  0.00  0.00    +0.000 C 
BRANCH  16  18
ATOM     18  C   UNL     1       9.929  10.848  19.489  0.00  0.00    +0.000 C 
BRANCH  18  19
ATOM     19  O   UNL     1       9.553  10.411  20.789  0.00  0.00    +0.000 OA
ATOM     20  H   UNL     1       9.437  11.200  21.343  0.00  0.00    +0.000 HD
ENDBRANCH  18  19
BRANCH  18  21
ATOM     21  C   UNL     1       9.930  12.378  19.421  0.00  0.00    +0.000 C 
BRANCH  21  22
ATOM     22  C   UNL     1      11.232  12.915  18.824  0.00  0.00    +0.000 C 
BRANCH  22  23
ATOM     23  C   UNL     1      11.122  13.066  17.307  0.00  0.00    +0.000 C 
BRANCH  23  25
ATOM     24  C   UNL     1      11.602  15.408  18.089  0.00  0.00    +0.000 C 
ATOM     25  C   UNL     1      11.324  14.521  16.888  0.00  0.00    +0.000 C 
ENDBRANCH  23  25
ENDBRANCH  22  23
ENDBRANCH  21  22
ENDBRANCH  18  21
ENDBRANCH  16  18
ENDBRANCH  15  17
ENDBRANCH  14  15
ENDBRANCH   1  14
TORSDOF 14
ENDMDL
MODEL 9
REMARK VINA RESULT:      -6.1      3.430      5.062
REMARK  Name = 
REMARK  15 active torsions:
REMARK  status: ('A' for Active; 'I' for Inactive)
REMARK    1  A    between atoms: C_1  and  C_2
REMARK    2  A    between atoms: C_2  and  C_3
REMARK    3  A    between atoms: C_3  and  C_4
REMARK    4  A    between atoms: C_4  and  C_5
REMARK    5  A    between atoms: C_5  and  C_6
REMARK    6  A    between atoms: C_6  and  O_7
REMARK    7  A    between atoms: C_6  and  C_8
REMARK    8  A    between atoms: C_9  and  C_10
REMARK    9  A    between atoms: C_10  and  C_11
REMARK   10  A    between atoms: C_11  and  C_12
REMARK   11  A    between atoms: C_12  and  C_13
REMARK   12  A    between atoms: C_17  and  O_18
REMARK   13  A    between atoms: O_18  and  C_19
REMARK   14  A    between atoms: C_19  and  C_20
REMARK   15  A    between atoms: C_20  and  O_22
REMARK                            x       y       z     vdW  Elec       q    Type
REMARK                         _______ _______ _______ _____ _____    ______ ____
ROOT
ATOM      1  C   UNL     1       3.841   3.799  16.348  0.00  0.00    +0.000 C 
ENDROOT
BRANCH   1   2
ATOM      2  C   UNL     1       2.985   3.523  17.561  0.00  0.00    +0.000 A 
ATOM      3  C   UNL     1       2.682   2.207  17.934  0.00  0.00    +0.000 A 
ATOM      4  C   UNL     1       1.849   1.957  19.023  0.00  0.00    +0.000 A 
ATOM      5  C   UNL     1       1.327   3.020  19.758  0.00  0.00    +0.000 A 
ATOM      6  C   UNL     1       1.651   4.335  19.425  0.00  0.00    +0.000 A 
ATOM      7  C   UNL     1       2.470   4.584  18.322  0.00  0.00    +0.000 A 
BRANCH   6   8
ATOM      8  O   UNL     1       1.075   5.300  20.208  0.00  0.00    +0.000 OA
BRANCH   8   9
ATOM      9  C   UNL     1       1.988   6.088  20.980  0.00  0.00    +0.000 C 
BRANCH   9  10
ATOM     10  C   UNL     1       1.856   7.542  20.555  0.00  0.00    +0.000 C 
ATOM     11  O   UNL     1       1.890   7.919  19.392  0.00  0.00    +0.000 OA
BRANCH  10  12
ATOM     12  O   UNL     1       1.675   8.392  21.595  0.00  0.00    +0.000 OA
ATOM     13  H   UNL     1       0.784   8.802  21.530  0.00  0.00    +0.000 HD
ENDBRANCH  10  12
ENDBRANCH   9  10
ENDBRANCH   8   9
ENDBRANCH   6   8
ENDBRANCH   1   2
BRANCH   1  14
ATOM     14  C   UNL     1       5.293   4.103  16.727  0.00  0.00    +0.000 C 
BRANCH  14  15
ATOM     15  C   UNL     1       5.906   5.129  15.775  0.00  0.00    +0.000 C 
BRANCH  15  17
ATOM     16  C   UNL     1       5.845   3.940  13.570  0.00  0.00    +0.000 C 
ATOM     17  C   UNL     1       6.540   4.445  14.600  0.00  0.00    +0.000 C 
BRANCH  16  18
ATOM     18  C   UNL     1       6.475   3.234  12.406  0.00  0.00    +0.000 C 
BRANCH  18  19
ATOM     19  O   UNL     1       7.174   4.205  11.637  0.00  0.00    +0.000 OA
ATOM     20  H   UNL     1       7.897   3.750  11.176  0.00  0.00    +0.000 HD
ENDBRANCH  18  19
BRANCH  18  21
ATOM     21  C   UNL     1       5.412   2.541  11.549  0.00  0.00    +0.000 C 
BRANCH  21  22
ATOM     22  C   UNL     1       4.155   3.401  11.405  0.00  0.00    +0.000 C 
BRANCH  22  23
ATOM     23  C   UNL     1       3.897   3.758   9.942  0.00  0.00    +0.000 C 
BRANCH  23  25
ATOM     24  C   UNL     1       2.252   5.164   8.659  0.00  0.00    +0.000 C 
ATOM     25  C   UNL     1       2.422   4.082   9.712  0.00  0.00    +0.000 C 
ENDBRANCH  23  25
ENDBRANCH  22  23
ENDBRANCH  21  22
ENDBRANCH  18  21
ENDBRANCH  16  18
ENDBRANCH  15  17
ENDBRANCH  14  15
ENDBRANCH   1  14
TORSDOF 14
ENDMDL
