MODEL 1
REMARK VINA RESULT:      -7.9      0.000      0.000
REMARK  Name = 
REMARK  15 active torsions:
REMARK  status: ('A' for Active; 'I' for Inactive)
REMARK    1  A    between atoms: C_1  and  C_2
REMARK    2  A    between atoms: C_2  and  C_3
REMARK    3  A    between atoms: C_3  and  C_4
REMARK    4  A    between atoms: C_4  and  C_5
REMARK    5  A    between atoms: C_5  and  C_6
REMARK    6  A    between atoms: C_6  and  C_7
REMARK    7  A    between atoms: C_7  and  C_8
REMARK    8  A    between atoms: C_8  and  C_9
REMARK    9  A    between atoms: C_9  and  N_10
REMARK   10  A    between atoms: C_11  and  C_13
REMARK   11  A    between atoms: C_13  and  C_14
REMARK   12  A    between atoms: C_15  and  C_16
REMARK   13  A    between atoms: C_18  and  C_20
REMARK   14  A    between atoms: C_30  and  O_31
REMARK   15  A    between atoms: O_31  and  C_32
REMARK                            x       y       z     vdW  Elec       q    Type
REMARK                         _______ _______ _______ _____ _____    ______ ____
ROOT
ATOM      1  C   UNL     1       5.099   5.386  18.702  0.00  0.00    +0.000 A 
ATOM      2  C   UNL     1       4.748   6.540  18.012  0.00  0.00    +0.000 A 
ATOM      3  C   UNL     1       5.573   7.379  17.087  0.00  0.00    +0.000 C 
ATOM      4  N   UNL     1       3.446   6.905  18.373  0.00  0.00    +0.000 N 
ATOM      5  C   UNL     1       2.768   8.087  17.950  0.00  0.00    +0.000 C 
ATOM      6  O   UNL     1       3.126   8.612  16.900  0.00  0.00    +0.000 OA
ATOM      7  C   UNL     1       2.952   5.915  19.236  0.00  0.00    +0.000 A 
ATOM      8  C   UNL     1       1.677   5.730  19.808  0.00  0.00    +0.000 A 
ATOM      9  C   UNL     1       1.485   4.719  20.750  0.00  0.00    +0.000 A 
ATOM     10  C   UNL     1       2.499   3.831  21.062  0.00  0.00    +0.000 A 
ATOM     11  C   UNL     1       3.742   3.960  20.418  0.00  0.00    +0.000 A 
ATOM     12  C   UNL     1       3.979   5.006  19.500  0.00  0.00    +0.000 A 
ENDROOT
BRANCH   5  13
ATOM     13  C   UNL     1       1.651   8.738  18.684  0.00  0.00    +0.000 A 
ATOM     14  C   UNL     1       0.662   9.458  18.002  0.00  0.00    +0.000 A 
ATOM     15  C   UNL     1      -0.263  10.219  18.719  0.00  0.00    +0.000 A 
ATOM     16  C   UNL     1      -0.253  10.186  20.113  0.00  0.00    +0.000 A 
ATOM     17 CL   UNL     1      -1.345  11.181  20.992  0.00  0.00    +0.000 Cl
ATOM     18  C   UNL     1       0.649   9.372  20.796  0.00  0.00    +0.000 A 
ATOM     19  C   UNL     1       1.608   8.647  20.082  0.00  0.00    +0.000 A 
ENDBRANCH   5  13
BRANCH  10  20
ATOM     20  O   UNL     1       2.403   2.795  21.951  0.00  0.00    +0.000 OA
ATOM     21  C   UNL     1       1.082   2.358  22.267  0.00  0.00    +0.000 C 
ENDBRANCH  10  20
BRANCH   1  22
ATOM     22  C   UNL     1       6.442   4.691  18.677  0.00  0.00    +0.000 C 
BRANCH  22  24
ATOM     23  N   UNL     1       5.948   4.128  16.344  0.00  0.00    +0.000 N 
ATOM     24  C   UNL     1       6.935   4.363  17.276  0.00  0.00    +0.000 C 
ATOM     25  O   UNL     1       8.133   4.295  16.998  0.00  0.00    +0.000 OA
ATOM     26  H   UNL     1       4.977   4.122  16.630  0.00  0.00    +0.000 HD
BRANCH  23  27
ATOM     27  C   UNL     1       6.282   3.883  14.959  0.00  0.00    +0.000 C 
BRANCH  27  28
ATOM     28  C   UNL     1       7.092   5.027  14.358  0.00  0.00    +0.000 C 
BRANCH  28  29
ATOM     29  C   UNL     1       7.552   4.677  12.946  0.00  0.00    +0.000 C 
BRANCH  29  30
ATOM     30  C   UNL     1       6.379   4.221  12.085  0.00  0.00    +0.000 C 
BRANCH  30  31
ATOM     31  C   UNL     1       6.507   2.742  11.729  0.00  0.00    +0.000 C 
BRANCH  31  32
ATOM     32  C   UNL     1       5.155   2.162  11.323  0.00  0.00    +0.000 C 
BRANCH  32  33
ATOM     33  C   UNL     1       4.073   3.237  11.348  0.00  0.00    +0.000 C 
BRANCH  33  35
ATOM     34  C   UNL     1       2.896   4.392   9.455  0.00  0.00    +0.000 C 
ATOM     35  C   UNL     1       3.106   3.073  10.178  0.00  0.00    +0.000 C 
ENDBRANCH  33  35
ENDBRANCH  32  33
ENDBRANCH  31  32
ENDBRANCH  30  31
ENDBRANCH  29  30
ENDBRANCH  28  29
ENDBRANCH  27  28
ENDBRANCH  23  27
ENDBRANCH  22  24
ENDBRANCH   1  22
TORSDOF 12
ENDMDL
MODEL 2
REMARK VINA RESULT:      -7.8      4.080      7.611
REMARK  Name = 
REMARK  15 active torsions:
REMARK  status: ('A' for Active; 'I' for Inactive)
REMARK    1  A    between atoms: C_1  and  C_2
REMARK    2  A    between atoms: C_2  and  C_3
REMARK    3  A    between atoms: C_3  and  C_4
REMARK    4  A    between atoms: C_4  and  C_5
REMARK    5  A    between atoms: C_5  and  C_6
REMARK    6  A    between atoms: C_6  and  C_7
REMARK    7  A    between atoms: C_7  and  C_8
REMARK    8  A    between atoms: C_8  and  C_9
REMARK    9  A    between atoms: C_9  and  N_10
REMARK   10  A    between atoms: C_11  and  C_13
REMARK   11  A    between atoms: C_13  and  C_14
REMARK   12  A    between atoms: C_15  and  C_16
REMARK   13  A    between atoms: C_18  and  C_20
REMARK   14  A    between atoms: C_30  and  O_31
REMARK   15  A    between atoms: O_31  and  C_32
REMARK                            x       y       z     vdW  Elec       q    Type
REMARK                         _______ _______ _______ _____ _____    ______ ____
ROOT
ATOM      1  C   UNL     1       0.604  10.566  18.861  0.00  0.00    +0.000 A 
ATOM      2  C   UNL     1       0.829  11.409  19.942  0.00  0.00    +0.000 A 
ATOM      3  C   UNL     1       2.078  11.610  20.744  0.00  0.00    +0.000 C 
ATOM      4  N   UNL     1      -0.371  12.047  20.277  0.00  0.00    +0.000 N 
ATOM      5  C   UNL     1      -0.566  12.915  21.392  0.00  0.00    +0.000 C 
ATOM      6  O   UNL     1       0.414  13.494  21.850  0.00  0.00    +0.000 OA
ATOM      7  C   UNL     1      -1.335  11.658  19.335  0.00  0.00    +0.000 A 
ATOM      8  C   UNL     1      -2.667  12.075  19.138  0.00  0.00    +0.000 A 
ATOM      9  C   UNL     1      -3.461  11.423  18.195  0.00  0.00    +0.000 A 
ATOM     10  C   UNL     1      -2.937  10.437  17.379  0.00  0.00    +0.000 A 
ATOM     11  C   UNL     1      -1.580  10.089  17.512  0.00  0.00    +0.000 A 
ATOM     12  C   UNL     1      -0.769  10.697  18.494  0.00  0.00    +0.000 A 
ENDROOT
BRANCH   5  13
ATOM     13  C   UNL     1      -1.874  13.179  22.047  0.00  0.00    +0.000 A 
ATOM     14  C   UNL     1      -2.400  12.289  22.992  0.00  0.00    +0.000 A 
ATOM     15  C   UNL     1      -3.709  12.454  23.449  0.00  0.00    +0.000 A 
ATOM     16  C   UNL     1      -4.454  13.557  23.031  0.00  0.00    +0.000 A 
ATOM     17 CL   UNL     1      -6.089  13.717  23.538  0.00  0.00    +0.000 Cl
ATOM     18  C   UNL     1      -3.890  14.514  22.190  0.00  0.00    +0.000 A 
ATOM     19  C   UNL     1      -2.597  14.326  21.692  0.00  0.00    +0.000 A 
ENDBRANCH   5  13
BRANCH  10  20
ATOM     20  O   UNL     1      -3.625   9.757  16.410  0.00  0.00    +0.000 OA
ATOM     21  C   UNL     1      -3.374  10.155  15.064  0.00  0.00    +0.000 C 
ENDBRANCH  10  20
BRANCH   1  22
ATOM     22  C   UNL     1       1.602   9.624  18.226  0.00  0.00    +0.000 C 
BRANCH  22  24
ATOM     23  N   UNL     1       2.803   7.508  18.518  0.00  0.00    +0.000 N 
ATOM     24  C   UNL     1       1.922   8.406  19.080  0.00  0.00    +0.000 C 
ATOM     25  O   UNL     1       1.417   8.227  20.188  0.00  0.00    +0.000 OA
ATOM     26  H   UNL     1       3.138   7.655  17.575  0.00  0.00    +0.000 HD
BRANCH  23  27
ATOM     27  C   UNL     1       3.250   6.349  19.258  0.00  0.00    +0.000 C 
BRANCH  27  28
ATOM     28  C   UNL     1       4.327   5.575  18.506  0.00  0.00    +0.000 C 
BRANCH  28  29
ATOM     29  C   UNL     1       3.793   5.075  17.167  0.00  0.00    +0.000 C 
BRANCH  29  30
ATOM     30  C   UNL     1       2.876   3.871  17.358  0.00  0.00    +0.000 C 
BRANCH  30  31
ATOM     31  C   UNL     1       3.679   2.630  17.739  0.00  0.00    +0.000 C 
BRANCH  31  32
ATOM     32  C   UNL     1       3.270   2.121  19.118  0.00  0.00    +0.000 C 
BRANCH  32  33
ATOM     33  C   UNL     1       1.755   2.162  19.285  0.00  0.00    +0.000 C 
BRANCH  33  35
ATOM     34  C   UNL     1       0.961   4.181  20.548  0.00  0.00    +0.000 C 
ATOM     35  C   UNL     1       1.366   2.721  20.651  0.00  0.00    +0.000 C 
ENDBRANCH  33  35
ENDBRANCH  32  33
ENDBRANCH  31  32
ENDBRANCH  30  31
ENDBRANCH  29  30
ENDBRANCH  28  29
ENDBRANCH  27  28
ENDBRANCH  23  27
ENDBRANCH  22  24
ENDBRANCH   1  22
TORSDOF 12
ENDMDL
MODEL 3
REMARK VINA RESULT:      -7.8      4.299      7.840
REMARK  Name = 
REMARK  15 active torsions:
REMARK  status: ('A' for Active; 'I' for Inactive)
REMARK    1  A    between atoms: C_1  and  C_2
REMARK    2  A    between atoms: C_2  and  C_3
REMARK    3  A    between atoms: C_3  and  C_4
REMARK    4  A    between atoms: C_4  and  C_5
REMARK    5  A    between atoms: C_5  and  C_6
REMARK    6  A    between atoms: C_6  and  C_7
REMARK    7  A    between atoms: C_7  and  C_8
REMARK    8  A    between atoms: C_8  and  C_9
REMARK    9  A    between atoms: C_9  and  N_10
REMARK   10  A    between atoms: C_11  and  C_13
REMARK   11  A    between atoms: C_13  and  C_14
REMARK   12  A    between atoms: C_15  and  C_16
REMARK   13  A    between atoms: C_18  and  C_20
REMARK   14  A    between atoms: C_30  and  O_31
REMARK   15  A    between atoms: O_31  and  C_32
REMARK                            x       y       z     vdW  Elec       q    Type
REMARK                         _______ _______ _______ _____ _____    ______ ____
ROOT
ATOM      1  C   UNL     1       0.571  10.747  18.760  0.00  0.00    +0.000 A 
ATOM      2  C   UNL     1       0.637  11.612  19.845  0.00  0.00    +0.000 A 
ATOM      3  C   UNL     1       1.806  11.950  20.718  0.00  0.00    +0.000 C 
ATOM      4  N   UNL     1      -0.643  12.115  20.102  0.00  0.00    +0.000 N 
ATOM      5  C   UNL     1      -1.000  12.958  21.196  0.00  0.00    +0.000 C 
ATOM      6  O   UNL     1      -0.118  13.643  21.707  0.00  0.00    +0.000 OA
ATOM      7  C   UNL     1      -1.501  11.620  19.108  0.00  0.00    +0.000 A 
ATOM      8  C   UNL     1      -2.856  11.888  18.828  0.00  0.00    +0.000 A 
ATOM      9  C   UNL     1      -3.516  11.150  17.844  0.00  0.00    +0.000 A 
ATOM     10  C   UNL     1      -2.838  10.227  17.069  0.00  0.00    +0.000 A 
ATOM     11  C   UNL     1      -1.462  10.030  17.287  0.00  0.00    +0.000 A 
ATOM     12  C   UNL     1      -0.783  10.726  18.311  0.00  0.00    +0.000 A 
ENDROOT
BRANCH   5  13
ATOM     13  C   UNL     1      -2.366  13.078  21.770  0.00  0.00    +0.000 A 
ATOM     14  C   UNL     1      -3.292  13.988  21.245  0.00  0.00    +0.000 A 
ATOM     15  C   UNL     1      -4.493  14.222  21.916  0.00  0.00    +0.000 A 
ATOM     16  C   UNL     1      -4.805  13.482  23.056  0.00  0.00    +0.000 A 
ATOM     17 CL   UNL     1      -6.251  13.823  23.921  0.00  0.00    +0.000 Cl
ATOM     18  C   UNL     1      -3.943  12.485  23.510  0.00  0.00    +0.000 A 
ATOM     19  C   UNL     1      -2.716  12.282  22.869  0.00  0.00    +0.000 A 
ENDBRANCH   5  13
BRANCH  10  20
ATOM     20  O   UNL     1      -3.387   9.474  16.068  0.00  0.00    +0.000 OA
ATOM     21  C   UNL     1      -3.082   9.881  14.735  0.00  0.00    +0.000 C 
ENDBRANCH  10  20
BRANCH   1  22
ATOM     22  C   UNL     1       1.703   9.919  18.193  0.00  0.00    +0.000 C 
BRANCH  22  24
ATOM     23  N   UNL     1       2.437   7.584  18.080  0.00  0.00    +0.000 N 
ATOM     24  C   UNL     1       1.861   8.561  18.861  0.00  0.00    +0.000 C 
ATOM     25  O   UNL     1       1.484   8.346  20.013  0.00  0.00    +0.000 OA
ATOM     26  H   UNL     1       2.665   7.782  17.113  0.00  0.00    +0.000 HD
BRANCH  23  27
ATOM     27  C   UNL     1       2.715   6.273  18.621  0.00  0.00    +0.000 C 
BRANCH  27  28
ATOM     28  C   UNL     1       4.213   6.007  18.727  0.00  0.00    +0.000 C 
BRANCH  28  29
ATOM     29  C   UNL     1       4.852   5.970  17.342  0.00  0.00    +0.000 C 
BRANCH  29  30
ATOM     30  C   UNL     1       5.813   7.138  17.150  0.00  0.00    +0.000 C 
BRANCH  30  31
ATOM     31  C   UNL     1       7.261   6.682  17.304  0.00  0.00    +0.000 C 
BRANCH  31  32
ATOM     32  C   UNL     1       8.065   7.692  18.117  0.00  0.00    +0.000 C 
BRANCH  32  33
ATOM     33  C   UNL     1       7.767   9.117  17.662  0.00  0.00    +0.000 C 
BRANCH  33  35
ATOM     34  C   UNL     1       9.180  10.043  19.519  0.00  0.00    +0.000 C 
ATOM     35  C   UNL     1       8.909  10.063  18.025  0.00  0.00    +0.000 C 
ENDBRANCH  33  35
ENDBRANCH  32  33
ENDBRANCH  31  32
ENDBRANCH  30  31
ENDBRANCH  29  30
ENDBRANCH  28  29
ENDBRANCH  27  28
ENDBRANCH  23  27
ENDBRANCH  22  24
ENDBRANCH   1  22
TORSDOF 12
ENDMDL
MODEL 4
REMARK VINA RESULT:      -7.8      4.016      7.434
REMARK  Name = 
REMARK  15 active torsions:
REMARK  status: ('A' for Active; 'I' for Inactive)
REMARK    1  A    between atoms: C_1  and  C_2
REMARK    2  A    between atoms: C_2  and  C_3
REMARK    3  A    between atoms: C_3  and  C_4
REMARK    4  A    between atoms: C_4  and  C_5
REMARK    5  A    between atoms: C_5  and  C_6
REMARK    6  A    between atoms: C_6  and  C_7
REMARK    7  A    between atoms: C_7  and  C_8
REMARK    8  A    between atoms: C_8  and  C_9
REMARK    9  A    between atoms: C_9  and  N_10
REMARK   10  A    between atoms: C_11  and  C_13
REMARK   11  A    between atoms: C_13  and  C_14
REMARK   12  A    between atoms: C_15  and  C_16
REMARK   13  A    between atoms: C_18  and  C_20
REMARK   14  A    between atoms: C_30  and  O_31
REMARK   15  A    between atoms: O_31  and  C_32
REMARK                            x       y       z     vdW  Elec       q    Type
REMARK                         _______ _______ _______ _____ _____    ______ ____
ROOT
ATOM      1  C   UNL     1       0.392   9.688  19.586  0.00  0.00    +0.000 A 
ATOM      2  C   UNL     1       0.422  10.598  20.636  0.00  0.00    +0.000 A 
ATOM      3  C   UNL     1       1.267  10.591  21.872  0.00  0.00    +0.000 C 
ATOM      4  N   UNL     1      -0.569  11.564  20.428  0.00  0.00    +0.000 N 
ATOM      5  C   UNL     1      -0.913  12.609  21.334  0.00  0.00    +0.000 C 
ATOM      6  O   UNL     1      -0.060  12.981  22.135  0.00  0.00    +0.000 OA
ATOM      7  C   UNL     1      -1.167  11.297  19.186  0.00  0.00    +0.000 A 
ATOM      8  C   UNL     1      -2.135  12.005  18.446  0.00  0.00    +0.000 A 
ATOM      9  C   UNL     1      -2.660  11.443  17.282  0.00  0.00    +0.000 A 
ATOM     10  C   UNL     1      -2.177  10.246  16.787  0.00  0.00    +0.000 A 
ATOM     11  C   UNL     1      -1.144   9.587  17.477  0.00  0.00    +0.000 A 
ATOM     12  C   UNL     1      -0.631  10.108  18.685  0.00  0.00    +0.000 A 
ENDROOT
BRANCH   5  13
ATOM     13  C   UNL     1      -2.232  13.293  21.386  0.00  0.00    +0.000 A 
ATOM     14  C   UNL     1      -2.390  14.594  20.891  0.00  0.00    +0.000 A 
ATOM     15  C   UNL     1      -3.580  15.286  21.123  0.00  0.00    +0.000 A 
ATOM     16  C   UNL     1      -4.637  14.647  21.769  0.00  0.00    +0.000 A 
ATOM     17 CL   UNL     1      -6.073  15.525  22.119  0.00  0.00    +0.000 Cl
ATOM     18  C   UNL     1      -4.529  13.311  22.152  0.00  0.00    +0.000 A 
ATOM     19  C   UNL     1      -3.322  12.630  21.964  0.00  0.00    +0.000 A 
ENDBRANCH   5  13
BRANCH  10  20
ATOM     20  O   UNL     1      -2.608   9.627  15.645  0.00  0.00    +0.000 OA
ATOM     21  C   UNL     1      -3.474  10.389  14.805  0.00  0.00    +0.000 C 
ENDBRANCH  10  20
BRANCH   1  22
ATOM     22  C   UNL     1       1.232   8.438  19.448  0.00  0.00    +0.000 C 
BRANCH  22  24
ATOM     23  N   UNL     1       3.031   7.384  18.161  0.00  0.00    +0.000 N 
ATOM     24  C   UNL     1       2.235   8.499  18.305  0.00  0.00    +0.000 C 
ATOM     25  O   UNL     1       2.339   9.482  17.571  0.00  0.00    +0.000 OA
ATOM     26  H   UNL     1       2.965   6.628  18.831  0.00  0.00    +0.000 HD
BRANCH  23  27
ATOM     27  C   UNL     1       3.970   7.283  17.066  0.00  0.00    +0.000 C 
BRANCH  27  28
ATOM     28  C   UNL     1       4.466   5.854  16.874  0.00  0.00    +0.000 C 
BRANCH  28  29
ATOM     29  C   UNL     1       4.828   5.225  18.215  0.00  0.00    +0.000 C 
BRANCH  29  30
ATOM     30  C   UNL     1       4.066   3.922  18.434  0.00  0.00    +0.000 C 
BRANCH  30  31
ATOM     31  C   UNL     1       3.009   3.721  17.351  0.00  0.00    +0.000 C 
BRANCH  31  32
ATOM     32  C   UNL     1       1.613   4.014  17.893  0.00  0.00    +0.000 C 
BRANCH  32  33
ATOM     33  C   UNL     1       1.007   2.769  18.533  0.00  0.00    +0.000 C 
BRANCH  33  35
ATOM     34  C   UNL     1       1.041   4.220  20.582  0.00  0.00    +0.000 C 
ATOM     35  C   UNL     1       1.158   2.802  20.052  0.00  0.00    +0.000 C 
ENDBRANCH  33  35
ENDBRANCH  32  33
ENDBRANCH  31  32
ENDBRANCH  30  31
ENDBRANCH  29  30
ENDBRANCH  28  29
ENDBRANCH  27  28
ENDBRANCH  23  27
ENDBRANCH  22  24
ENDBRANCH   1  22
TORSDOF 12
ENDMDL
MODEL 5
REMARK VINA RESULT:      -7.6      3.970      7.608
REMARK  Name = 
REMARK  15 active torsions:
REMARK  status: ('A' for Active; 'I' for Inactive)
REMARK    1  A    between atoms: C_1  and  C_2
REMARK    2  A    between atoms: C_2  and  C_3
REMARK    3  A    between atoms: C_3  and  C_4
REMARK    4  A    between atoms: C_4  and  C_5
REMARK    5  A    between atoms: C_5  and  C_6
REMARK    6  A    between atoms: C_6  and  C_7
REMARK    7  A    between atoms: C_7  and  C_8
REMARK    8  A    between atoms: C_8  and  C_9
REMARK    9  A    between atoms: C_9  and  N_10
REMARK   10  A    between atoms: C_11  and  C_13
REMARK   11  A    between atoms: C_13  and  C_14
REMARK   12  A    between atoms: C_15  and  C_16
REMARK   13  A    between atoms: C_18  and  C_20
REMARK   14  A    between atoms: C_30  and  O_31
REMARK   15  A    between atoms: O_31  and  C_32
REMARK                            x       y       z     vdW  Elec       q    Type
REMARK                         _______ _______ _______ _____ _____    ______ ____
ROOT
ATOM      1  C   UNL     1       0.477  10.823  18.815  0.00  0.00    +0.000 A 
ATOM      2  C   UNL     1       0.541  11.712  19.881  0.00  0.00    +0.000 A 
ATOM      3  C   UNL     1       1.702  12.054  20.762  0.00  0.00    +0.000 C 
ATOM      4  N   UNL     1      -0.736  12.238  20.109  0.00  0.00    +0.000 N 
ATOM      5  C   UNL     1      -1.095  13.112  21.178  0.00  0.00    +0.000 C 
ATOM      6  O   UNL     1      -0.210  13.796  21.685  0.00  0.00    +0.000 OA
ATOM      7  C   UNL     1      -1.587  11.732  19.115  0.00  0.00    +0.000 A 
ATOM      8  C   UNL     1      -2.935  12.012  18.810  0.00  0.00    +0.000 A 
ATOM      9  C   UNL     1      -3.591  11.261  17.835  0.00  0.00    +0.000 A 
ATOM     10  C   UNL     1      -2.916  10.310  17.091  0.00  0.00    +0.000 A 
ATOM     11  C   UNL     1      -1.547  10.099  17.332  0.00  0.00    +0.000 A 
ATOM     12  C   UNL     1      -0.871  10.809  18.348  0.00  0.00    +0.000 A 
ENDROOT
BRANCH   5  13
ATOM     13  C   UNL     1      -2.466  13.264  21.730  0.00  0.00    +0.000 A 
ATOM     14  C   UNL     1      -3.317  14.282  21.281  0.00  0.00    +0.000 A 
ATOM     15  C   UNL     1      -4.520  14.527  21.945  0.00  0.00    +0.000 A 
ATOM     16  C   UNL     1      -4.911  13.698  22.995  0.00  0.00    +0.000 A 
ATOM     17 CL   UNL     1      -6.357  14.047  23.858  0.00  0.00    +0.000 Cl
ATOM     18  C   UNL     1      -4.128  12.606  23.364  0.00  0.00    +0.000 A 
ATOM     19  C   UNL     1      -2.899  12.387  22.734  0.00  0.00    +0.000 A 
ENDBRANCH   5  13
BRANCH  10  20
ATOM     20  O   UNL     1      -3.463   9.541  16.100  0.00  0.00    +0.000 OA
ATOM     21  C   UNL     1      -3.231   9.981  14.763  0.00  0.00    +0.000 C 
ENDBRANCH  10  20
BRANCH   1  22
ATOM     22  C   UNL     1       1.604   9.966  18.284  0.00  0.00    +0.000 C 
BRANCH  22  24
ATOM     23  N   UNL     1       2.565   7.716  18.425  0.00  0.00    +0.000 N 
ATOM     24  C   UNL     1       1.813   8.677  19.065  0.00  0.00    +0.000 C 
ATOM     25  O   UNL     1       1.330   8.499  20.183  0.00  0.00    +0.000 OA
ATOM     26  H   UNL     1       2.881   7.874  17.477  0.00  0.00    +0.000 HD
BRANCH  23  27
ATOM     27  C   UNL     1       2.903   6.478  19.090  0.00  0.00    +0.000 C 
BRANCH  27  28
ATOM     28  C   UNL     1       1.924   5.361  18.743  0.00  0.00    +0.000 C 
BRANCH  28  29
ATOM     29  C   UNL     1       2.667   4.145  18.199  0.00  0.00    +0.000 C 
BRANCH  29  30
ATOM     30  C   UNL     1       3.639   4.545  17.095  0.00  0.00    +0.000 C 
BRANCH  30  31
ATOM     31  C   UNL     1       4.933   3.741  17.192  0.00  0.00    +0.000 C 
BRANCH  31  32
ATOM     32  C   UNL     1       6.013   4.535  17.922  0.00  0.00    +0.000 C 
BRANCH  32  33
ATOM     33  C   UNL     1       7.055   5.063  16.942  0.00  0.00    +0.000 C 
BRANCH  33  35
ATOM     34  C   UNL     1       7.912   6.739  18.603  0.00  0.00    +0.000 C 
ATOM     35  C   UNL     1       7.361   6.536  17.203  0.00  0.00    +0.000 C 
ENDBRANCH  33  35
ENDBRANCH  32  33
ENDBRANCH  31  32
ENDBRANCH  30  31
ENDBRANCH  29  30
ENDBRANCH  28  29
ENDBRANCH  27  28
ENDBRANCH  23  27
ENDBRANCH  22  24
ENDBRANCH   1  22
TORSDOF 12
ENDMDL
MODEL 6
REMARK VINA RESULT:      -7.6      4.693      8.859
REMARK  Name = 
REMARK  15 active torsions:
REMARK  status: ('A' for Active; 'I' for Inactive)
REMARK    1  A    between atoms: C_1  and  C_2
REMARK    2  A    between atoms: C_2  and  C_3
REMARK    3  A    between atoms: C_3  and  C_4
REMARK    4  A    between atoms: C_4  and  C_5
REMARK    5  A    between atoms: C_5  and  C_6
REMARK    6  A    between atoms: C_6  and  C_7
REMARK    7  A    between atoms: C_7  and  C_8
REMARK    8  A    between atoms: C_8  and  C_9
REMARK    9  A    between atoms: C_9  and  N_10
REMARK   10  A    between atoms: C_11  and  C_13
REMARK   11  A    between atoms: C_13  and  C_14
REMARK   12  A    between atoms: C_15  and  C_16
REMARK   13  A    between atoms: C_18  and  C_20
REMARK   14  A    between atoms: C_30  and  O_31
REMARK   15  A    between atoms: O_31  and  C_32
REMARK                            x       y       z     vdW  Elec       q    Type
REMARK                         _______ _______ _______ _____ _____    ______ ____
ROOT
ATOM      1  C   UNL     1       0.815  12.215  19.771  0.00  0.00    +0.000 A 
ATOM      2  C   UNL     1       0.303  11.578  20.895  0.00  0.00    +0.000 A 
ATOM      3  C   UNL     1       0.515  10.173  21.367  0.00  0.00    +0.000 C 
ATOM      4  N   UNL     1      -0.574  12.450  21.550  0.00  0.00    +0.000 N 
ATOM      5  C   UNL     1      -1.369  12.127  22.690  0.00  0.00    +0.000 C 
ATOM      6  O   UNL     1      -0.990  11.213  23.416  0.00  0.00    +0.000 OA
ATOM      7  C   UNL     1      -0.539  13.677  20.869  0.00  0.00    +0.000 A 
ATOM      8  C   UNL     1      -1.139  14.919  21.157  0.00  0.00    +0.000 A 
ATOM      9  C   UNL     1      -1.049  15.959  20.231  0.00  0.00    +0.000 A 
ATOM     10  C   UNL     1      -0.298  15.825  19.077  0.00  0.00    +0.000 A 
ATOM     11  C   UNL     1       0.379  14.615  18.839  0.00  0.00    +0.000 A 
ATOM     12  C   UNL     1       0.262  13.530  19.734  0.00  0.00    +0.000 A 
ENDROOT
BRANCH   5  13
ATOM     13  C   UNL     1      -2.629  12.816  23.073  0.00  0.00    +0.000 A 
ATOM     14  C   UNL     1      -3.822  12.575  22.382  0.00  0.00    +0.000 A 
ATOM     15  C   UNL     1      -4.942  13.370  22.629  0.00  0.00    +0.000 A 
ATOM     16  C   UNL     1      -4.894  14.342  23.629  0.00  0.00    +0.000 A 
ATOM     17 CL   UNL     1      -6.249  15.368  23.881  0.00  0.00    +0.000 Cl
ATOM     18  C   UNL     1      -3.747  14.500  24.406  0.00  0.00    +0.000 A 
ATOM     19  C   UNL     1      -2.608  13.739  24.127  0.00  0.00    +0.000 A 
ENDBRANCH   5  13
BRANCH  10  20
ATOM     20  O   UNL     1      -0.128  16.790  18.122  0.00  0.00    +0.000 OA
ATOM     21  C   UNL     1      -1.161  17.769  18.027  0.00  0.00    +0.000 C 
ENDBRANCH  10  20
BRANCH   1  22
ATOM     22  C   UNL     1       1.733  11.613  18.731  0.00  0.00    +0.000 C 
BRANCH  22  24
ATOM     23  N   UNL     1       2.319   9.290  18.219  0.00  0.00    +0.000 N 
ATOM     24  C   UNL     1       1.310  10.226  18.271  0.00  0.00    +0.000 C 
ATOM     25  O   UNL     1       0.151   9.963  17.950  0.00  0.00    +0.000 OA
ATOM     26  H   UNL     1       3.272   9.565  18.419  0.00  0.00    +0.000 HD
BRANCH  23  27
ATOM     27  C   UNL     1       2.035   7.915  17.873  0.00  0.00    +0.000 C 
BRANCH  27  28
ATOM     28  C   UNL     1       3.302   7.066  17.831  0.00  0.00    +0.000 C 
BRANCH  28  29
ATOM     29  C   UNL     1       2.955   5.581  17.876  0.00  0.00    +0.000 C 
BRANCH  29  30
ATOM     30  C   UNL     1       4.102   4.734  17.334  0.00  0.00    +0.000 C 
BRANCH  30  31
ATOM     31  C   UNL     1       3.858   3.252  17.602  0.00  0.00    +0.000 C 
BRANCH  31  32
ATOM     32  C   UNL     1       2.366   2.933  17.574  0.00  0.00    +0.000 C 
BRANCH  32  33
ATOM     33  C   UNL     1       1.954   2.152  18.818  0.00  0.00    +0.000 C 
BRANCH  33  35
ATOM     34  C   UNL     1       1.110   3.786  20.526  0.00  0.00    +0.000 C 
ATOM     35  C   UNL     1       0.719   2.766  19.471  0.00  0.00    +0.000 C 
ENDBRANCH  33  35
ENDBRANCH  32  33
ENDBRANCH  31  32
ENDBRANCH  30  31
ENDBRANCH  29  30
ENDBRANCH  28  29
ENDBRANCH  27  28
ENDBRANCH  23  27
ENDBRANCH  22  24
ENDBRANCH   1  22
TORSDOF 12
ENDMDL
MODEL 7
REMARK VINA RESULT:      -7.6      3.031      5.470
REMARK  Name = 
REMARK  15 active torsions:
REMARK  status: ('A' for Active; 'I' for Inactive)
REMARK    1  A    between atoms: C_1  and  C_2
REMARK    2  A    between atoms: C_2  and  C_3
REMARK    3  A    between atoms: C_3  and  C_4
REMARK    4  A    between atoms: C_4  and  C_5
REMARK    5  A    between atoms: C_5  and  C_6
REMARK    6  A    between atoms: C_6  and  C_7
REMARK    7  A    between atoms: C_7  and  C_8
REMARK    8  A    between atoms: C_8  and  C_9
REMARK    9  A    between atoms: C_9  and  N_10
REMARK   10  A    between atoms: C_11  and  C_13
REMARK   11  A    between atoms: C_13  and  C_14
REMARK   12  A    between atoms: C_15  and  C_16
REMARK   13  A    between atoms: C_18  and  C_20
REMARK   14  A    between atoms: C_30  and  O_31
REMARK   15  A    between atoms: O_31  and  C_32
REMARK                            x       y       z     vdW  Elec       q    Type
REMARK                         _______ _______ _______ _____ _____    ______ ____
ROOT
ATOM      1  C   UNL     1       3.967   4.849  17.667  0.00  0.00    +0.000 A 
ATOM      2  C   UNL     1       3.730   6.183  17.359  0.00  0.00    +0.000 A 
ATOM      3  C   UNL     1       4.429   7.067  16.373  0.00  0.00    +0.000 C 
ATOM      4  N   UNL     1       2.728   6.672  18.205  0.00  0.00    +0.000 N 
ATOM      5  C   UNL     1       2.274   8.023  18.260  0.00  0.00    +0.000 C 
ATOM      6  O   UNL     1       2.426   8.723  17.263  0.00  0.00    +0.000 OA
ATOM      7  C   UNL     1       2.278   5.601  18.992  0.00  0.00    +0.000 A 
ATOM      8  C   UNL     1       1.225   5.508  19.924  0.00  0.00    +0.000 A 
ATOM      9  C   UNL     1       1.072   4.343  20.677  0.00  0.00    +0.000 A 
ATOM     10  C   UNL     1       1.876   3.240  20.457  0.00  0.00    +0.000 A 
ATOM     11  C   UNL     1       2.865   3.302  19.459  0.00  0.00    +0.000 A 
ATOM     12  C   UNL     1       3.074   4.487  18.719  0.00  0.00    +0.000 A 
ENDROOT
BRANCH   5  13
ATOM     13  C   UNL     1       1.624   8.657  19.437  0.00  0.00    +0.000 A 
ATOM     14  C   UNL     1       2.029   8.343  20.741  0.00  0.00    +0.000 A 
ATOM     15  C   UNL     1       1.282   8.798  21.829  0.00  0.00    +0.000 A 
ATOM     16  C   UNL     1       0.190   9.638  21.615  0.00  0.00    +0.000 A 
ATOM     17 CL   UNL     1      -0.771  10.136  22.951  0.00  0.00    +0.000 Cl
ATOM     18  C   UNL     1      -0.141  10.055  20.327  0.00  0.00    +0.000 A 
ATOM     19  C   UNL     1       0.575   9.562  19.232  0.00  0.00    +0.000 A 
ENDBRANCH   5  13
BRANCH  10  20
ATOM     20  O   UNL     1       1.789   2.048  21.123  0.00  0.00    +0.000 OA
ATOM     21  C   UNL     1       2.957   1.638  21.833  0.00  0.00    +0.000 C 
ENDBRANCH  10  20
BRANCH   1  22
ATOM     22  C   UNL     1       5.024   3.955  17.058  0.00  0.00    +0.000 C 
BRANCH  22  24
ATOM     23  N   UNL     1       6.725   4.899  18.548  0.00  0.00    +0.000 N 
ATOM     24  C   UNL     1       6.446   4.452  17.276  0.00  0.00    +0.000 C 
ATOM     25  O   UNL     1       7.283   4.470  16.373  0.00  0.00    +0.000 OA
ATOM     26  H   UNL     1       5.988   4.936  19.242  0.00  0.00    +0.000 HD
BRANCH  23  27
ATOM     27  C   UNL     1       8.059   5.324  18.907  0.00  0.00    +0.000 C 
BRANCH  27  28
ATOM     28  C   UNL     1       8.140   6.832  19.112  0.00  0.00    +0.000 C 
BRANCH  28  29
ATOM     29  C   UNL     1       7.487   7.569  17.947  0.00  0.00    +0.000 C 
BRANCH  29  30
ATOM     30  C   UNL     1       8.368   8.715  17.460  0.00  0.00    +0.000 C 
BRANCH  30  31
ATOM     31  C   UNL     1       8.728   9.652  18.610  0.00  0.00    +0.000 C 
BRANCH  31  32
ATOM     32  C   UNL     1       9.015  11.059  18.095  0.00  0.00    +0.000 C 
BRANCH  32  33
ATOM     33  C   UNL     1      10.474  11.437  18.332  0.00  0.00    +0.000 C 
BRANCH  33  35
ATOM     34  C   UNL     1      10.031  13.861  17.854  0.00  0.00    +0.000 C 
ATOM     35  C   UNL     1      10.873  12.650  17.495  0.00  0.00    +0.000 C 
ENDBRANCH  33  35
ENDBRANCH  32  33
ENDBRANCH  31  32
ENDBRANCH  30  31
ENDBRANCH  29  30
ENDBRANCH  28  29
ENDBRANCH  27  28
ENDBRANCH  23  27
ENDBRANCH  22  24
ENDBRANCH   1  22
TORSDOF 12
ENDMDL
MODEL 8
REMARK VINA RESULT:      -7.6      3.713      6.351
REMARK  Name = 
REMARK  15 active torsions:
REMARK  status: ('A' for Active; 'I' for Inactive)
REMARK    1  A    between atoms: C_1  and  C_2
REMARK    2  A    between atoms: C_2  and  C_3
REMARK    3  A    between atoms: C_3  and  C_4
REMARK    4  A    between atoms: C_4  and  C_5
REMARK    5  A    between atoms: C_5  and  C_6
REMARK    6  A    between atoms: C_6  and  C_7
REMARK    7  A    between atoms: C_7  and  C_8
REMARK    8  A    between atoms: C_8  and  C_9
REMARK    9  A    between atoms: C_9  and  N_10
REMARK   10  A    between atoms: C_11  and  C_13
REMARK   11  A    between atoms: C_13  and  C_14
REMARK   12  A    between atoms: C_15  and  C_16
REMARK   13  A    between atoms: C_18  and  C_20
REMARK   14  A    between atoms: C_30  and  O_31
REMARK   15  A    between atoms: O_31  and  C_32
REMARK                            x       y       z     vdW  Elec       q    Type
REMARK                         _______ _______ _______ _____ _____    ______ ____
ROOT
ATOM      1  C   UNL     1       4.479   5.538  17.865  0.00  0.00    +0.000 A 
ATOM      2  C   UNL     1       3.913   6.763  17.536  0.00  0.00    +0.000 A 
ATOM      3  C   UNL     1       4.357   7.769  16.519  0.00  0.00    +0.000 C 
ATOM      4  N   UNL     1       2.834   7.009  18.392  0.00  0.00    +0.000 N 
ATOM      5  C   UNL     1       2.060   8.206  18.430  0.00  0.00    +0.000 C 
ATOM      6  O   UNL     1       2.019   8.898  17.416  0.00  0.00    +0.000 OA
ATOM      7  C   UNL     1       2.675   5.879  19.209  0.00  0.00    +0.000 A 
ATOM      8  C   UNL     1       1.691   5.550  20.163  0.00  0.00    +0.000 A 
ATOM      9  C   UNL     1       1.843   4.402  20.942  0.00  0.00    +0.000 A 
ATOM     10  C   UNL     1       2.892   3.527  20.727  0.00  0.00    +0.000 A 
ATOM     11  C   UNL     1       3.820   3.809  19.708  0.00  0.00    +0.000 A 
ATOM     12  C   UNL     1       3.719   4.990  18.942  0.00  0.00    +0.000 A 
ENDROOT
BRANCH   5  13
ATOM     13  C   UNL     1       1.290   8.687  19.607  0.00  0.00    +0.000 A 
ATOM     14  C   UNL     1       0.143   9.474  19.446  0.00  0.00    +0.000 A 
ATOM     15  C   UNL     1      -0.451  10.073  20.559  0.00  0.00    +0.000 A 
ATOM     16  C   UNL     1       0.048   9.811  21.834  0.00  0.00    +0.000 A 
ATOM     17 CL   UNL     1      -0.638  10.607  23.194  0.00  0.00    +0.000 Cl
ATOM     18  C   UNL     1       1.112   8.927  22.010  0.00  0.00    +0.000 A 
ATOM     19  C   UNL     1       1.739   8.364  20.894  0.00  0.00    +0.000 A 
ENDBRANCH   5  13
BRANCH  10  20
ATOM     20  O   UNL     1       3.114   2.367  21.418  0.00  0.00    +0.000 OA
ATOM     21  C   UNL     1       4.338   1.690  21.135  0.00  0.00    +0.000 C 
ENDBRANCH  10  20
BRANCH   1  22
ATOM     22  C   UNL     1       5.716   4.919  17.253  0.00  0.00    +0.000 C 
BRANCH  22  24
ATOM     23  N   UNL     1       7.170   6.633  18.228  0.00  0.00    +0.000 N 
ATOM     24  C   UNL     1       6.877   5.891  17.105  0.00  0.00    +0.000 C 
ATOM     25  O   UNL     1       7.500   6.018  16.051  0.00  0.00    +0.000 OA
ATOM     26  H   UNL     1       6.587   6.552  19.051  0.00  0.00    +0.000 HD
BRANCH  23  27
ATOM     27  C   UNL     1       8.299   7.536  18.244  0.00  0.00    +0.000 C 
BRANCH  27  28
ATOM     28  C   UNL     1       7.882   8.974  17.956  0.00  0.00    +0.000 C 
BRANCH  28  29
ATOM     29  C   UNL     1       9.085   9.909  18.033  0.00  0.00    +0.000 C 
BRANCH  29  30
ATOM     30  C   UNL     1       9.271  10.449  19.447  0.00  0.00    +0.000 C 
BRANCH  30  31
ATOM     31  C   UNL     1      10.600  11.188  19.578  0.00  0.00    +0.000 C 
BRANCH  31  32
ATOM     32  C   UNL     1      11.061  11.720  18.224  0.00  0.00    +0.000 C 
BRANCH  32  33
ATOM     33  C   UNL     1      12.091  12.831  18.400  0.00  0.00    +0.000 C 
BRANCH  33  35
ATOM     34  C   UNL     1      11.609  15.091  19.380  0.00  0.00    +0.000 C 
ATOM     35  C   UNL     1      11.837  13.621  19.682  0.00  0.00    +0.000 C 
ENDBRANCH  33  35
ENDBRANCH  32  33
ENDBRANCH  31  32
ENDBRANCH  30  31
ENDBRANCH  29  30
ENDBRANCH  28  29
ENDBRANCH  27  28
ENDBRANCH  23  27
ENDBRANCH  22  24
ENDBRANCH   1  22
TORSDOF 12
ENDMDL
MODEL 9
REMARK VINA RESULT:      -7.5      4.602      8.054
REMARK  Name = 
REMARK  15 active torsions:
REMARK  status: ('A' for Active; 'I' for Inactive)
REMARK    1  A    between atoms: C_1  and  C_2
REMARK    2  A    between atoms: C_2  and  C_3
REMARK    3  A    between atoms: C_3  and  C_4
REMARK    4  A    between atoms: C_4  and  C_5
REMARK    5  A    between atoms: C_5  and  C_6
REMARK    6  A    between atoms: C_6  and  C_7
REMARK    7  A    between atoms: C_7  and  C_8
REMARK    8  A    between atoms: C_8  and  C_9
REMARK    9  A    between atoms: C_9  and  N_10
REMARK   10  A    between atoms: C_11  and  C_13
REMARK   11  A    between atoms: C_13  and  C_14
REMARK   12  A    between atoms: C_15  and  C_16
REMARK   13  A    between atoms: C_18  and  C_20
REMARK   14  A    between atoms: C_30  and  O_31
REMARK   15  A    between atoms: O_31  and  C_32
REMARK                            x       y       z     vdW  Elec       q    Type
REMARK                         _______ _______ _______ _____ _____    ______ ____
ROOT
ATOM      1  C   UNL     1       0.341  11.328  18.982  0.00  0.00    +0.000 A 
ATOM      2  C   UNL     1       0.503  12.094  20.129  0.00  0.00    +0.000 A 
ATOM      3  C   UNL     1       1.752  12.399  20.896  0.00  0.00    +0.000 C 
ATOM      4  N   UNL     1      -0.754  12.521  20.571  0.00  0.00    +0.000 N 
ATOM      5  C   UNL     1      -1.010  13.248  21.771  0.00  0.00    +0.000 C 
ATOM      6  O   UNL     1      -0.096  13.919  22.244  0.00  0.00    +0.000 OA
ATOM      7  C   UNL     1      -1.704  12.083  19.635  0.00  0.00    +0.000 A 
ATOM      8  C   UNL     1      -3.089  12.321  19.532  0.00  0.00    +0.000 A 
ATOM      9  C   UNL     1      -3.834  11.648  18.562  0.00  0.00    +0.000 A 
ATOM     10  C   UNL     1      -3.221  10.825  17.635  0.00  0.00    +0.000 A 
ATOM     11  C   UNL     1      -1.824  10.665  17.680  0.00  0.00    +0.000 A 
ATOM     12  C   UNL     1      -1.055  11.293  18.684  0.00  0.00    +0.000 A 
ENDROOT
BRANCH   5  13
ATOM     13  C   UNL     1      -2.305  13.262  22.500  0.00  0.00    +0.000 A 
ATOM     14  C   UNL     1      -2.636  12.243  23.403  0.00  0.00    +0.000 A 
ATOM     15  C   UNL     1      -3.928  12.171  23.927  0.00  0.00    +0.000 A 
ATOM     16  C   UNL     1      -4.855  13.167  23.621  0.00  0.00    +0.000 A 
ATOM     17 CL   UNL     1      -6.465  13.036  24.208  0.00  0.00    +0.000 Cl
ATOM     18  C   UNL     1      -4.491  14.251  22.824  0.00  0.00    +0.000 A 
ATOM     19  C   UNL     1      -3.214  14.300  22.258  0.00  0.00    +0.000 A 
ENDBRANCH   5  13
BRANCH  10  20
ATOM     20  O   UNL     1      -3.858  10.144  16.634  0.00  0.00    +0.000 OA
ATOM     21  C   UNL     1      -3.129   9.986  15.418  0.00  0.00    +0.000 C 
ENDBRANCH  10  20
BRANCH   1  22
ATOM     22  C   UNL     1       1.425  10.600  18.220  0.00  0.00    +0.000 C 
BRANCH  22  24
ATOM     23  N   UNL     1       2.231   8.327  17.786  0.00  0.00    +0.000 N 
ATOM     24  C   UNL     1       1.669   9.180  18.710  0.00  0.00    +0.000 C 
ATOM     25  O   UNL     1       1.369   8.815  19.846  0.00  0.00    +0.000 OA
ATOM     26  H   UNL     1       2.394   8.646  16.840  0.00  0.00    +0.000 HD
BRANCH  23  27
ATOM     27  C   UNL     1       2.585   6.973  18.150  0.00  0.00    +0.000 C 
BRANCH  27  28
ATOM     28  C   UNL     1       4.074   6.835  18.447  0.00  0.00    +0.000 C 
BRANCH  28  29
ATOM     29  C   UNL     1       4.470   5.365  18.542  0.00  0.00    +0.000 C 
BRANCH  29  30
ATOM     30  C   UNL     1       5.840   5.207  19.193  0.00  0.00    +0.000 C 
BRANCH  30  31
ATOM     31  C   UNL     1       6.953   5.320  18.155  0.00  0.00    +0.000 C 
BRANCH  31  32
ATOM     32  C   UNL     1       7.771   6.590  18.370  0.00  0.00    +0.000 C 
BRANCH  32  33
ATOM     33  C   UNL     1       7.402   7.655  17.343  0.00  0.00    +0.000 C 
BRANCH  33  35
ATOM     34  C   UNL     1       8.818   8.917  18.987  0.00  0.00    +0.000 C 
ATOM     35  C   UNL     1       8.065   8.991  17.671  0.00  0.00    +0.000 C 
ENDBRANCH  33  35
ENDBRANCH  32  33
ENDBRANCH  31  32
ENDBRANCH  30  31
ENDBRANCH  29  30
ENDBRANCH  28  29
ENDBRANCH  27  28
ENDBRANCH  23  27
ENDBRANCH  22  24
ENDBRANCH   1  22
TORSDOF 12
ENDMDL
