MODEL 1
REMARK VINA RESULT:      -7.2      0.000      0.000
REMARK  Name = 
REMARK  4 active torsions:
REMARK  status: ('A' for Active; 'I' for Inactive)
REMARK    1  A    between atoms: C_1  and  N_2
REMARK    2  A    between atoms: C_5  and  N_6
REMARK    3  A    between atoms: C_10  and  N_11
REMARK    4  A    between atoms: C_12  and  C_14
REMARK                            x       y       z     vdW  Elec       q    Type
REMARK                         _______ _______ _______ _____ _____    ______ ____
ROOT
ATOM      1  N   UNL     1       3.311   4.327  19.660  0.00  0.00    +0.000 N 
ATOM      2  N   UNL     1       2.888   3.837  20.849  0.00  0.00    +0.000 NA
ATOM      3  C   UNL     1       3.355   2.594  20.883  0.00  0.00    +0.000 A 
ATOM      4  C   UNL     1       4.040   2.264  19.706  0.00  0.00    +0.000 A 
ATOM      5  C   UNL     1       4.019   3.401  18.918  0.00  0.00    +0.000 A 
ENDROOT
BRANCH   1  10
ATOM      6  C   UNL     1       1.724   9.662  18.571  0.00  0.00    +0.000 C 
ATOM      7  N   UNL     1       1.742   8.201  18.709  0.00  0.00    +0.000 NA
ATOM      8  C   UNL     1       2.793   7.641  17.847  0.00  0.00    +0.000 C 
ATOM      9  C   UNL     1       2.851   6.119  17.967  0.00  0.00    +0.000 C 
ATOM     10  C   UNL     1       3.059   5.738  19.432  0.00  0.00    +0.000 C 
ATOM     11  C   UNL     1       1.941   6.312  20.302  0.00  0.00    +0.000 C 
ATOM     12  C   UNL     1       1.917   7.836  20.125  0.00  0.00    +0.000 C 
ENDBRANCH   1  10
BRANCH   5  13
ATOM     13  N   UNL     1       4.617   3.559  17.670  0.00  0.00    +0.000 N 
ATOM     14  C   UNL     1       5.898   4.189  17.512  0.00  0.00    +0.000 C 
ATOM     15  O   UNL     1       6.595   4.565  18.441  0.00  0.00    +0.000 OA
ATOM     16  H   UNL     1       4.141   3.282  16.815  0.00  0.00    +0.000 HD
BRANCH  14  17
ATOM     17  C   UNL     1       6.197   4.401  16.109  0.00  0.00    +0.000 A 
ATOM     18  C   UNL     1       5.623   3.662  15.077  0.00  0.00    +0.000 A 
ATOM     19  N   UNL     1       6.295   4.048  13.964  0.00  0.00    +0.000 N 
ATOM     20  C   UNL     1       6.340   3.656  12.649  0.00  0.00    +0.000 A 
ATOM     21  C   UNL     1       7.308   4.302  11.982  0.00  0.00    +0.000 A 
ATOM     22  S   UNL     1       8.181   5.474  12.995  0.00  0.00    +0.000 S 
ATOM     23  C   UNL     1       7.185   5.010  14.340  0.00  0.00    +0.000 A 
ATOM     24  N   UNL     1       7.160   5.287  15.620  0.00  0.00    +0.000 NA
ENDBRANCH  14  17
ENDBRANCH   5  13
TORSDOF 3
ENDMDL
MODEL 2
REMARK VINA RESULT:      -7.2      1.064      1.431
REMARK  Name = 
REMARK  4 active torsions:
REMARK  status: ('A' for Active; 'I' for Inactive)
REMARK    1  A    between atoms: C_1  and  N_2
REMARK    2  A    between atoms: C_5  and  N_6
REMARK    3  A    between atoms: C_10  and  N_11
REMARK    4  A    between atoms: C_12  and  C_14
REMARK                            x       y       z     vdW  Elec       q    Type
REMARK                         _______ _______ _______ _____ _____    ______ ____
ROOT
ATOM      1  N   UNL     1       2.697   4.752  20.142  0.00  0.00    +0.000 N 
ATOM      2  N   UNL     1       2.068   4.450  21.302  0.00  0.00    +0.000 NA
ATOM      3  C   UNL     1       2.402   3.187  21.544  0.00  0.00    +0.000 A 
ATOM      4  C   UNL     1       3.207   2.659  20.527  0.00  0.00    +0.000 A 
ATOM      5  C   UNL     1       3.406   3.686  19.622  0.00  0.00    +0.000 A 
ENDROOT
BRANCH   1  10
ATOM      6  C   UNL     1       1.768  10.044  18.324  0.00  0.00    +0.000 C 
ATOM      7  N   UNL     1       1.608   8.623  18.658  0.00  0.00    +0.000 NA
ATOM      8  C   UNL     1       2.580   7.828  17.892  0.00  0.00    +0.000 C 
ATOM      9  C   UNL     1       2.452   6.341  18.217  0.00  0.00    +0.000 C 
ATOM     10  C   UNL     1       2.618   6.140  19.722  0.00  0.00    +0.000 C 
ATOM     11  C   UNL     1       1.581   6.957  20.494  0.00  0.00    +0.000 C 
ATOM     12  C   UNL     1       1.743   8.435  20.111  0.00  0.00    +0.000 C 
ENDBRANCH   1  10
BRANCH   5  13
ATOM     13  N   UNL     1       4.183   3.639  18.466  0.00  0.00    +0.000 N 
ATOM     14  C   UNL     1       5.486   4.239  18.398  0.00  0.00    +0.000 C 
ATOM     15  O   UNL     1       6.049   4.766  19.346  0.00  0.00    +0.000 OA
ATOM     16  H   UNL     1       3.832   3.223  17.608  0.00  0.00    +0.000 HD
BRANCH  14  17
ATOM     17  C   UNL     1       5.991   4.218  17.039  0.00  0.00    +0.000 A 
ATOM     18  C   UNL     1       7.047   5.012  16.596  0.00  0.00    +0.000 A 
ATOM     19  N   UNL     1       7.079   4.821  15.253  0.00  0.00    +0.000 N 
ATOM     20  C   UNL     1       7.762   5.364  14.193  0.00  0.00    +0.000 A 
ATOM     21  C   UNL     1       7.297   4.896  13.025  0.00  0.00    +0.000 A 
ATOM     22  S   UNL     1       5.992   3.705  13.228  0.00  0.00    +0.000 S 
ATOM     23  C   UNL     1       6.109   3.914  14.949  0.00  0.00    +0.000 A 
ATOM     24  N   UNL     1       5.430   3.491  15.986  0.00  0.00    +0.000 NA
ENDBRANCH  14  17
ENDBRANCH   5  13
TORSDOF 3
ENDMDL
MODEL 3
REMARK VINA RESULT:      -6.8      4.240      5.700
REMARK  Name = 
REMARK  4 active torsions:
REMARK  status: ('A' for Active; 'I' for Inactive)
REMARK    1  A    between atoms: C_1  and  N_2
REMARK    2  A    between atoms: C_5  and  N_6
REMARK    3  A    between atoms: C_10  and  N_11
REMARK    4  A    between atoms: C_12  and  C_14
REMARK                            x       y       z     vdW  Elec       q    Type
REMARK                         _______ _______ _______ _____ _____    ______ ____
ROOT
ATOM      1  N   UNL     1       5.492   5.146  16.723  0.00  0.00    +0.000 N 
ATOM      2  N   UNL     1       5.234   3.987  16.074  0.00  0.00    +0.000 NA
ATOM      3  C   UNL     1       6.224   3.869  15.196  0.00  0.00    +0.000 A 
ATOM      4  C   UNL     1       7.095   4.965  15.245  0.00  0.00    +0.000 A 
ATOM      5  C   UNL     1       6.620   5.788  16.250  0.00  0.00    +0.000 A 
ENDROOT
BRANCH   1  10
ATOM      6  C   UNL     1       1.635   6.064  20.779  0.00  0.00    +0.000 C 
ATOM      7  N   UNL     1       2.289   5.687  19.520  0.00  0.00    +0.000 NA
ATOM      8  C   UNL     1       2.890   6.880  18.906  0.00  0.00    +0.000 C 
ATOM      9  C   UNL     1       3.590   6.530  17.594  0.00  0.00    +0.000 C 
ATOM     10  C   UNL     1       4.631   5.443  17.854  0.00  0.00    +0.000 C 
ATOM     11  C   UNL     1       3.977   4.206  18.470  0.00  0.00    +0.000 C 
ATOM     12  C   UNL     1       3.274   4.622  19.770  0.00  0.00    +0.000 C 
ENDBRANCH   1  10
BRANCH   5  13
ATOM     13  N   UNL     1       7.192   6.980  16.690  0.00  0.00    +0.000 N 
ATOM     14  C   UNL     1       7.840   7.090  17.967  0.00  0.00    +0.000 C 
ATOM     15  O   UNL     1       8.009   6.153  18.732  0.00  0.00    +0.000 OA
ATOM     16  H   UNL     1       7.125   7.834  16.142  0.00  0.00    +0.000 HD
BRANCH  14  17
ATOM     17  C   UNL     1       8.171   8.471  18.259  0.00  0.00    +0.000 A 
ATOM     18  C   UNL     1       7.756   9.546  17.476  0.00  0.00    +0.000 A 
ATOM     19  N   UNL     1       8.418  10.616  17.984  0.00  0.00    +0.000 N 
ATOM     20  C   UNL     1       8.578  11.935  17.639  0.00  0.00    +0.000 A 
ATOM     21  C   UNL     1       9.476  12.538  18.433  0.00  0.00    +0.000 A 
ATOM     22  S   UNL     1      10.127  11.458  19.687  0.00  0.00    +0.000 S 
ATOM     23  C   UNL     1       9.144  10.174  19.049  0.00  0.00    +0.000 A 
ATOM     24  N   UNL     1       9.021   8.892  19.284  0.00  0.00    +0.000 NA
ENDBRANCH  14  17
ENDBRANCH   5  13
TORSDOF 3
ENDMDL
MODEL 4
REMARK VINA RESULT:      -6.7      4.191      5.598
REMARK  Name = 
REMARK  4 active torsions:
REMARK  status: ('A' for Active; 'I' for Inactive)
REMARK    1  A    between atoms: C_1  and  N_2
REMARK    2  A    between atoms: C_5  and  N_6
REMARK    3  A    between atoms: C_10  and  N_11
REMARK    4  A    between atoms: C_12  and  C_14
REMARK                            x       y       z     vdW  Elec       q    Type
REMARK                         _______ _______ _______ _____ _____    ______ ____
ROOT
ATOM      1  N   UNL     1       5.261   5.231  16.524  0.00  0.00    +0.000 N 
ATOM      2  N   UNL     1       5.024   4.035  15.936  0.00  0.00    +0.000 NA
ATOM      3  C   UNL     1       6.150   3.751  15.292  0.00  0.00    +0.000 A 
ATOM      4  C   UNL     1       7.096   4.775  15.424  0.00  0.00    +0.000 A 
ATOM      5  C   UNL     1       6.517   5.731  16.238  0.00  0.00    +0.000 A 
ENDROOT
BRANCH   1  10
ATOM      6  C   UNL     1       1.696   7.466  20.328  0.00  0.00    +0.000 C 
ATOM      7  N   UNL     1       2.897   7.131  19.554  0.00  0.00    +0.000 NA
ATOM      8  C   UNL     1       3.177   5.693  19.684  0.00  0.00    +0.000 C 
ATOM      9  C   UNL     1       4.418   5.300  18.886  0.00  0.00    +0.000 C 
ATOM     10  C   UNL     1       4.228   5.709  17.427  0.00  0.00    +0.000 C 
ATOM     11  C   UNL     1       3.963   7.211  17.318  0.00  0.00    +0.000 C 
ATOM     12  C   UNL     1       2.722   7.549  18.154  0.00  0.00    +0.000 C 
ENDBRANCH   1  10
BRANCH   5  13
ATOM     13  N   UNL     1       7.106   6.913  16.683  0.00  0.00    +0.000 N 
ATOM     14  C   UNL     1       7.798   6.995  17.938  0.00  0.00    +0.000 C 
ATOM     15  O   UNL     1       7.995   6.041  18.676  0.00  0.00    +0.000 OA
ATOM     16  H   UNL     1       7.019   7.779  16.158  0.00  0.00    +0.000 HD
BRANCH  14  17
ATOM     17  C   UNL     1       8.141   8.369  18.248  0.00  0.00    +0.000 A 
ATOM     18  C   UNL     1       7.722   9.459  17.489  0.00  0.00    +0.000 A 
ATOM     19  N   UNL     1       8.396  10.517  18.006  0.00  0.00    +0.000 N 
ATOM     20  C   UNL     1       8.559  11.840  17.680  0.00  0.00    +0.000 A 
ATOM     21  C   UNL     1       9.470  12.426  18.472  0.00  0.00    +0.000 A 
ATOM     22  S   UNL     1      10.131  11.323  19.700  0.00  0.00    +0.000 S 
ATOM     23  C   UNL     1       9.133  10.054  19.054  0.00  0.00    +0.000 A 
ATOM     24  N   UNL     1       9.007   8.769  19.270  0.00  0.00    +0.000 NA
ENDBRANCH  14  17
ENDBRANCH   5  13
TORSDOF 3
ENDMDL
MODEL 5
REMARK VINA RESULT:      -6.6      0.292      1.066
REMARK  Name = 
REMARK  4 active torsions:
REMARK  status: ('A' for Active; 'I' for Inactive)
REMARK    1  A    between atoms: C_1  and  N_2
REMARK    2  A    between atoms: C_5  and  N_6
REMARK    3  A    between atoms: C_10  and  N_11
REMARK    4  A    between atoms: C_12  and  C_14
REMARK                            x       y       z     vdW  Elec       q    Type
REMARK                         _______ _______ _______ _____ _____    ______ ____
ROOT
ATOM      1  N   UNL     1       3.148   4.189  19.539  0.00  0.00    +0.000 N 
ATOM      2  N   UNL     1       2.802   3.734  20.766  0.00  0.00    +0.000 NA
ATOM      3  C   UNL     1       3.513   2.623  20.923  0.00  0.00    +0.000 A 
ATOM      4  C   UNL     1       4.284   2.336  19.789  0.00  0.00    +0.000 A 
ATOM      5  C   UNL     1       4.052   3.365  18.896  0.00  0.00    +0.000 A 
ENDROOT
BRANCH   1  10
ATOM      6  C   UNL     1       1.605   9.528  18.405  0.00  0.00    +0.000 C 
ATOM      7  N   UNL     1       2.329   8.346  18.889  0.00  0.00    +0.000 NA
ATOM      8  C   UNL     1       1.479   7.605  19.833  0.00  0.00    +0.000 C 
ATOM      9  C   UNL     1       2.193   6.360  20.355  0.00  0.00    +0.000 C 
ATOM     10  C   UNL     1       2.617   5.490  19.174  0.00  0.00    +0.000 C 
ATOM     11  C   UNL     1       3.518   6.276  18.221  0.00  0.00    +0.000 C 
ATOM     12  C   UNL     1       2.758   7.523  17.747  0.00  0.00    +0.000 C 
ENDBRANCH   1  10
BRANCH   5  13
ATOM     13  N   UNL     1       4.639   3.528  17.642  0.00  0.00    +0.000 N 
ATOM     14  C   UNL     1       5.925   4.144  17.477  0.00  0.00    +0.000 C 
ATOM     15  O   UNL     1       6.637   4.503  18.402  0.00  0.00    +0.000 OA
ATOM     16  H   UNL     1       4.151   3.264  16.790  0.00  0.00    +0.000 HD
BRANCH  14  17
ATOM     17  C   UNL     1       6.213   4.366  16.073  0.00  0.00    +0.000 A 
ATOM     18  C   UNL     1       5.628   3.636  15.041  0.00  0.00    +0.000 A 
ATOM     19  N   UNL     1       6.291   4.029  13.925  0.00  0.00    +0.000 N 
ATOM     20  C   UNL     1       6.323   3.646  12.607  0.00  0.00    +0.000 A 
ATOM     21  C   UNL     1       7.288   4.294  11.936  0.00  0.00    +0.000 A 
ATOM     22  S   UNL     1       8.172   5.457  12.949  0.00  0.00    +0.000 S 
ATOM     23  C   UNL     1       7.187   4.985  14.300  0.00  0.00    +0.000 A 
ATOM     24  N   UNL     1       7.174   5.253  15.582  0.00  0.00    +0.000 NA
ENDBRANCH  14  17
ENDBRANCH   5  13
TORSDOF 3
ENDMDL
MODEL 6
REMARK VINA RESULT:      -6.5      4.055      7.187
REMARK  Name = 
REMARK  4 active torsions:
REMARK  status: ('A' for Active; 'I' for Inactive)
REMARK    1  A    between atoms: C_1  and  N_2
REMARK    2  A    between atoms: C_5  and  N_6
REMARK    3  A    between atoms: C_10  and  N_11
REMARK    4  A    between atoms: C_12  and  C_14
REMARK                            x       y       z     vdW  Elec       q    Type
REMARK                         _______ _______ _______ _____ _____    ______ ____
ROOT
ATOM      1  N   UNL     1       3.573   4.084  18.037  0.00  0.00    +0.000 N 
ATOM      2  N   UNL     1       3.594   2.797  17.618  0.00  0.00    +0.000 NA
ATOM      3  C   UNL     1       2.346   2.372  17.782  0.00  0.00    +0.000 A 
ATOM      4  C   UNL     1       1.530   3.363  18.343  0.00  0.00    +0.000 A 
ATOM      5  C   UNL     1       2.331   4.480  18.496  0.00  0.00    +0.000 A 
ENDROOT
BRANCH   1  10
ATOM      6  C   UNL     1       8.056   7.523  17.536  0.00  0.00    +0.000 C 
ATOM      7  N   UNL     1       6.736   6.972  17.868  0.00  0.00    +0.000 NA
ATOM      8  C   UNL     1       6.013   6.653  16.628  0.00  0.00    +0.000 C 
ATOM      9  C   UNL     1       4.635   6.069  16.929  0.00  0.00    +0.000 C 
ATOM     10  C   UNL     1       4.794   4.840  17.823  0.00  0.00    +0.000 C 
ATOM     11  C   UNL     1       5.527   5.203  19.114  0.00  0.00    +0.000 C 
ATOM     12  C   UNL     1       6.891   5.803  18.749  0.00  0.00    +0.000 C 
ENDBRANCH   1  10
BRANCH   5  13
ATOM     13  N   UNL     1       1.938   5.726  18.978  0.00  0.00    +0.000 N 
ATOM     14  C   UNL     1       1.936   6.036  20.381  0.00  0.00    +0.000 C 
ATOM     15  O   UNL     1       2.341   5.279  21.250  0.00  0.00    +0.000 OA
ATOM     16  H   UNL     1       1.584   6.449  18.356  0.00  0.00    +0.000 HD
BRANCH  14  17
ATOM     17  C   UNL     1       1.303   7.318  20.624  0.00  0.00    +0.000 A 
ATOM     18  C   UNL     1       1.540   8.454  19.853  0.00  0.00    +0.000 A 
ATOM     19  N   UNL     1       0.905   9.454  20.513  0.00  0.00    +0.000 N 
ATOM     20  C   UNL     1       0.821  10.819  20.396  0.00  0.00    +0.000 A 
ATOM     21  C   UNL     1       0.148  11.354  21.426  0.00  0.00    +0.000 A 
ATOM     22  S   UNL     1      -0.449  10.133  22.571  0.00  0.00    +0.000 S 
ATOM     23  C   UNL     1       0.287   8.899  21.594  0.00  0.00    +0.000 A 
ATOM     24  N   UNL     1       0.468   7.607  21.706  0.00  0.00    +0.000 NA
ENDBRANCH  14  17
ENDBRANCH   5  13
TORSDOF 3
ENDMDL
MODEL 7
REMARK VINA RESULT:      -6.5      2.487      3.821
REMARK  Name = 
REMARK  4 active torsions:
REMARK  status: ('A' for Active; 'I' for Inactive)
REMARK    1  A    between atoms: C_1  and  N_2
REMARK    2  A    between atoms: C_5  and  N_6
REMARK    3  A    between atoms: C_10  and  N_11
REMARK    4  A    between atoms: C_12  and  C_14
REMARK                            x       y       z     vdW  Elec       q    Type
REMARK                         _______ _______ _______ _____ _____    ______ ____
ROOT
ATOM      1  N   UNL     1       5.924   4.569  18.526  0.00  0.00    +0.000 N 
ATOM      2  N   UNL     1       6.234   5.142  19.713  0.00  0.00    +0.000 NA
ATOM      3  C   UNL     1       7.375   5.782  19.486  0.00  0.00    +0.000 A 
ATOM      4  C   UNL     1       7.825   5.592  18.173  0.00  0.00    +0.000 A 
ATOM      5  C   UNL     1       6.870   4.811  17.549  0.00  0.00    +0.000 A 
ENDROOT
BRANCH   1  10
ATOM      6  C   UNL     1       0.693   2.390  18.783  0.00  0.00    +0.000 C 
ATOM      7  N   UNL     1       1.912   3.159  19.065  0.00  0.00    +0.000 NA
ATOM      8  C   UNL     1       3.021   2.233  19.338  0.00  0.00    +0.000 C 
ATOM      9  C   UNL     1       4.313   2.993  19.629  0.00  0.00    +0.000 C 
ATOM     10  C   UNL     1       4.626   3.920  18.456  0.00  0.00    +0.000 C 
ATOM     11  C   UNL     1       3.468   4.887  18.209  0.00  0.00    +0.000 C 
ATOM     12  C   UNL     1       2.197   4.069  17.944  0.00  0.00    +0.000 C 
ENDBRANCH   1  10
BRANCH   5  13
ATOM     13  N   UNL     1       6.870   4.401  16.217  0.00  0.00    +0.000 N 
ATOM     14  C   UNL     1       6.221   5.159  15.185  0.00  0.00    +0.000 C 
ATOM     15  O   UNL     1       5.687   6.243  15.364  0.00  0.00    +0.000 OA
ATOM     16  H   UNL     1       7.287   3.517  15.934  0.00  0.00    +0.000 HD
BRANCH  14  17
ATOM     17  C   UNL     1       6.202   4.420  13.938  0.00  0.00    +0.000 A 
ATOM     18  C   UNL     1       5.047   3.878  13.379  0.00  0.00    +0.000 A 
ATOM     19  N   UNL     1       5.488   3.131  12.336  0.00  0.00    +0.000 N 
ATOM     20  C   UNL     1       4.929   2.250  11.444  0.00  0.00    +0.000 A 
ATOM     21  C   UNL     1       5.868   1.670  10.682  0.00  0.00    +0.000 A 
ATOM     22  S   UNL     1       7.508   2.258  11.038  0.00  0.00    +0.000 S 
ATOM     23  C   UNL     1       6.840   3.283  12.272  0.00  0.00    +0.000 A 
ATOM     24  N   UNL     1       7.333   4.068  13.197  0.00  0.00    +0.000 NA
ENDBRANCH  14  17
ENDBRANCH   5  13
TORSDOF 3
ENDMDL
MODEL 8
REMARK VINA RESULT:      -6.5      4.230      7.608
REMARK  Name = 
REMARK  4 active torsions:
REMARK  status: ('A' for Active; 'I' for Inactive)
REMARK    1  A    between atoms: C_1  and  N_2
REMARK    2  A    between atoms: C_5  and  N_6
REMARK    3  A    between atoms: C_10  and  N_11
REMARK    4  A    between atoms: C_12  and  C_14
REMARK                            x       y       z     vdW  Elec       q    Type
REMARK                         _______ _______ _______ _____ _____    ______ ____
ROOT
ATOM      1  N   UNL     1       0.335  11.912  18.729  0.00  0.00    +0.000 N 
ATOM      2  N   UNL     1      -0.670  12.733  18.346  0.00  0.00    +0.000 NA
ATOM      3  C   UNL     1      -1.715  11.929  18.187  0.00  0.00    +0.000 A 
ATOM      4  C   UNL     1      -1.381  10.590  18.424  0.00  0.00    +0.000 A 
ATOM      5  C   UNL     1      -0.047  10.585  18.788  0.00  0.00    +0.000 A 
ENDROOT
BRANCH   1  10
ATOM      6  C   UNL     1       4.834  15.029  20.219  0.00  0.00    +0.000 C 
ATOM      7  N   UNL     1       3.488  14.607  19.813  0.00  0.00    +0.000 NA
ATOM      8  C   UNL     1       3.559  13.937  18.506  0.00  0.00    +0.000 C 
ATOM      9  C   UNL     1       2.177  13.473  18.050  0.00  0.00    +0.000 C 
ATOM     10  C   UNL     1       1.573  12.565  19.118  0.00  0.00    +0.000 C 
ATOM     11  C   UNL     1       1.488  13.292  20.460  0.00  0.00    +0.000 C 
ATOM     12  C   UNL     1       2.898  13.751  20.856  0.00  0.00    +0.000 C 
ENDBRANCH   1  10
BRANCH   5  13
ATOM     13  N   UNL     1       0.711   9.477  19.161  0.00  0.00    +0.000 N 
ATOM     14  C   UNL     1       1.780   8.974  18.344  0.00  0.00    +0.000 C 
ATOM     15  O   UNL     1       2.162   9.505  17.313  0.00  0.00    +0.000 OA
ATOM     16  H   UNL     1       0.498   8.947  20.003  0.00  0.00    +0.000 HD
BRANCH  14  17
ATOM     17  C   UNL     1       2.270   7.710  18.859  0.00  0.00    +0.000 A 
ATOM     18  C   UNL     1       3.141   6.878  18.160  0.00  0.00    +0.000 A 
ATOM     19  N   UNL     1       3.202   5.744  18.903  0.00  0.00    +0.000 N 
ATOM     20  C   UNL     1       3.755   4.496  18.759  0.00  0.00    +0.000 A 
ATOM     21  C   UNL     1       3.386   3.684  19.761  0.00  0.00    +0.000 A 
ATOM     22  S   UNL     1       2.350   4.490  20.960  0.00  0.00    +0.000 S 
ATOM     23  C   UNL     1       2.433   5.943  20.010  0.00  0.00    +0.000 A 
ATOM     24  N   UNL     1       1.860   7.120  20.057  0.00  0.00    +0.000 NA
ENDBRANCH  14  17
ENDBRANCH   5  13
TORSDOF 3
ENDMDL
MODEL 9
REMARK VINA RESULT:      -6.5      3.075      6.925
REMARK  Name = 
REMARK  4 active torsions:
REMARK  status: ('A' for Active; 'I' for Inactive)
REMARK    1  A    between atoms: C_1  and  N_2
REMARK    2  A    between atoms: C_5  and  N_6
REMARK    3  A    between atoms: C_10  and  N_11
REMARK    4  A    between atoms: C_12  and  C_14
REMARK                            x       y       z     vdW  Elec       q    Type
REMARK                         _______ _______ _______ _____ _____    ______ ____
ROOT
ATOM      1  N   UNL     1       3.548   3.920  19.987  0.00  0.00    +0.000 N 
ATOM      2  N   UNL     1       3.685   2.609  20.294  0.00  0.00    +0.000 NA
ATOM      3  C   UNL     1       2.790   2.395  21.253  0.00  0.00    +0.000 A 
ATOM      4  C   UNL     1       2.107   3.569  21.596  0.00  0.00    +0.000 A 
ATOM      5  C   UNL     1       2.595   4.556  20.760  0.00  0.00    +0.000 A 
ENDROOT
BRANCH   1  10
ATOM      6  C   UNL     1       6.932   5.212  15.622  0.00  0.00    +0.000 C 
ATOM      7  N   UNL     1       6.327   4.551  16.785  0.00  0.00    +0.000 NA
ATOM      8  C   UNL     1       6.376   5.457  17.943  0.00  0.00    +0.000 C 
ATOM      9  C   UNL     1       5.749   4.808  19.175  0.00  0.00    +0.000 C 
ATOM     10  C   UNL     1       4.318   4.387  18.847  0.00  0.00    +0.000 C 
ATOM     11  C   UNL     1       4.296   3.428  17.657  0.00  0.00    +0.000 C 
ATOM     12  C   UNL     1       4.957   4.123  16.459  0.00  0.00    +0.000 C 
ENDBRANCH   1  10
BRANCH   5  13
ATOM     13  N   UNL     1       2.178   5.885  20.707  0.00  0.00    +0.000 N 
ATOM     14  C   UNL     1       1.926   6.557  19.463  0.00  0.00    +0.000 C 
ATOM     15  O   UNL     1       1.981   6.016  18.369  0.00  0.00    +0.000 OA
ATOM     16  H   UNL     1       2.087   6.446  21.550  0.00  0.00    +0.000 HD
BRANCH  14  17
ATOM     17  C   UNL     1       1.697   7.972  19.680  0.00  0.00    +0.000 A 
ATOM     18  C   UNL     1       1.308   8.512  20.904  0.00  0.00    +0.000 A 
ATOM     19  N   UNL     1       1.035   9.813  20.633  0.00  0.00    +0.000 N 
ATOM     20  C   UNL     1       0.501  10.875  21.320  0.00  0.00    +0.000 A 
ATOM     21  C   UNL     1       0.317  11.931  20.514  0.00  0.00    +0.000 A 
ATOM     22  S   UNL     1       0.861  11.632  18.847  0.00  0.00    +0.000 S 
ATOM     23  C   UNL     1       1.305  10.018  19.314  0.00  0.00    +0.000 A 
ATOM     24  N   UNL     1       1.732   8.952  18.685  0.00  0.00    +0.000 NA
ENDBRANCH  14  17
ENDBRANCH   5  13
TORSDOF 3
ENDMDL
