MODEL 1
REMARK VINA RESULT:      -8.9      0.000      0.000
REMARK  Name = 
REMARK  8 active torsions:
REMARK  status: ('A' for Active; 'I' for Inactive)
REMARK    1  A    between atoms: C_1  and  C_2
REMARK    2  A    between atoms: C_2  and  N_3
REMARK    3  A    between atoms: C_12  and  C_13
REMARK    4  A    between atoms: C_13  and  N_14
REMARK    5  A    between atoms: N_14  and  C_15
REMARK    6  A    between atoms: C_15  and  C_16
REMARK    7  A    between atoms: C_16  and  N_17
REMARK    8  A    between atoms: C_18  and  C_20
REMARK                            x       y       z     vdW  Elec       q    Type
REMARK                         _______ _______ _______ _____ _____    ______ ____
ROOT
ATOM      1  C   UNL     1       3.125   6.166  18.525  0.00  0.00    +0.000 C 
ENDROOT
BRANCH   1  11
ATOM      2  N   UNL     1       0.349  11.021  19.483  0.00  0.00    +0.000 N 
ATOM      3  C   UNL     1      -0.066  10.866  20.790  0.00  0.00    +0.000 A 
ATOM      4  C   UNL     1      -0.815  11.711  21.628  0.00  0.00    +0.000 A 
ATOM      5  C   UNL     1      -1.104  11.273  22.921  0.00  0.00    +0.000 A 
ATOM      6  C   UNL     1      -0.668  10.030  23.369  0.00  0.00    +0.000 A 
ATOM      7  C   UNL     1       0.072   9.192  22.527  0.00  0.00    +0.000 A 
ATOM      8  C   UNL     1       0.385   9.614  21.217  0.00  0.00    +0.000 A 
ATOM      9  C   UNL     1       1.116   9.023  20.131  0.00  0.00    +0.000 A 
ATOM     10  C   UNL     1       1.791   7.790  19.949  0.00  0.00    +0.000 A 
ATOM     11  C   UNL     1       2.442   7.505  18.732  0.00  0.00    +0.000 A 
ATOM     12  C   UNL     1       2.397   8.456  17.705  0.00  0.00    +0.000 A 
ATOM     13  C   UNL     1       1.753   9.682  17.861  0.00  0.00    +0.000 A 
ATOM     14  C   UNL     1       1.103   9.937  19.078  0.00  0.00    +0.000 A 
BRANCH   2  16
ATOM     15  C   UNL     1       0.944  13.308  18.747  0.00  0.00    +0.000 C 
ATOM     16  C   UNL     1      -0.009  12.133  18.617  0.00  0.00    +0.000 C 
ENDBRANCH   2  16
ENDBRANCH   1  11
BRANCH   1  17
ATOM     17  N   UNL     1       3.365   5.486  19.800  0.00  0.00    +0.000 NA
ATOM     18  H   UNL     1       2.674   5.820  20.472  0.00  0.00    +0.000 HD
BRANCH  17  19
ATOM     19  C   UNL     1       3.272   4.028  19.690  0.00  0.00    +0.000 C 
BRANCH  19  20
ATOM     20  C   UNL     1       4.683   3.425  19.596  0.00  0.00    +0.000 C 
BRANCH  20  21
ATOM     21  N   UNL     1       5.518   4.108  18.631  0.00  0.00    +0.000 N 
ATOM     22  C   UNL     1       5.336   3.980  17.268  0.00  0.00    +0.000 C 
ATOM     23  O   UNL     1       4.434   3.304  16.778  0.00  0.00    +0.000 OA
ATOM     24  H   UNL     1       6.251   4.734  18.950  0.00  0.00    +0.000 HD
BRANCH  22  25
ATOM     25  C   UNL     1       6.294   4.725  16.461  0.00  0.00    +0.000 A 
ATOM     26  N   UNL     1       6.933   5.810  16.929  0.00  0.00    +0.000 NA
ATOM     27  O   UNL     1       7.750   6.220  15.880  0.00  0.00    +0.000 OA
ATOM     28  N   UNL     1       7.599   5.400  14.771  0.00  0.00    +0.000 NA
ATOM     29  C   UNL     1       6.703   4.484  15.128  0.00  0.00    +0.000 A 
ATOM     30  N   UNL     1       6.259   3.499  14.324  0.00  0.00    +0.000 N 
ATOM     31  H   UNL     1       6.476   3.534  13.334  0.00  0.00    +0.000 HD
ATOM     32  H   UNL     1       5.424   2.966  14.563  0.00  0.00    +0.000 HD
ENDBRANCH  22  25
ENDBRANCH  20  21
ENDBRANCH  19  20
ENDBRANCH  17  19
ENDBRANCH   1  17
TORSDOF 7
ENDMDL
MODEL 2
REMARK VINA RESULT:      -8.8      1.333      1.785
REMARK  Name = 
REMARK  8 active torsions:
REMARK  status: ('A' for Active; 'I' for Inactive)
REMARK    1  A    between atoms: C_1  and  C_2
REMARK    2  A    between atoms: C_2  and  N_3
REMARK    3  A    between atoms: C_12  and  C_13
REMARK    4  A    between atoms: C_13  and  N_14
REMARK    5  A    between atoms: N_14  and  C_15
REMARK    6  A    between atoms: C_15  and  C_16
REMARK    7  A    between atoms: C_16  and  N_17
REMARK    8  A    between atoms: C_18  and  C_20
REMARK                            x       y       z     vdW  Elec       q    Type
REMARK                         _______ _______ _______ _____ _____    ______ ____
ROOT
ATOM      1  C   UNL     1       2.578   4.724  20.277  0.00  0.00    +0.000 C 
ENDROOT
BRANCH   1  11
ATOM      2  N   UNL     1       0.954  10.107  19.525  0.00  0.00    +0.000 N 
ATOM      3  C   UNL     1       0.302  10.383  20.709  0.00  0.00    +0.000 A 
ATOM      4  C   UNL     1      -0.347  11.548  21.158  0.00  0.00    +0.000 A 
ATOM      5  C   UNL     1      -0.945  11.528  22.418  0.00  0.00    +0.000 A 
ATOM      6  C   UNL     1      -0.907  10.384  23.210  0.00  0.00    +0.000 A 
ATOM      7  C   UNL     1      -0.264   9.227  22.754  0.00  0.00    +0.000 A 
ATOM      8  C   UNL     1       0.356   9.223  21.486  0.00  0.00    +0.000 A 
ATOM      9  C   UNL     1       1.090   8.237  20.742  0.00  0.00    +0.000 A 
ATOM     10  C   UNL     1       1.464   6.892  20.986  0.00  0.00    +0.000 A 
ATOM     11  C   UNL     1       2.219   6.178  20.034  0.00  0.00    +0.000 A 
ATOM     12  C   UNL     1       2.578   6.817  18.841  0.00  0.00    +0.000 A 
ATOM     13  C   UNL     1       2.236   8.144  18.582  0.00  0.00    +0.000 A 
ATOM     14  C   UNL     1       1.476   8.829  19.540  0.00  0.00    +0.000 A 
BRANCH   2  16
ATOM     15  C   UNL     1       2.155  12.013  18.498  0.00  0.00    +0.000 C 
ATOM     16  C   UNL     1       1.027  11.004  18.381  0.00  0.00    +0.000 C 
ENDBRANCH   2  16
ENDBRANCH   1  11
BRANCH   1  17
ATOM     17  N   UNL     1       1.569   3.823  19.713  0.00  0.00    +0.000 NA
ATOM     18  H   UNL     1       0.704   4.351  19.594  0.00  0.00    +0.000 HD
BRANCH  17  19
ATOM     19  C   UNL     1       1.974   3.255  18.425  0.00  0.00    +0.000 C 
BRANCH  19  20
ATOM     20  C   UNL     1       3.398   2.685  18.534  0.00  0.00    +0.000 C 
BRANCH  20  21
ATOM     21  N   UNL     1       4.286   3.207  17.518  0.00  0.00    +0.000 N 
ATOM     22  C   UNL     1       5.395   3.972  17.822  0.00  0.00    +0.000 C 
ATOM     23  O   UNL     1       5.725   4.236  18.976  0.00  0.00    +0.000 OA
ATOM     24  H   UNL     1       4.120   2.989  16.541  0.00  0.00    +0.000 HD
BRANCH  22  25
ATOM     25  C   UNL     1       6.149   4.427  16.660  0.00  0.00    +0.000 A 
ATOM     26  N   UNL     1       6.135   3.762  15.494  0.00  0.00    +0.000 NA
ATOM     27  O   UNL     1       6.955   4.507  14.652  0.00  0.00    +0.000 OA
ATOM     28  N   UNL     1       7.480   5.612  15.305  0.00  0.00    +0.000 NA
ATOM     29  C   UNL     1       6.987   5.561  16.539  0.00  0.00    +0.000 A 
ATOM     30  N   UNL     1       7.267   6.453  17.508  0.00  0.00    +0.000 N 
ATOM     31  H   UNL     1       8.022   7.114  17.369  0.00  0.00    +0.000 HD
ATOM     32  H   UNL     1       7.045   6.251  18.483  0.00  0.00    +0.000 HD
ENDBRANCH  22  25
ENDBRANCH  20  21
ENDBRANCH  19  20
ENDBRANCH  17  19
ENDBRANCH   1  17
TORSDOF 7
ENDMDL
MODEL 3
REMARK VINA RESULT:      -8.7      1.115      1.521
REMARK  Name = 
REMARK  8 active torsions:
REMARK  status: ('A' for Active; 'I' for Inactive)
REMARK    1  A    between atoms: C_1  and  C_2
REMARK    2  A    between atoms: C_2  and  N_3
REMARK    3  A    between atoms: C_12  and  C_13
REMARK    4  A    between atoms: C_13  and  N_14
REMARK    5  A    between atoms: N_14  and  C_15
REMARK    6  A    between atoms: C_15  and  C_16
REMARK    7  A    between atoms: C_16  and  N_17
REMARK    8  A    between atoms: C_18  and  C_20
REMARK                            x       y       z     vdW  Elec       q    Type
REMARK                         _______ _______ _______ _____ _____    ______ ____
ROOT
ATOM      1  C   UNL     1       3.192   6.511  18.528  0.00  0.00    +0.000 C 
ENDROOT
BRANCH   1  11
ATOM      2  N   UNL     1      -0.008  11.102  19.461  0.00  0.00    +0.000 N 
ATOM      3  C   UNL     1      -0.374  10.939  20.781  0.00  0.00    +0.000 A 
ATOM      4  C   UNL     1      -1.179  11.729  21.621  0.00  0.00    +0.000 A 
ATOM      5  C   UNL     1      -1.393  11.295  22.930  0.00  0.00    +0.000 A 
ATOM      6  C   UNL     1      -0.830  10.109  23.392  0.00  0.00    +0.000 A 
ATOM      7  C   UNL     1      -0.035   9.326  22.548  0.00  0.00    +0.000 A 
ATOM      8  C   UNL     1       0.204   9.745  21.221  0.00  0.00    +0.000 A 
ATOM      9  C   UNL     1       0.961   9.201  20.128  0.00  0.00    +0.000 A 
ATOM     10  C   UNL     1       1.745   8.034  19.954  0.00  0.00    +0.000 A 
ATOM     11  C   UNL     1       2.391   7.784  18.726  0.00  0.00    +0.000 A 
ATOM     12  C   UNL     1       2.229   8.702  17.681  0.00  0.00    +0.000 A 
ATOM     13  C   UNL     1       1.476   9.865  17.830  0.00  0.00    +0.000 A 
ATOM     14  C   UNL     1       0.835  10.085  19.058  0.00  0.00    +0.000 A 
BRANCH   2  16
ATOM     15  C   UNL     1      -1.827  11.820  17.943  0.00  0.00    +0.000 C 
ATOM     16  C   UNL     1      -0.491  12.156  18.582  0.00  0.00    +0.000 C 
ENDBRANCH   2  16
ENDBRANCH   1  11
BRANCH   1  17
ATOM     17  N   UNL     1       2.332   5.398  18.118  0.00  0.00    +0.000 NA
ATOM     18  H   UNL     1       2.689   5.030  17.235  0.00  0.00    +0.000 HD
BRANCH  17  19
ATOM     19  C   UNL     1       2.287   4.321  19.111  0.00  0.00    +0.000 C 
BRANCH  19  20
ATOM     20  C   UNL     1       3.578   3.489  19.031  0.00  0.00    +0.000 C 
BRANCH  20  21
ATOM     21  N   UNL     1       4.318   3.725  17.811  0.00  0.00    +0.000 N 
ATOM     22  C   UNL     1       5.621   4.182  17.808  0.00  0.00    +0.000 C 
ATOM     23  O   UNL     1       6.255   4.389  18.840  0.00  0.00    +0.000 OA
ATOM     24  H   UNL     1       3.889   3.524  16.913  0.00  0.00    +0.000 HD
BRANCH  22  25
ATOM     25  C   UNL     1       6.185   4.384  16.479  0.00  0.00    +0.000 A 
ATOM     26  N   UNL     1       5.960   3.528  15.469  0.00  0.00    +0.000 NA
ATOM     27  O   UNL     1       6.650   4.066  14.388  0.00  0.00    +0.000 OA
ATOM     28  N   UNL     1       7.308   5.236  14.739  0.00  0.00    +0.000 NA
ATOM     29  C   UNL     1       7.024   5.429  16.024  0.00  0.00    +0.000 A 
ATOM     30  N   UNL     1       7.485   6.458  16.759  0.00  0.00    +0.000 N 
ATOM     31  H   UNL     1       8.226   7.040  16.385  0.00  0.00    +0.000 HD
ATOM     32  H   UNL     1       7.422   6.442  17.777  0.00  0.00    +0.000 HD
ENDBRANCH  22  25
ENDBRANCH  20  21
ENDBRANCH  19  20
ENDBRANCH  17  19
ENDBRANCH   1  17
TORSDOF 7
ENDMDL
MODEL 4
REMARK VINA RESULT:      -8.7      1.256      1.456
REMARK  Name = 
REMARK  8 active torsions:
REMARK  status: ('A' for Active; 'I' for Inactive)
REMARK    1  A    between atoms: C_1  and  C_2
REMARK    2  A    between atoms: C_2  and  N_3
REMARK    3  A    between atoms: C_12  and  C_13
REMARK    4  A    between atoms: C_13  and  N_14
REMARK    5  A    between atoms: N_14  and  C_15
REMARK    6  A    between atoms: C_15  and  C_16
REMARK    7  A    between atoms: C_16  and  N_17
REMARK    8  A    between atoms: C_18  and  C_20
REMARK                            x       y       z     vdW  Elec       q    Type
REMARK                         _______ _______ _______ _____ _____    ______ ____
ROOT
ATOM      1  C   UNL     1       2.607   6.034  19.800  0.00  0.00    +0.000 C 
ENDROOT
BRANCH   1  11
ATOM      2  N   UNL     1       0.234  11.178  19.494  0.00  0.00    +0.000 N 
ATOM      3  C   UNL     1      -0.350  11.304  20.738  0.00  0.00    +0.000 A 
ATOM      4  C   UNL     1      -1.107  12.347  21.302  0.00  0.00    +0.000 A 
ATOM      5  C   UNL     1      -1.593  12.184  22.600  0.00  0.00    +0.000 A 
ATOM      6  C   UNL     1      -1.341  11.018  23.317  0.00  0.00    +0.000 A 
ATOM      7  C   UNL     1      -0.591   9.983  22.746  0.00  0.00    +0.000 A 
ATOM      8  C   UNL     1      -0.081  10.125  21.438  0.00  0.00    +0.000 A 
ATOM      9  C   UNL     1       0.713   9.286  20.584  0.00  0.00    +0.000 A 
ATOM     10  C   UNL     1       1.279   7.994  20.718  0.00  0.00    +0.000 A 
ATOM     11  C   UNL     1       2.041   7.436  19.672  0.00  0.00    +0.000 A 
ATOM     12  C   UNL     1       2.215   8.176  18.496  0.00  0.00    +0.000 A 
ATOM     13  C   UNL     1       1.682   9.456  18.343  0.00  0.00    +0.000 A 
ATOM     14  C   UNL     1       0.919   9.984  19.394  0.00  0.00    +0.000 A 
BRANCH   2  16
ATOM     15  C   UNL     1       1.171  13.203  18.421  0.00  0.00    +0.000 C 
ATOM     16  C   UNL     1       0.096  12.132  18.404  0.00  0.00    +0.000 C 
ENDBRANCH   2  16
ENDBRANCH   1  11
BRANCH   1  17
ATOM     17  N   UNL     1       2.120   5.162  18.728  0.00  0.00    +0.000 NA
ATOM     18  H   UNL     1       2.812   5.166  17.978  0.00  0.00    +0.000 HD
BRANCH  17  19
ATOM     19  C   UNL     1       1.896   3.786  19.176  0.00  0.00    +0.000 C 
BRANCH  19  20
ATOM     20  C   UNL     1       2.868   2.840  18.451  0.00  0.00    +0.000 C 
BRANCH  20  21
ATOM     21  N   UNL     1       3.779   3.543  17.575  0.00  0.00    +0.000 N 
ATOM     22  C   UNL     1       5.028   3.967  17.986  0.00  0.00    +0.000 C 
ATOM     23  O   UNL     1       5.467   3.749  19.113  0.00  0.00    +0.000 OA
ATOM     24  H   UNL     1       3.519   3.715  16.608  0.00  0.00    +0.000 HD
BRANCH  22  25
ATOM     25  C   UNL     1       5.786   4.682  16.966  0.00  0.00    +0.000 A 
ATOM     26  N   UNL     1       5.188   5.344  15.963  0.00  0.00    +0.000 NA
ATOM     27  O   UNL     1       6.234   5.888  15.224  0.00  0.00    +0.000 OA
ATOM     28  N   UNL     1       7.465   5.546  15.763  0.00  0.00    +0.000 NA
ATOM     29  C   UNL     1       7.190   4.804  16.831  0.00  0.00    +0.000 A 
ATOM     30  N   UNL     1       8.118   4.252  17.636  0.00  0.00    +0.000 N 
ATOM     31  H   UNL     1       9.088   4.246  17.340  0.00  0.00    +0.000 HD
ATOM     32  H   UNL     1       7.866   3.521  18.300  0.00  0.00    +0.000 HD
ENDBRANCH  22  25
ENDBRANCH  20  21
ENDBRANCH  19  20
ENDBRANCH  17  19
ENDBRANCH   1  17
TORSDOF 7
ENDMDL
MODEL 5
REMARK VINA RESULT:      -8.7      1.459      2.200
REMARK  Name = 
REMARK  8 active torsions:
REMARK  status: ('A' for Active; 'I' for Inactive)
REMARK    1  A    between atoms: C_1  and  C_2
REMARK    2  A    between atoms: C_2  and  N_3
REMARK    3  A    between atoms: C_12  and  C_13
REMARK    4  A    between atoms: C_13  and  N_14
REMARK    5  A    between atoms: N_14  and  C_15
REMARK    6  A    between atoms: C_15  and  C_16
REMARK    7  A    between atoms: C_16  and  N_17
REMARK    8  A    between atoms: C_18  and  C_20
REMARK                            x       y       z     vdW  Elec       q    Type
REMARK                         _______ _______ _______ _____ _____    ______ ____
ROOT
ATOM      1  C   UNL     1       3.110   6.018  18.990  0.00  0.00    +0.000 C 
ENDROOT
BRANCH   1  11
ATOM      2  N   UNL     1       0.296  10.926  19.407  0.00  0.00    +0.000 N 
ATOM      3  C   UNL     1      -0.164  10.889  20.708  0.00  0.00    +0.000 A 
ATOM      4  C   UNL     1      -0.943  11.804  21.439  0.00  0.00    +0.000 A 
ATOM      5  C   UNL     1      -1.276  11.484  22.756  0.00  0.00    +0.000 A 
ATOM      6  C   UNL     1      -0.854  10.288  23.330  0.00  0.00    +0.000 A 
ATOM      7  C   UNL     1      -0.084   9.381  22.594  0.00  0.00    +0.000 A 
ATOM      8  C   UNL     1       0.274   9.683  21.262  0.00  0.00    +0.000 A 
ATOM      9  C   UNL     1       1.042   8.999  20.260  0.00  0.00    +0.000 A 
ATOM     10  C   UNL     1       1.725   7.759  20.215  0.00  0.00    +0.000 A 
ATOM     11  C   UNL     1       2.418   7.367  19.052  0.00  0.00    +0.000 A 
ATOM     12  C   UNL     1       2.407   8.220  17.941  0.00  0.00    +0.000 A 
ATOM     13  C   UNL     1       1.756   9.452  17.963  0.00  0.00    +0.000 A 
ATOM     14  C   UNL     1       1.064   9.814  19.128  0.00  0.00    +0.000 A 
BRANCH   2  16
ATOM     15  C   UNL     1       0.799  13.212  18.600  0.00  0.00    +0.000 C 
ATOM     16  C   UNL     1      -0.034  11.954  18.432  0.00  0.00    +0.000 C 
ENDBRANCH   2  16
ENDBRANCH   1  11
BRANCH   1  17
ATOM     17  N   UNL     1       4.039   5.945  17.860  0.00  0.00    +0.000 NA
ATOM     18  H   UNL     1       3.857   6.742  17.249  0.00  0.00    +0.000 HD
BRANCH  17  19
ATOM     19  C   UNL     1       5.443   5.963  18.278  0.00  0.00    +0.000 C 
BRANCH  19  20
ATOM     20  C   UNL     1       6.276   6.763  17.263  0.00  0.00    +0.000 C 
BRANCH  20  21
ATOM     21  N   UNL     1       6.268   6.167  15.944  0.00  0.00    +0.000 N 
ATOM     22  C   UNL     1       7.063   5.087  15.611  0.00  0.00    +0.000 C 
ATOM     23  O   UNL     1       7.808   4.536  16.418  0.00  0.00    +0.000 OA
ATOM     24  H   UNL     1       5.639   6.524  15.232  0.00  0.00    +0.000 HD
BRANCH  22  25
ATOM     25  C   UNL     1       6.933   4.649  14.227  0.00  0.00    +0.000 A 
ATOM     26  N   UNL     1       6.038   3.721  13.852  0.00  0.00    +0.000 NA
ATOM     27  O   UNL     1       6.218   3.590  12.479  0.00  0.00    +0.000 OA
ATOM     28  N   UNL     1       7.229   4.421  12.019  0.00  0.00    +0.000 NA
ATOM     29  C   UNL     1       7.669   5.069  13.094  0.00  0.00    +0.000 A 
ATOM     30  N   UNL     1       8.670   5.970  13.083  0.00  0.00    +0.000 N 
ATOM     31  H   UNL     1       9.250   6.055  12.256  0.00  0.00    +0.000 HD
ATOM     32  H   UNL     1       9.112   6.270  13.951  0.00  0.00    +0.000 HD
ENDBRANCH  22  25
ENDBRANCH  20  21
ENDBRANCH  19  20
ENDBRANCH  17  19
ENDBRANCH   1  17
TORSDOF 7
ENDMDL
MODEL 6
REMARK VINA RESULT:      -8.6      1.032      1.177
REMARK  Name = 
REMARK  8 active torsions:
REMARK  status: ('A' for Active; 'I' for Inactive)
REMARK    1  A    between atoms: C_1  and  C_2
REMARK    2  A    between atoms: C_2  and  N_3
REMARK    3  A    between atoms: C_12  and  C_13
REMARK    4  A    between atoms: C_13  and  N_14
REMARK    5  A    between atoms: N_14  and  C_15
REMARK    6  A    between atoms: C_15  and  C_16
REMARK    7  A    between atoms: C_16  and  N_17
REMARK    8  A    between atoms: C_18  and  C_20
REMARK                            x       y       z     vdW  Elec       q    Type
REMARK                         _______ _______ _______ _____ _____    ______ ____
ROOT
ATOM      1  C   UNL     1       3.048   6.413  19.075  0.00  0.00    +0.000 C 
ENDROOT
BRANCH   1  11
ATOM      2  N   UNL     1      -0.192  11.062  19.353  0.00  0.00    +0.000 N 
ATOM      3  C   UNL     1      -0.589  11.062  20.674  0.00  0.00    +0.000 A 
ATOM      4  C   UNL     1      -1.417  11.945  21.391  0.00  0.00    +0.000 A 
ATOM      5  C   UNL     1      -1.661  11.676  22.738  0.00  0.00    +0.000 A 
ATOM      6  C   UNL     1      -1.104  10.561  23.358  0.00  0.00    +0.000 A 
ATOM      7  C   UNL     1      -0.285   9.685  22.636  0.00  0.00    +0.000 A 
ATOM      8  C   UNL     1      -0.016   9.937  21.274  0.00  0.00    +0.000 A 
ATOM      9  C   UNL     1       0.768   9.266  20.275  0.00  0.00    +0.000 A 
ATOM     10  C   UNL     1       1.562   8.092  20.266  0.00  0.00    +0.000 A 
ATOM     11  C   UNL     1       2.237   7.695  19.094  0.00  0.00    +0.000 A 
ATOM     12  C   UNL     1       2.097   8.474  17.939  0.00  0.00    +0.000 A 
ATOM     13  C   UNL     1       1.335   9.642  17.924  0.00  0.00    +0.000 A 
ATOM     14  C   UNL     1       0.664  10.009  19.100  0.00  0.00    +0.000 A 
BRANCH   2  16
ATOM     15  C   UNL     1      -1.993  11.589  17.739  0.00  0.00    +0.000 C 
ATOM     16  C   UNL     1      -0.659  11.994  18.339  0.00  0.00    +0.000 C 
ENDBRANCH   2  16
ENDBRANCH   1  11
BRANCH   1  17
ATOM     17  N   UNL     1       2.264   5.278  19.569  0.00  0.00    +0.000 NA
ATOM     18  H   UNL     1       1.390   5.639  19.952  0.00  0.00    +0.000 HD
BRANCH  17  19
ATOM     19  C   UNL     1       1.968   4.296  18.523  0.00  0.00    +0.000 C 
BRANCH  19  20
ATOM     20  C   UNL     1       3.184   3.379  18.313  0.00  0.00    +0.000 C 
BRANCH  20  21
ATOM     21  N   UNL     1       4.202   3.987  17.483  0.00  0.00    +0.000 N 
ATOM     22  C   UNL     1       5.471   4.270  17.950  0.00  0.00    +0.000 C 
ATOM     23  O   UNL     1       5.836   3.997  19.091  0.00  0.00    +0.000 OA
ATOM     24  H   UNL     1       4.003   4.192  16.509  0.00  0.00    +0.000 HD
BRANCH  22  25
ATOM     25  C   UNL     1       6.344   4.906  16.971  0.00  0.00    +0.000 A 
ATOM     26  N   UNL     1       6.919   6.099  17.193  0.00  0.00    +0.000 NA
ATOM     27  O   UNL     1       7.667   6.351  16.048  0.00  0.00    +0.000 OA
ATOM     28  N   UNL     1       7.538   5.325  15.123  0.00  0.00    +0.000 NA
ATOM     29  C   UNL     1       6.723   4.439  15.690  0.00  0.00    +0.000 A 
ATOM     30  N   UNL     1       6.325   3.291  15.110  0.00  0.00    +0.000 N 
ATOM     31  H   UNL     1       6.504   3.147  14.123  0.00  0.00    +0.000 HD
ATOM     32  H   UNL     1       5.539   2.761  15.486  0.00  0.00    +0.000 HD
ENDBRANCH  22  25
ENDBRANCH  20  21
ENDBRANCH  19  20
ENDBRANCH  17  19
ENDBRANCH   1  17
TORSDOF 7
ENDMDL
MODEL 7
REMARK VINA RESULT:      -8.6      1.333      1.571
REMARK  Name = 
REMARK  8 active torsions:
REMARK  status: ('A' for Active; 'I' for Inactive)
REMARK    1  A    between atoms: C_1  and  C_2
REMARK    2  A    between atoms: C_2  and  N_3
REMARK    3  A    between atoms: C_12  and  C_13
REMARK    4  A    between atoms: C_13  and  N_14
REMARK    5  A    between atoms: N_14  and  C_15
REMARK    6  A    between atoms: C_15  and  C_16
REMARK    7  A    between atoms: C_16  and  N_17
REMARK    8  A    between atoms: C_18  and  C_20
REMARK                            x       y       z     vdW  Elec       q    Type
REMARK                         _______ _______ _______ _____ _____    ______ ____
ROOT
ATOM      1  C   UNL     1       3.094   6.531  19.255  0.00  0.00    +0.000 C 
ENDROOT
BRANCH   1  11
ATOM      2  N   UNL     1      -0.419  10.987  19.251  0.00  0.00    +0.000 N 
ATOM      3  C   UNL     1      -0.770  11.083  20.581  0.00  0.00    +0.000 A 
ATOM      4  C   UNL     1      -1.627  11.977  21.250  0.00  0.00    +0.000 A 
ATOM      5  C   UNL     1      -1.807  11.817  22.624  0.00  0.00    +0.000 A 
ATOM      6  C   UNL     1      -1.161  10.797  23.316  0.00  0.00    +0.000 A 
ATOM      7  C   UNL     1      -0.314   9.909  22.643  0.00  0.00    +0.000 A 
ATOM      8  C   UNL     1      -0.108  10.052  21.255  0.00  0.00    +0.000 A 
ATOM      9  C   UNL     1       0.683   9.342  20.288  0.00  0.00    +0.000 A 
ATOM     10  C   UNL     1       1.547   8.220  20.352  0.00  0.00    +0.000 A 
ATOM     11  C   UNL     1       2.205   7.760  19.194  0.00  0.00    +0.000 A 
ATOM     12  C   UNL     1       1.978   8.422  17.981  0.00  0.00    +0.000 A 
ATOM     13  C   UNL     1       1.144   9.536  17.893  0.00  0.00    +0.000 A 
ATOM     14  C   UNL     1       0.492   9.968  19.057  0.00  0.00    +0.000 A 
BRANCH   2  16
ATOM     15  C   UNL     1      -2.101  11.091  17.437  0.00  0.00    +0.000 C 
ATOM     16  C   UNL     1      -0.977  11.795  18.177  0.00  0.00    +0.000 C 
ENDBRANCH   2  16
ENDBRANCH   1  11
BRANCH   1  17
ATOM     17  N   UNL     1       2.613   5.576  20.257  0.00  0.00    +0.000 NA
ATOM     18  H   UNL     1       1.653   5.822  20.495  0.00  0.00    +0.000 HD
BRANCH  17  19
ATOM     19  C   UNL     1       2.657   4.190  19.783  0.00  0.00    +0.000 C 
BRANCH  19  20
ATOM     20  C   UNL     1       4.106   3.677  19.814  0.00  0.00    +0.000 C 
BRANCH  20  21
ATOM     21  N   UNL     1       4.826   3.968  18.594  0.00  0.00    +0.000 N 
ATOM     22  C   UNL     1       5.993   4.708  18.578  0.00  0.00    +0.000 C 
ATOM     23  O   UNL     1       6.519   5.142  19.600  0.00  0.00    +0.000 OA
ATOM     24  H   UNL     1       4.492   3.599  17.709  0.00  0.00    +0.000 HD
BRANCH  22  25
ATOM     25  C   UNL     1       6.554   4.917  17.249  0.00  0.00    +0.000 A 
ATOM     26  N   UNL     1       7.696   4.330  16.854  0.00  0.00    +0.000 NA
ATOM     27  O   UNL     1       7.884   4.766  15.547  0.00  0.00    +0.000 OA
ATOM     28  N   UNL     1       6.872   5.627  15.149  0.00  0.00    +0.000 NA
ATOM     29  C   UNL     1       6.057   5.721  16.196  0.00  0.00    +0.000 A 
ATOM     30  N   UNL     1       4.946   6.481  16.230  0.00  0.00    +0.000 N 
ATOM     31  H   UNL     1       4.788   7.159  15.493  0.00  0.00    +0.000 HD
ATOM     32  H   UNL     1       4.483   6.690  17.114  0.00  0.00    +0.000 HD
ENDBRANCH  22  25
ENDBRANCH  20  21
ENDBRANCH  19  20
ENDBRANCH  17  19
ENDBRANCH   1  17
TORSDOF 7
ENDMDL
MODEL 8
REMARK VINA RESULT:      -8.5      2.133      3.912
REMARK  Name = 
REMARK  8 active torsions:
REMARK  status: ('A' for Active; 'I' for Inactive)
REMARK    1  A    between atoms: C_1  and  C_2
REMARK    2  A    between atoms: C_2  and  N_3
REMARK    3  A    between atoms: C_12  and  C_13
REMARK    4  A    between atoms: C_13  and  N_14
REMARK    5  A    between atoms: N_14  and  C_15
REMARK    6  A    between atoms: C_15  and  C_16
REMARK    7  A    between atoms: C_16  and  N_17
REMARK    8  A    between atoms: C_18  and  C_20
REMARK                            x       y       z     vdW  Elec       q    Type
REMARK                         _______ _______ _______ _____ _____    ______ ____
ROOT
ATOM      1  C   UNL     1       3.187   6.478  18.529  0.00  0.00    +0.000 C 
ENDROOT
BRANCH   1  11
ATOM      2  N   UNL     1       0.026  11.099  19.448  0.00  0.00    +0.000 N 
ATOM      3  C   UNL     1      -0.340  10.944  20.769  0.00  0.00    +0.000 A 
ATOM      4  C   UNL     1      -1.137  11.744  21.607  0.00  0.00    +0.000 A 
ATOM      5  C   UNL     1      -1.353  11.317  22.918  0.00  0.00    +0.000 A 
ATOM      6  C   UNL     1      -0.799  10.128  23.384  0.00  0.00    +0.000 A 
ATOM      7  C   UNL     1      -0.011   9.336  22.542  0.00  0.00    +0.000 A 
ATOM      8  C   UNL     1       0.230   9.747  21.214  0.00  0.00    +0.000 A 
ATOM      9  C   UNL     1       0.980   9.193  20.121  0.00  0.00    +0.000 A 
ATOM     10  C   UNL     1       1.755   8.019  19.951  0.00  0.00    +0.000 A 
ATOM     11  C   UNL     1       2.396   7.758  18.723  0.00  0.00    +0.000 A 
ATOM     12  C   UNL     1       2.241   8.673  17.674  0.00  0.00    +0.000 A 
ATOM     13  C   UNL     1       1.497   9.844  17.820  0.00  0.00    +0.000 A 
ATOM     14  C   UNL     1       0.860  10.074  19.048  0.00  0.00    +0.000 A 
BRANCH   2  16
ATOM     15  C   UNL     1      -1.773  11.810  17.903  0.00  0.00    +0.000 C 
ATOM     16  C   UNL     1      -0.451  12.153  18.565  0.00  0.00    +0.000 C 
ENDBRANCH   2  16
ENDBRANCH   1  11
BRANCH   1  17
ATOM     17  N   UNL     1       4.052   6.559  17.349  0.00  0.00    +0.000 NA
ATOM     18  H   UNL     1       4.289   7.540  17.196  0.00  0.00    +0.000 HD
BRANCH  17  19
ATOM     19  C   UNL     1       5.284   5.779  17.495  0.00  0.00    +0.000 C 
BRANCH  19  20
ATOM     20  C   UNL     1       4.950   4.278  17.488  0.00  0.00    +0.000 C 
BRANCH  20  21
ATOM     21  N   UNL     1       4.394   3.826  18.745  0.00  0.00    +0.000 N 
ATOM     22  C   UNL     1       3.198   3.138  18.825  0.00  0.00    +0.000 C 
ATOM     23  O   UNL     1       2.539   2.833  17.833  0.00  0.00    +0.000 OA
ATOM     24  H   UNL     1       4.902   3.985  19.609  0.00  0.00    +0.000 HD
BRANCH  22  25
ATOM     25  C   UNL     1       2.793   2.792  20.182  0.00  0.00    +0.000 A 
ATOM     26  N   UNL     1       3.670   2.361  21.102  0.00  0.00    +0.000 NA
ATOM     27  O   UNL     1       2.908   2.150  22.246  0.00  0.00    +0.000 OA
ATOM     28  N   UNL     1       1.569   2.436  22.023  0.00  0.00    +0.000 NA
ATOM     29  C   UNL     1       1.499   2.828  20.754  0.00  0.00    +0.000 A 
ATOM     30  N   UNL     1       0.361   3.185  20.129  0.00  0.00    +0.000 N 
ATOM     31  H   UNL     1      -0.529   2.993  20.574  0.00  0.00    +0.000 HD
ATOM     32  H   UNL     1       0.325   3.263  19.113  0.00  0.00    +0.000 HD
ENDBRANCH  22  25
ENDBRANCH  20  21
ENDBRANCH  19  20
ENDBRANCH  17  19
ENDBRANCH   1  17
TORSDOF 7
ENDMDL
MODEL 9
REMARK VINA RESULT:      -8.4      0.942      1.029
REMARK  Name = 
REMARK  8 active torsions:
REMARK  status: ('A' for Active; 'I' for Inactive)
REMARK    1  A    between atoms: C_1  and  C_2
REMARK    2  A    between atoms: C_2  and  N_3
REMARK    3  A    between atoms: C_12  and  C_13
REMARK    4  A    between atoms: C_13  and  N_14
REMARK    5  A    between atoms: N_14  and  C_15
REMARK    6  A    between atoms: C_15  and  C_16
REMARK    7  A    between atoms: C_16  and  N_17
REMARK    8  A    between atoms: C_18  and  C_20
REMARK                            x       y       z     vdW  Elec       q    Type
REMARK                         _______ _______ _______ _____ _____    ______ ____
ROOT
ATOM      1  C   UNL     1       2.645   5.580  18.325  0.00  0.00    +0.000 C 
ENDROOT
BRANCH   1  11
ATOM      2  N   UNL     1       1.001  10.868  19.563  0.00  0.00    +0.000 N 
ATOM      3  C   UNL     1       0.394  10.704  20.791  0.00  0.00    +0.000 A 
ATOM      4  C   UNL     1      -0.236  11.631  21.642  0.00  0.00    +0.000 A 
ATOM      5  C   UNL     1      -0.787  11.164  22.835  0.00  0.00    +0.000 A 
ATOM      6  C   UNL     1      -0.720   9.817  23.175  0.00  0.00    +0.000 A 
ATOM      7  C   UNL     1      -0.097   8.900  22.320  0.00  0.00    +0.000 A 
ATOM      8  C   UNL     1       0.475   9.346  21.110  0.00  0.00    +0.000 A 
ATOM      9  C   UNL     1       1.180   8.692  20.043  0.00  0.00    +0.000 A 
ATOM     10  C   UNL     1       1.561   7.351  19.787  0.00  0.00    +0.000 A 
ATOM     11  C   UNL     1       2.278   7.023  18.619  0.00  0.00    +0.000 A 
ATOM     12  C   UNL     1       2.594   8.044  17.713  0.00  0.00    +0.000 A 
ATOM     13  C   UNL     1       2.245   9.373  17.947  0.00  0.00    +0.000 A 
ATOM     14  C   UNL     1       1.521   9.671  19.111  0.00  0.00    +0.000 A 
BRANCH   2  16
ATOM     15  C   UNL     1       2.156  13.033  19.236  0.00  0.00    +0.000 C 
ATOM     16  C   UNL     1       1.033  12.108  18.803  0.00  0.00    +0.000 C 
ENDBRANCH   2  16
ENDBRANCH   1  11
BRANCH   1  17
ATOM     17  N   UNL     1       3.389   4.982  19.436  0.00  0.00    +0.000 NA
ATOM     18  H   UNL     1       3.310   3.968  19.361  0.00  0.00    +0.000 HD
BRANCH  17  19
ATOM     19  C   UNL     1       4.804   5.361  19.439  0.00  0.00    +0.000 C 
BRANCH  19  20
ATOM     20  C   UNL     1       5.649   4.215  18.857  0.00  0.00    +0.000 C 
BRANCH  20  21
ATOM     21  N   UNL     1       6.315   4.584  17.627  0.00  0.00    +0.000 N 
ATOM     22  C   UNL     1       5.797   4.282  16.382  0.00  0.00    +0.000 C 
ATOM     23  O   UNL     1       4.720   3.709  16.231  0.00  0.00    +0.000 OA
ATOM     24  H   UNL     1       7.182   5.111  17.660  0.00  0.00    +0.000 HD
BRANCH  22  25
ATOM     25  C   UNL     1       6.628   4.713  15.265  0.00  0.00    +0.000 A 
ATOM     26  N   UNL     1       7.585   5.645  15.403  0.00  0.00    +0.000 NA
ATOM     27  O   UNL     1       8.146   5.766  14.136  0.00  0.00    +0.000 OA
ATOM     28  N   UNL     1       7.526   4.925  13.224  0.00  0.00    +0.000 NA
ATOM     29  C   UNL     1       6.592   4.280  13.918  0.00  0.00    +0.000 A 
ATOM     30  N   UNL     1       5.746   3.372  13.395  0.00  0.00    +0.000 N 
ATOM     31  H   UNL     1       5.682   3.279  12.387  0.00  0.00    +0.000 HD
ATOM     32  H   UNL     1       4.917   3.075  13.908  0.00  0.00    +0.000 HD
ENDBRANCH  22  25
ENDBRANCH  20  21
ENDBRANCH  19  20
ENDBRANCH  17  19
ENDBRANCH   1  17
TORSDOF 7
ENDMDL
