MODEL 1
REMARK VINA RESULT:      -8.2      0.000      0.000
REMARK  Name = 
REMARK  7 active torsions:
REMARK  status: ('A' for Active; 'I' for Inactive)
REMARK    1  A    between atoms: C_1  and  O_2
REMARK    2  A    between atoms: O_2  and  C_3
REMARK    3  A    between atoms: C_5  and  C_6
REMARK    4  A    between atoms: C_9  and  O_10
REMARK    5  A    between atoms: O_10  and  C_11
REMARK    6  A    between atoms: C_11  and  C_12
REMARK    7  A    between atoms: C_14  and  C_15
REMARK                            x       y       z     vdW  Elec       q    Type
REMARK                         _______ _______ _______ _____ _____    ______ ____
ROOT
ATOM      1  C   UNL     1       7.668   7.686  17.894  0.00  0.00    +0.000 A 
ATOM      2  N   UNL     1       6.835   7.060  17.085  0.00  0.00    +0.000 NA
ATOM      3  C   UNL     1       6.834   5.755  17.533  0.00  0.00    +0.000 A 
ATOM      4  C   UNL     1       7.751   5.636  18.553  0.00  0.00    +0.000 A 
ATOM      5  O   UNL     1       8.276   6.865  18.810  0.00  0.00    +0.000 OA
ENDROOT
BRANCH   3   6
ATOM      6  C   UNL     1       5.988   4.681  17.024  0.00  0.00    +0.000 C 
ATOM      7  O   UNL     1       6.351   4.030  16.041  0.00  0.00    +0.000 OA
ATOM      8  N   UNL     1       4.805   4.374  17.720  0.00  0.00    +0.000 N 
ATOM      9  C   UNL     1       4.043   3.206  17.282  0.00  0.00    +0.000 C 
ATOM     10  C   UNL     1       2.526   3.397  17.229  0.00  0.00    +0.000 C 
ATOM     11  C   UNL     1       1.908   3.653  18.596  0.00  0.00    +0.000 C 
ATOM     12  N   UNL     1       2.013   5.043  18.969  0.00  0.00    +0.000 N 
ATOM     13  C   UNL     1       3.189   5.742  19.068  0.00  0.00    +0.000 C 
ATOM     14  O   UNL     1       3.152   6.964  19.179  0.00  0.00    +0.000 OA
ATOM     15  C   UNL     1       4.481   4.923  19.049  0.00  0.00    +0.000 C 
ATOM     16  H   UNL     1       1.189   5.633  18.942  0.00  0.00    +0.000 HD
ENDBRANCH   3   6
BRANCH   1  17
ATOM     17  C   UNL     1       8.111   9.106  17.851  0.00  0.00    +0.000 C 
BRANCH  17  18
ATOM     18  O   UNL     1       8.846   9.408  19.040  0.00  0.00    +0.000 OA
BRANCH  18  25
ATOM     19  C   UNL     1       9.556  11.484  20.242  0.00  0.00    +0.000 A 
ATOM     20  C   UNL     1      10.186  12.733  20.118  0.00  0.00    +0.000 A 
ATOM     21  C   UNL     1      10.673  13.187  18.887  0.00  0.00    +0.000 A 
ATOM     22  C   UNL     1      11.338  14.528  18.784  0.00  0.00    +0.000 C 
ATOM     23  C   UNL     1      10.541  12.365  17.767  0.00  0.00    +0.000 A 
ATOM     24  C   UNL     1       9.925  11.111  17.887  0.00  0.00    +0.000 A 
ATOM     25  C   UNL     1       9.427  10.654  19.113  0.00  0.00    +0.000 A 
BRANCH  19  27
ATOM     26  C   UNL     1       8.379  11.927  22.269  0.00  0.00    +0.000 C 
ATOM     27  O   UNL     1       9.120  11.028  21.458  0.00  0.00    +0.000 OA
ENDBRANCH  19  27
ENDBRANCH  18  25
ENDBRANCH  17  18
ENDBRANCH   1  17
TORSDOF 5
ENDMDL
MODEL 2
REMARK VINA RESULT:      -7.9      1.138      2.042
REMARK  Name = 
REMARK  7 active torsions:
REMARK  status: ('A' for Active; 'I' for Inactive)
REMARK    1  A    between atoms: C_1  and  O_2
REMARK    2  A    between atoms: O_2  and  C_3
REMARK    3  A    between atoms: C_5  and  C_6
REMARK    4  A    between atoms: C_9  and  O_10
REMARK    5  A    between atoms: O_10  and  C_11
REMARK    6  A    between atoms: C_11  and  C_12
REMARK    7  A    between atoms: C_14  and  C_15
REMARK                            x       y       z     vdW  Elec       q    Type
REMARK                         _______ _______ _______ _____ _____    ______ ____
ROOT
ATOM      1  C   UNL     1       7.851   8.110  17.926  0.00  0.00    +0.000 A 
ATOM      2  N   UNL     1       7.122   7.393  17.095  0.00  0.00    +0.000 NA
ATOM      3  C   UNL     1       7.157   6.117  17.619  0.00  0.00    +0.000 A 
ATOM      4  C   UNL     1       7.996   6.109  18.710  0.00  0.00    +0.000 A 
ATOM      5  O   UNL     1       8.430   7.379  18.933  0.00  0.00    +0.000 OA
ENDROOT
BRANCH   3   6
ATOM      6  C   UNL     1       6.415   4.967  17.111  0.00  0.00    +0.000 C 
ATOM      7  O   UNL     1       6.955   4.192  16.318  0.00  0.00    +0.000 OA
ATOM      8  N   UNL     1       5.118   4.738  17.604  0.00  0.00    +0.000 N 
ATOM      9  C   UNL     1       4.443   3.508  17.196  0.00  0.00    +0.000 C 
ATOM     10  C   UNL     1       2.967   3.662  16.827  0.00  0.00    +0.000 C 
ATOM     11  C   UNL     1       2.100   4.094  18.001  0.00  0.00    +0.000 C 
ATOM     12  N   UNL     1       2.144   5.524  18.189  0.00  0.00    +0.000 N 
ATOM     13  C   UNL     1       3.286   6.250  18.413  0.00  0.00    +0.000 C 
ATOM     14  O   UNL     1       3.239   7.476  18.344  0.00  0.00    +0.000 OA
ATOM     15  C   UNL     1       4.549   5.460  18.757  0.00  0.00    +0.000 C 
ATOM     16  H   UNL     1       1.346   6.089  17.923  0.00  0.00    +0.000 HD
ENDBRANCH   3   6
BRANCH   1  17
ATOM     17  C   UNL     1       8.217   9.551  17.833  0.00  0.00    +0.000 C 
BRANCH  17  18
ATOM     18  O   UNL     1       9.442   9.773  18.536  0.00  0.00    +0.000 OA
BRANCH  18  25
ATOM     19  C   UNL     1       9.916  12.224  18.699  0.00  0.00    +0.000 A 
ATOM     20  C   UNL     1       9.983  13.334  19.559  0.00  0.00    +0.000 A 
ATOM     21  C   UNL     1       9.726  13.214  20.929  0.00  0.00    +0.000 A 
ATOM     22  C   UNL     1       9.810  14.416  21.822  0.00  0.00    +0.000 C 
ATOM     23  C   UNL     1       9.377  11.964  21.441  0.00  0.00    +0.000 A 
ATOM     24  C   UNL     1       9.295  10.855  20.587  0.00  0.00    +0.000 A 
ATOM     25  C   UNL     1       9.560  10.964  19.216  0.00  0.00    +0.000 A 
BRANCH  19  27
ATOM     26  C   UNL     1      11.237  13.138  16.936  0.00  0.00    +0.000 C 
ATOM     27  O   UNL     1      10.127  12.357  17.353  0.00  0.00    +0.000 OA
ENDBRANCH  19  27
ENDBRANCH  18  25
ENDBRANCH  17  18
ENDBRANCH   1  17
TORSDOF 5
ENDMDL
MODEL 3
REMARK VINA RESULT:      -7.8      5.098      7.615
REMARK  Name = 
REMARK  7 active torsions:
REMARK  status: ('A' for Active; 'I' for Inactive)
REMARK    1  A    between atoms: C_1  and  O_2
REMARK    2  A    between atoms: O_2  and  C_3
REMARK    3  A    between atoms: C_5  and  C_6
REMARK    4  A    between atoms: C_9  and  O_10
REMARK    5  A    between atoms: O_10  and  C_11
REMARK    6  A    between atoms: C_11  and  C_12
REMARK    7  A    between atoms: C_14  and  C_15
REMARK                            x       y       z     vdW  Elec       q    Type
REMARK                         _______ _______ _______ _____ _____    ______ ____
ROOT
ATOM      1  C   UNL     1       1.907   5.813  20.394  0.00  0.00    +0.000 A 
ATOM      2  N   UNL     1       2.175   5.847  19.103  0.00  0.00    +0.000 NA
ATOM      3  C   UNL     1       2.801   4.644  18.849  0.00  0.00    +0.000 A 
ATOM      4  C   UNL     1       2.963   3.968  20.037  0.00  0.00    +0.000 A 
ATOM      5  O   UNL     1       2.377   4.692  21.031  0.00  0.00    +0.000 OA
ENDROOT
BRANCH   3   6
ATOM      6  C   UNL     1       3.209   4.157  17.535  0.00  0.00    +0.000 C 
ATOM      7  O   UNL     1       2.435   3.462  16.873  0.00  0.00    +0.000 OA
ATOM      8  N   UNL     1       4.459   4.560  17.031  0.00  0.00    +0.000 N 
ATOM      9  C   UNL     1       4.792   4.183  15.659  0.00  0.00    +0.000 C 
ATOM     10  C   UNL     1       6.223   3.690  15.445  0.00  0.00    +0.000 C 
ATOM     11  C   UNL     1       7.270   4.761  15.715  0.00  0.00    +0.000 C 
ATOM     12  N   UNL     1       7.574   4.857  17.123  0.00  0.00    +0.000 N 
ATOM     13  C   UNL     1       6.656   5.121  18.106  0.00  0.00    +0.000 C 
ATOM     14  O   UNL     1       6.977   4.967  19.282  0.00  0.00    +0.000 OA
ATOM     15  C   UNL     1       5.282   5.615  17.652  0.00  0.00    +0.000 C 
ATOM     16  H   UNL     1       8.453   4.492  17.472  0.00  0.00    +0.000 HD
ENDBRANCH   3   6
BRANCH   1  17
ATOM     17  C   UNL     1       1.289   6.870  21.241  0.00  0.00    +0.000 C 
BRANCH  17  18
ATOM     18  O   UNL     1       1.374   8.127  20.565  0.00  0.00    +0.000 OA
BRANCH  18  25
ATOM     19  C   UNL     1       0.041  10.231  20.333  0.00  0.00    +0.000 A 
ATOM     20  C   UNL     1      -0.747  11.179  21.007  0.00  0.00    +0.000 A 
ATOM     21  C   UNL     1      -0.987  11.087  22.382  0.00  0.00    +0.000 A 
ATOM     22  C   UNL     1      -1.829  12.119  23.074  0.00  0.00    +0.000 C 
ATOM     23  C   UNL     1      -0.443  10.015  23.089  0.00  0.00    +0.000 A 
ATOM     24  C   UNL     1       0.333   9.057  22.421  0.00  0.00    +0.000 A 
ATOM     25  C   UNL     1       0.586   9.147  21.047  0.00  0.00    +0.000 A 
BRANCH  19  27
ATOM     26  C   UNL     1       1.474  10.831  18.523  0.00  0.00    +0.000 C 
ATOM     27  O   UNL     1       0.237  10.304  18.980  0.00  0.00    +0.000 OA
ENDBRANCH  19  27
ENDBRANCH  18  25
ENDBRANCH  17  18
ENDBRANCH   1  17
TORSDOF 5
ENDMDL
MODEL 4
REMARK VINA RESULT:      -7.6      5.092      7.347
REMARK  Name = 
REMARK  7 active torsions:
REMARK  status: ('A' for Active; 'I' for Inactive)
REMARK    1  A    between atoms: C_1  and  O_2
REMARK    2  A    between atoms: O_2  and  C_3
REMARK    3  A    between atoms: C_5  and  C_6
REMARK    4  A    between atoms: C_9  and  O_10
REMARK    5  A    between atoms: O_10  and  C_11
REMARK    6  A    between atoms: C_11  and  C_12
REMARK    7  A    between atoms: C_14  and  C_15
REMARK                            x       y       z     vdW  Elec       q    Type
REMARK                         _______ _______ _______ _____ _____    ______ ____
ROOT
ATOM      1  C   UNL     1       1.872   5.839  20.312  0.00  0.00    +0.000 A 
ATOM      2  N   UNL     1       2.110   5.838  19.015  0.00  0.00    +0.000 NA
ATOM      3  C   UNL     1       2.816   4.673  18.795  0.00  0.00    +0.000 A 
ATOM      4  C   UNL     1       3.051   4.062  20.005  0.00  0.00    +0.000 A 
ATOM      5  O   UNL     1       2.436   4.783  20.982  0.00  0.00    +0.000 OA
ENDROOT
BRANCH   3   6
ATOM      6  C   UNL     1       3.230   4.162  17.492  0.00  0.00    +0.000 C 
ATOM      7  O   UNL     1       2.461   3.450  16.841  0.00  0.00    +0.000 OA
ATOM      8  N   UNL     1       4.480   4.559  16.985  0.00  0.00    +0.000 N 
ATOM      9  C   UNL     1       4.819   4.156  15.622  0.00  0.00    +0.000 C 
ATOM     10  C   UNL     1       6.253   3.663  15.422  0.00  0.00    +0.000 C 
ATOM     11  C   UNL     1       7.296   4.743  15.675  0.00  0.00    +0.000 C 
ATOM     12  N   UNL     1       7.594   4.868  17.082  0.00  0.00    +0.000 N 
ATOM     13  C   UNL     1       6.671   5.148  18.057  0.00  0.00    +0.000 C 
ATOM     14  O   UNL     1       6.989   5.018  19.236  0.00  0.00    +0.000 OA
ATOM     15  C   UNL     1       5.298   5.628  17.588  0.00  0.00    +0.000 C 
ATOM     16  H   UNL     1       8.473   4.512  17.441  0.00  0.00    +0.000 HD
ENDBRANCH   3   6
BRANCH   1  17
ATOM     17  C   UNL     1       1.197   6.884  21.130  0.00  0.00    +0.000 C 
BRANCH  17  18
ATOM     18  O   UNL     1       1.770   8.160  20.833  0.00  0.00    +0.000 OA
BRANCH  18  25
ATOM     19  C   UNL     1      -0.024   9.896  20.991  0.00  0.00    +0.000 A 
ATOM     20  C   UNL     1      -0.797  10.826  20.277  0.00  0.00    +0.000 A 
ATOM     21  C   UNL     1      -0.663  10.981  18.893  0.00  0.00    +0.000 A 
ATOM     22  C   UNL     1      -1.507  11.980  18.158  0.00  0.00    +0.000 C 
ATOM     23  C   UNL     1       0.277  10.202  18.218  0.00  0.00    +0.000 A 
ATOM     24  C   UNL     1       1.062   9.281  18.926  0.00  0.00    +0.000 A 
ATOM     25  C   UNL     1       0.927   9.114  20.310  0.00  0.00    +0.000 A 
BRANCH  19  27
ATOM     26  C   UNL     1      -0.958  10.716  23.027  0.00  0.00    +0.000 C 
ATOM     27  O   UNL     1      -0.131   9.780  22.352  0.00  0.00    +0.000 OA
ENDBRANCH  19  27
ENDBRANCH  18  25
ENDBRANCH  17  18
ENDBRANCH   1  17
TORSDOF 5
ENDMDL
MODEL 5
REMARK VINA RESULT:      -7.5      4.625      7.120
REMARK  Name = 
REMARK  7 active torsions:
REMARK  status: ('A' for Active; 'I' for Inactive)
REMARK    1  A    between atoms: C_1  and  O_2
REMARK    2  A    between atoms: O_2  and  C_3
REMARK    3  A    between atoms: C_5  and  C_6
REMARK    4  A    between atoms: C_9  and  O_10
REMARK    5  A    between atoms: O_10  and  C_11
REMARK    6  A    between atoms: C_11  and  C_12
REMARK    7  A    between atoms: C_14  and  C_15
REMARK                            x       y       z     vdW  Elec       q    Type
REMARK                         _______ _______ _______ _____ _____    ______ ____
ROOT
ATOM      1  C   UNL     1       5.842   6.389  17.284  0.00  0.00    +0.000 A 
ATOM      2  N   UNL     1       5.293   5.880  18.368  0.00  0.00    +0.000 NA
ATOM      3  C   UNL     1       3.979   6.299  18.318  0.00  0.00    +0.000 A 
ATOM      4  C   UNL     1       3.820   7.131  17.234  0.00  0.00    +0.000 A 
ATOM      5  O   UNL     1       4.996   7.181  16.549  0.00  0.00    +0.000 OA
ENDROOT
BRANCH   3   6
ATOM      6  C   UNL     1       2.926   5.912  19.252  0.00  0.00    +0.000 C 
ATOM      7  O   UNL     1       2.641   6.654  20.195  0.00  0.00    +0.000 OA
ATOM      8  N   UNL     1       2.214   4.725  19.002  0.00  0.00    +0.000 N 
ATOM      9  C   UNL     1       1.071   4.425  19.861  0.00  0.00    +0.000 C 
ATOM     10  C   UNL     1       0.956   2.968  20.313  0.00  0.00    +0.000 C 
ATOM     11  C   UNL     1       0.716   2.003  19.160  0.00  0.00    +0.000 C 
ATOM     12  N   UNL     1       1.953   1.644  18.507  0.00  0.00    +0.000 N 
ATOM     13  C   UNL     1       2.826   2.536  17.938  0.00  0.00    +0.000 C 
ATOM     14  O   UNL     1       3.943   2.150  17.604  0.00  0.00    +0.000 OA
ATOM     15  C   UNL     1       2.320   3.966  17.742  0.00  0.00    +0.000 C 
ATOM     16  H   UNL     1       2.349   0.724  18.656  0.00  0.00    +0.000 HD
ENDBRANCH   3   6
BRANCH   1  17
ATOM     17  C   UNL     1       7.262   6.316  16.842  0.00  0.00    +0.000 C 
BRANCH  17  18
ATOM     18  O   UNL     1       7.547   4.992  16.382  0.00  0.00    +0.000 OA
BRANCH  18  25
ATOM     19  C   UNL     1       7.413   4.928  13.884  0.00  0.00    +0.000 A 
ATOM     20  C   UNL     1       6.695   4.445  12.778  0.00  0.00    +0.000 A 
ATOM     21  C   UNL     1       5.538   3.675  12.936  0.00  0.00    +0.000 A 
ATOM     22  C   UNL     1       4.790   3.177  11.735  0.00  0.00    +0.000 C 
ATOM     23  C   UNL     1       5.105   3.369  14.227  0.00  0.00    +0.000 A 
ATOM     24  C   UNL     1       5.825   3.836  15.336  0.00  0.00    +0.000 A 
ATOM     25  C   UNL     1       6.978   4.614  15.186  0.00  0.00    +0.000 A 
BRANCH  19  27
ATOM     26  C   UNL     1       8.811   6.218  12.446  0.00  0.00    +0.000 C 
ATOM     27  O   UNL     1       8.569   5.645  13.722  0.00  0.00    +0.000 OA
ENDBRANCH  19  27
ENDBRANCH  18  25
ENDBRANCH  17  18
ENDBRANCH   1  17
TORSDOF 5
ENDMDL
MODEL 6
REMARK VINA RESULT:      -7.4      4.994      8.321
REMARK  Name = 
REMARK  7 active torsions:
REMARK  status: ('A' for Active; 'I' for Inactive)
REMARK    1  A    between atoms: C_1  and  O_2
REMARK    2  A    between atoms: O_2  and  C_3
REMARK    3  A    between atoms: C_5  and  C_6
REMARK    4  A    between atoms: C_9  and  O_10
REMARK    5  A    between atoms: O_10  and  C_11
REMARK    6  A    between atoms: C_11  and  C_12
REMARK    7  A    between atoms: C_14  and  C_15
REMARK                            x       y       z     vdW  Elec       q    Type
REMARK                         _______ _______ _______ _____ _____    ______ ____
ROOT
ATOM      1  C   UNL     1       1.888   8.356  18.682  0.00  0.00    +0.000 A 
ATOM      2  N   UNL     1       2.306   7.573  17.707  0.00  0.00    +0.000 NA
ATOM      3  C   UNL     1       2.756   6.437  18.347  0.00  0.00    +0.000 A 
ATOM      4  C   UNL     1       2.670   6.630  19.707  0.00  0.00    +0.000 A 
ATOM      5  O   UNL     1       2.096   7.843  19.937  0.00  0.00    +0.000 OA
ENDROOT
BRANCH   3   6
ATOM      6  C   UNL     1       3.231   5.222  17.691  0.00  0.00    +0.000 C 
ATOM      7  O   UNL     1       2.608   4.167  17.833  0.00  0.00    +0.000 OA
ATOM      8  N   UNL     1       4.357   5.310  16.854  0.00  0.00    +0.000 N 
ATOM      9  C   UNL     1       4.734   4.120  16.094  0.00  0.00    +0.000 C 
ATOM     10  C   UNL     1       6.233   3.819  16.050  0.00  0.00    +0.000 C 
ATOM     11  C   UNL     1       7.036   4.892  15.329  0.00  0.00    +0.000 C 
ATOM     12  N   UNL     1       7.342   5.999  16.204  0.00  0.00    +0.000 N 
ATOM     13  C   UNL     1       6.408   6.756  16.864  0.00  0.00    +0.000 C 
ATOM     14  O   UNL     1       6.779   7.527  17.746  0.00  0.00    +0.000 OA
ATOM     15  C   UNL     1       4.952   6.591  16.428  0.00  0.00    +0.000 C 
ATOM     16  H   UNL     1       8.284   6.111  16.559  0.00  0.00    +0.000 HD
ENDBRANCH   3   6
BRANCH   1  17
ATOM     17  C   UNL     1       1.352   9.743  18.593  0.00  0.00    +0.000 C 
BRANCH  17  18
ATOM     18  O   UNL     1       0.216   9.866  19.453  0.00  0.00    +0.000 OA
BRANCH  18  25
ATOM     19  C   UNL     1      -1.782  11.372  19.412  0.00  0.00    +0.000 A 
ATOM     20  C   UNL     1      -2.920  11.761  18.687  0.00  0.00    +0.000 A 
ATOM     21  C   UNL     1      -3.249  11.165  17.465  0.00  0.00    +0.000 A 
ATOM     22  C   UNL     1      -4.475  11.599  16.717  0.00  0.00    +0.000 C 
ATOM     23  C   UNL     1      -2.412  10.173  16.954  0.00  0.00    +0.000 A 
ATOM     24  C   UNL     1      -1.266   9.788  17.666  0.00  0.00    +0.000 A 
ATOM     25  C   UNL     1      -0.935  10.374  18.893  0.00  0.00    +0.000 A 
BRANCH  19  27
ATOM     26  C   UNL     1      -0.655  13.169  20.503  0.00  0.00    +0.000 C 
ATOM     27  O   UNL     1      -1.442  11.990  20.586  0.00  0.00    +0.000 OA
ENDBRANCH  19  27
ENDBRANCH  18  25
ENDBRANCH  17  18
ENDBRANCH   1  17
TORSDOF 5
ENDMDL
MODEL 7
REMARK VINA RESULT:      -7.3      1.294      1.407
REMARK  Name = 
REMARK  7 active torsions:
REMARK  status: ('A' for Active; 'I' for Inactive)
REMARK    1  A    between atoms: C_1  and  O_2
REMARK    2  A    between atoms: O_2  and  C_3
REMARK    3  A    between atoms: C_5  and  C_6
REMARK    4  A    between atoms: C_9  and  O_10
REMARK    5  A    between atoms: O_10  and  C_11
REMARK    6  A    between atoms: C_11  and  C_12
REMARK    7  A    between atoms: C_14  and  C_15
REMARK                            x       y       z     vdW  Elec       q    Type
REMARK                         _______ _______ _______ _____ _____    ______ ____
ROOT
ATOM      1  C   UNL     1       7.593   8.086  17.651  0.00  0.00    +0.000 A 
ATOM      2  N   UNL     1       7.632   7.026  18.433  0.00  0.00    +0.000 NA
ATOM      3  C   UNL     1       6.667   6.183  17.920  0.00  0.00    +0.000 A 
ATOM      4  C   UNL     1       6.020   6.826  16.890  0.00  0.00    +0.000 A 
ATOM      5  O   UNL     1       6.613   8.034  16.690  0.00  0.00    +0.000 OA
ENDROOT
BRANCH   3   6
ATOM      6  C   UNL     1       6.390   4.826  18.381  0.00  0.00    +0.000 C 
ATOM      7  O   UNL     1       7.251   3.952  18.263  0.00  0.00    +0.000 OA
ATOM      8  N   UNL     1       5.160   4.575  19.017  0.00  0.00    +0.000 N 
ATOM      9  C   UNL     1       4.955   3.250  19.599  0.00  0.00    +0.000 C 
ATOM     10  C   UNL     1       3.575   2.636  19.359  0.00  0.00    +0.000 C 
ATOM     11  C   UNL     1       2.450   3.421  20.017  0.00  0.00    +0.000 C 
ATOM     12  N   UNL     1       2.035   4.534  19.197  0.00  0.00    +0.000 N 
ATOM     13  C   UNL     1       2.859   5.545  18.772  0.00  0.00    +0.000 C 
ATOM     14  O   UNL     1       2.459   6.320  17.907  0.00  0.00    +0.000 OA
ATOM     15  C   UNL     1       4.232   5.640  19.438  0.00  0.00    +0.000 C 
ATOM     16  H   UNL     1       1.155   4.487  18.696  0.00  0.00    +0.000 HD
ENDBRANCH   3   6
BRANCH   1  17
ATOM     17  C   UNL     1       8.372   9.350  17.761  0.00  0.00    +0.000 C 
BRANCH  17  18
ATOM     18  O   UNL     1       8.856   9.490  19.100  0.00  0.00    +0.000 OA
BRANCH  18  25
ATOM     19  C   UNL     1       9.610  11.354  20.589  0.00  0.00    +0.000 A 
ATOM     20  C   UNL     1      10.416  12.500  20.688  0.00  0.00    +0.000 A 
ATOM     21  C   UNL     1      11.177  12.955  19.605  0.00  0.00    +0.000 A 
ATOM     22  C   UNL     1      12.025  14.185  19.740  0.00  0.00    +0.000 C 
ATOM     23  C   UNL     1      11.141  12.237  18.409  0.00  0.00    +0.000 A 
ATOM     24  C   UNL     1      10.349  11.084  18.308  0.00  0.00    +0.000 A 
ATOM     25  C   UNL     1       9.578  10.628  19.383  0.00  0.00    +0.000 A 
BRANCH  19  27
ATOM     26  C   UNL     1       8.302  11.852  22.520  0.00  0.00    +0.000 C 
ATOM     27  O   UNL     1       8.901  10.890  21.665  0.00  0.00    +0.000 OA
ENDBRANCH  19  27
ENDBRANCH  18  25
ENDBRANCH  17  18
ENDBRANCH   1  17
TORSDOF 5
ENDMDL
MODEL 8
REMARK VINA RESULT:      -7.3      1.544      1.895
REMARK  Name = 
REMARK  7 active torsions:
REMARK  status: ('A' for Active; 'I' for Inactive)
REMARK    1  A    between atoms: C_1  and  O_2
REMARK    2  A    between atoms: O_2  and  C_3
REMARK    3  A    between atoms: C_5  and  C_6
REMARK    4  A    between atoms: C_9  and  O_10
REMARK    5  A    between atoms: O_10  and  C_11
REMARK    6  A    between atoms: C_11  and  C_12
REMARK    7  A    between atoms: C_14  and  C_15
REMARK                            x       y       z     vdW  Elec       q    Type
REMARK                         _______ _______ _______ _____ _____    ______ ____
ROOT
ATOM      1  C   UNL     1       7.825   8.571  17.779  0.00  0.00    +0.000 A 
ATOM      2  N   UNL     1       7.128   7.694  17.085  0.00  0.00    +0.000 NA
ATOM      3  C   UNL     1       7.370   6.488  17.711  0.00  0.00    +0.000 A 
ATOM      4  C   UNL     1       8.288   6.687  18.717  0.00  0.00    +0.000 A 
ATOM      5  O   UNL     1       8.572   8.016  18.788  0.00  0.00    +0.000 OA
ENDROOT
BRANCH   3   6
ATOM      6  C   UNL     1       6.742   5.213  17.375  0.00  0.00    +0.000 C 
ATOM      7  O   UNL     1       7.395   4.345  16.793  0.00  0.00    +0.000 OA
ATOM      8  N   UNL     1       5.418   4.989  17.794  0.00  0.00    +0.000 N 
ATOM      9  C   UNL     1       4.853   3.659  17.577  0.00  0.00    +0.000 C 
ATOM     10  C   UNL     1       3.412   3.636  17.065  0.00  0.00    +0.000 C 
ATOM     11  C   UNL     1       2.416   4.217  18.059  0.00  0.00    +0.000 C 
ATOM     12  N   UNL     1       2.364   5.657  17.971  0.00  0.00    +0.000 N 
ATOM     13  C   UNL     1       3.439   6.492  18.144  0.00  0.00    +0.000 C 
ATOM     14  O   UNL     1       3.332   7.676  17.836  0.00  0.00    +0.000 OA
ATOM     15  C   UNL     1       4.705   5.872  18.736  0.00  0.00    +0.000 C 
ATOM     16  H   UNL     1       1.566   6.103  17.536  0.00  0.00    +0.000 HD
ENDBRANCH   3   6
BRANCH   1  17
ATOM     17  C   UNL     1       7.994  10.029  17.528  0.00  0.00    +0.000 C 
BRANCH  17  18
ATOM     18  O   UNL     1       8.969  10.554  18.433  0.00  0.00    +0.000 OA
BRANCH  18  25
ATOM     19  C   UNL     1      10.621  12.430  18.341  0.00  0.00    +0.000 A 
ATOM     20  C   UNL     1      10.793  13.809  18.132  0.00  0.00    +0.000 A 
ATOM     21  C   UNL     1       9.707  14.650  17.868  0.00  0.00    +0.000 A 
ATOM     22  C   UNL     1       9.922  16.119  17.653  0.00  0.00    +0.000 C 
ATOM     23  C   UNL     1       8.429  14.094  17.794  0.00  0.00    +0.000 A 
ATOM     24  C   UNL     1       8.251  12.717  17.988  0.00  0.00    +0.000 A 
ATOM     25  C   UNL     1       9.332  11.870  18.261  0.00  0.00    +0.000 A 
BRANCH  19  27
ATOM     26  C   UNL     1      12.333  11.679  19.822  0.00  0.00    +0.000 C 
ATOM     27  O   UNL     1      11.694  11.606  18.556  0.00  0.00    +0.000 OA
ENDBRANCH  19  27
ENDBRANCH  18  25
ENDBRANCH  17  18
ENDBRANCH   1  17
TORSDOF 5
ENDMDL
MODEL 9
REMARK VINA RESULT:      -7.3      1.672      2.018
REMARK  Name = 
REMARK  7 active torsions:
REMARK  status: ('A' for Active; 'I' for Inactive)
REMARK    1  A    between atoms: C_1  and  O_2
REMARK    2  A    between atoms: O_2  and  C_3
REMARK    3  A    between atoms: C_5  and  C_6
REMARK    4  A    between atoms: C_9  and  O_10
REMARK    5  A    between atoms: O_10  and  C_11
REMARK    6  A    between atoms: C_11  and  C_12
REMARK    7  A    between atoms: C_14  and  C_15
REMARK                            x       y       z     vdW  Elec       q    Type
REMARK                         _______ _______ _______ _____ _____    ______ ____
ROOT
ATOM      1  C   UNL     1       8.058   8.059  18.150  0.00  0.00    +0.000 A 
ATOM      2  N   UNL     1       7.916   6.849  18.655  0.00  0.00    +0.000 NA
ATOM      3  C   UNL     1       6.912   6.277  17.902  0.00  0.00    +0.000 A 
ATOM      4  C   UNL     1       6.426   7.217  17.022  0.00  0.00    +0.000 A 
ATOM      5  O   UNL     1       7.163   8.354  17.153  0.00  0.00    +0.000 OA
ENDROOT
BRANCH   3   6
ATOM      6  C   UNL     1       6.451   4.896  18.007  0.00  0.00    +0.000 C 
ATOM      7  O   UNL     1       7.173   3.977  17.612  0.00  0.00    +0.000 OA
ATOM      8  N   UNL     1       5.212   4.650  18.626  0.00  0.00    +0.000 N 
ATOM      9  C   UNL     1       4.830   3.257  18.852  0.00  0.00    +0.000 C 
ATOM     10  C   UNL     1       3.371   2.920  18.541  0.00  0.00    +0.000 C 
ATOM     11  C   UNL     1       2.385   3.644  19.448  0.00  0.00    +0.000 C 
ATOM     12  N   UNL     1       2.118   4.981  18.975  0.00  0.00    +0.000 N 
ATOM     13  C   UNL     1       3.071   5.949  18.782  0.00  0.00    +0.000 C 
ATOM     14  O   UNL     1       2.768   6.973  18.175  0.00  0.00    +0.000 OA
ATOM     15  C   UNL     1       4.457   5.677  19.366  0.00  0.00    +0.000 C 
ATOM     16  H   UNL     1       1.231   5.187  18.532  0.00  0.00    +0.000 HD
ENDBRANCH   3   6
BRANCH   1  17
ATOM     17  C   UNL     1       8.958   9.154  18.605  0.00  0.00    +0.000 C 
BRANCH  17  18
ATOM     18  O   UNL     1       8.509  10.394  18.051  0.00  0.00    +0.000 OA
BRANCH  18  25
ATOM     19  C   UNL     1       8.967  12.854  18.020  0.00  0.00    +0.000 A 
ATOM     20  C   UNL     1       9.827  13.874  18.456  0.00  0.00    +0.000 A 
ATOM     21  C   UNL     1      10.962  13.596  19.225  0.00  0.00    +0.000 A 
ATOM     22  C   UNL     1      11.866  14.707  19.672  0.00  0.00    +0.000 C 
ATOM     23  C   UNL     1      11.227  12.272  19.577  0.00  0.00    +0.000 A 
ATOM     24  C   UNL     1      10.365  11.249  19.157  0.00  0.00    +0.000 A 
ATOM     25  C   UNL     1       9.232  11.519  18.380  0.00  0.00    +0.000 A 
BRANCH  19  27
ATOM     26  C   UNL     1       7.075  14.271  17.698  0.00  0.00    +0.000 C 
ATOM     27  O   UNL     1       7.835  13.138  17.303  0.00  0.00    +0.000 OA
ENDBRANCH  19  27
ENDBRANCH  18  25
ENDBRANCH  17  18
ENDBRANCH   1  17
TORSDOF 5
ENDMDL
