MODEL 1
REMARK VINA RESULT:      -9.0      0.000      0.000
REMARK  Name = 
REMARK  14 active torsions:
REMARK  status: ('A' for Active; 'I' for Inactive)
REMARK    1  A    between atoms: C_1  and  C_2
REMARK    2  A    between atoms: C_3  and  C_4
REMARK    3  A    between atoms: C_4  and  C_5
REMARK    4  A    between atoms: C_6  and  C_7
REMARK    5  A    between atoms: C_6  and  C_8
REMARK    6  A    between atoms: C_8  and  C_9
REMARK    7  A    between atoms: C_9  and  C_10
REMARK    8  A    between atoms: C_11  and  C_12
REMARK    9  A    between atoms: C_11  and  C_13
REMARK   10  A    between atoms: C_13  and  C_14
REMARK   11  A    between atoms: C_14  and  C_15
REMARK   12  A    between atoms: C_16  and  C_17
REMARK   13  A    between atoms: C_16  and  C_18
REMARK   14  A    between atoms: C_18  and  C_19
REMARK                            x       y       z     vdW  Elec       q    Type
REMARK                         _______ _______ _______ _____ _____    ______ ____
ROOT
ATOM      1  C   UNL     1       9.807  10.973  19.626  0.00  0.00    +0.000 C 
ATOM      2  C   UNL     1       9.221  11.312  18.462  0.00  0.00    +0.000 C 
ATOM      3  C   UNL     1       9.270  12.688  17.854  0.00  0.00    +0.000 C 
ENDROOT
BRANCH   1   4
ATOM      4  C   UNL     1      10.618  11.824  20.566  0.00  0.00    +0.000 C 
BRANCH   4   7
ATOM      5  C   UNL     1      10.787  14.910  20.718  0.00  0.00    +0.000 C 
ATOM      6  C   UNL     1       9.812  14.051  21.479  0.00  0.00    +0.000 C 
ATOM      7  C   UNL     1       9.743  12.704  21.436  0.00  0.00    +0.000 C 
ATOM      8  C   UNL     1       8.761  11.969  22.288  0.00  0.00    +0.000 C 
ATOM      9  O   UNL     1       8.746  10.742  22.352  0.00  0.00    +0.000 OA
ATOM     10  C   UNL     1       7.796  12.744  23.084  0.00  0.00    +0.000 A 
ATOM     11  C   UNL     1       6.814  12.078  23.831  0.00  0.00    +0.000 A 
ATOM     12  C   UNL     1       5.890  12.810  24.588  0.00  0.00    +0.000 A 
ATOM     13  C   UNL     1       5.941  14.203  24.591  0.00  0.00    +0.000 A 
ATOM     14  C   UNL     1       6.913  14.865  23.842  0.00  0.00    +0.000 A 
ATOM     15  C   UNL     1       7.842  14.134  23.090  0.00  0.00    +0.000 A 
ATOM     16  C   UNL     1       8.870  14.846  22.320  0.00  0.00    +0.000 C 
ATOM     17  O   UNL     1       8.934  16.069  22.364  0.00  0.00    +0.000 OA
ENDBRANCH   4   7
ENDBRANCH   1   4
BRANCH   2  18
ATOM     18  C   UNL     1       8.453  10.259  17.672  0.00  0.00    +0.000 C 
BRANCH  18  19
ATOM     19  C   UNL     1       8.360   8.869  18.346  0.00  0.00    +0.000 C 
BRANCH  19  20
ATOM     20  C   UNL     1       7.821   7.839  17.397  0.00  0.00    +0.000 C 
ATOM     21  C   UNL     1       7.509   6.548  17.637  0.00  0.00    +0.000 C 
ATOM     22  C   UNL     1       7.710   5.906  18.981  0.00  0.00    +0.000 C 
BRANCH  21  23
ATOM     23  C   UNL     1       6.926   5.628  16.551  0.00  0.00    +0.000 C 
BRANCH  23  24
ATOM     24  C   UNL     1       5.646   6.209  15.934  0.00  0.00    +0.000 C 
BRANCH  24  25
ATOM     25  C   UNL     1       4.462   6.559  16.778  0.00  0.00    +0.000 C 
ATOM     26  C   UNL     1       3.902   5.635  17.594  0.00  0.00    +0.000 C 
ATOM     27  C   UNL     1       4.431   4.222  17.739  0.00  0.00    +0.000 C 
BRANCH  26  28
ATOM     28  C   UNL     1       2.742   5.973  18.501  0.00  0.00    +0.000 C 
BRANCH  28  29
ATOM     29  C   UNL     1       2.227   4.887  19.418  0.00  0.00    +0.000 A 
ATOM     30  C   UNL     1       2.595   4.742  20.763  0.00  0.00    +0.000 A 
ATOM     31  C   UNL     1       2.084   3.691  21.531  0.00  0.00    +0.000 A 
ATOM     32  C   UNL     1       1.200   2.773  20.968  0.00  0.00    +0.000 A 
ATOM     33  C   UNL     1       0.819   2.906  19.637  0.00  0.00    +0.000 A 
ATOM     34  C   UNL     1       1.325   3.956  18.872  0.00  0.00    +0.000 A 
ENDBRANCH  28  29
ENDBRANCH  26  28
ENDBRANCH  24  25
ENDBRANCH  23  24
ENDBRANCH  21  23
ENDBRANCH  19  20
ENDBRANCH  18  19
ENDBRANCH   2  18
TORSDOF 10
ENDMDL
MODEL 2
REMARK VINA RESULT:      -8.8      6.434      8.600
REMARK  Name = 
REMARK  14 active torsions:
REMARK  status: ('A' for Active; 'I' for Inactive)
REMARK    1  A    between atoms: C_1  and  C_2
REMARK    2  A    between atoms: C_3  and  C_4
REMARK    3  A    between atoms: C_4  and  C_5
REMARK    4  A    between atoms: C_6  and  C_7
REMARK    5  A    between atoms: C_6  and  C_8
REMARK    6  A    between atoms: C_8  and  C_9
REMARK    7  A    between atoms: C_9  and  C_10
REMARK    8  A    between atoms: C_11  and  C_12
REMARK    9  A    between atoms: C_11  and  C_13
REMARK   10  A    between atoms: C_13  and  C_14
REMARK   11  A    between atoms: C_14  and  C_15
REMARK   12  A    between atoms: C_16  and  C_17
REMARK   13  A    between atoms: C_16  and  C_18
REMARK   14  A    between atoms: C_18  and  C_19
REMARK                            x       y       z     vdW  Elec       q    Type
REMARK                         _______ _______ _______ _____ _____    ______ ____
ROOT
ATOM      1  C   UNL     1       1.360   5.137  20.045  0.00  0.00    +0.000 C 
ATOM      2  C   UNL     1       1.249   3.822  20.314  0.00  0.00    +0.000 C 
ATOM      3  C   UNL     1       1.532   3.201  21.655  0.00  0.00    +0.000 C 
ENDROOT
BRANCH   1   4
ATOM      4  C   UNL     1       1.765   6.263  20.958  0.00  0.00    +0.000 C 
BRANCH   4   7
ATOM      5  C   UNL     1       2.844   7.097  18.180  0.00  0.00    +0.000 C 
ATOM      6  C   UNL     1       2.018   7.966  19.092  0.00  0.00    +0.000 C 
ATOM      7  C   UNL     1       1.560   7.620  20.313  0.00  0.00    +0.000 C 
ATOM      8  C   UNL     1       0.796   8.600  21.141  0.00  0.00    +0.000 C 
ATOM      9  O   UNL     1       0.459   8.354  22.296  0.00  0.00    +0.000 OA
ATOM     10  C   UNL     1       0.454   9.906  20.553  0.00  0.00    +0.000 A 
ATOM     11  C   UNL     1      -0.329  10.814  21.281  0.00  0.00    +0.000 A 
ATOM     12  C   UNL     1      -0.661  12.056  20.726  0.00  0.00    +0.000 A 
ATOM     13  C   UNL     1      -0.221  12.388  19.445  0.00  0.00    +0.000 A 
ATOM     14  C   UNL     1       0.551  11.481  18.720  0.00  0.00    +0.000 A 
ATOM     15  C   UNL     1       0.890  10.240  19.276  0.00  0.00    +0.000 A 
ATOM     16  C   UNL     1       1.718   9.305  18.506  0.00  0.00    +0.000 C 
ATOM     17  O   UNL     1       2.138   9.622  17.398  0.00  0.00    +0.000 OA
ENDBRANCH   4   7
ENDBRANCH   1   4
BRANCH   2  18
ATOM     18  C   UNL     1       0.804   2.865  19.214  0.00  0.00    +0.000 C 
BRANCH  18  19
ATOM     19  C   UNL     1       1.946   2.094  18.511  0.00  0.00    +0.000 C 
BRANCH  19  20
ATOM     20  C   UNL     1       3.161   2.958  18.341  0.00  0.00    +0.000 C 
ATOM     21  C   UNL     1       4.306   2.962  19.057  0.00  0.00    +0.000 C 
ATOM     22  C   UNL     1       4.519   2.058  20.239  0.00  0.00    +0.000 C 
BRANCH  21  23
ATOM     23  C   UNL     1       5.481   3.896  18.724  0.00  0.00    +0.000 C 
BRANCH  23  24
ATOM     24  C   UNL     1       5.276   4.621  17.387  0.00  0.00    +0.000 C 
BRANCH  24  25
ATOM     25  C   UNL     1       6.028   4.220  16.159  0.00  0.00    +0.000 C 
ATOM     26  C   UNL     1       6.071   5.037  15.080  0.00  0.00    +0.000 C 
ATOM     27  C   UNL     1       5.405   6.399  15.040  0.00  0.00    +0.000 C 
BRANCH  26  28
ATOM     28  C   UNL     1       6.869   4.686  13.847  0.00  0.00    +0.000 C 
BRANCH  28  29
ATOM     29  C   UNL     1       6.232   3.755  12.838  0.00  0.00    +0.000 A 
ATOM     30  C   UNL     1       6.898   2.698  12.202  0.00  0.00    +0.000 A 
ATOM     31  C   UNL     1       6.234   1.902  11.264  0.00  0.00    +0.000 A 
ATOM     32  C   UNL     1       4.899   2.149  10.950  0.00  0.00    +0.000 A 
ATOM     33  C   UNL     1       4.222   3.189  11.578  0.00  0.00    +0.000 A 
ATOM     34  C   UNL     1       4.883   3.982  12.516  0.00  0.00    +0.000 A 
ENDBRANCH  28  29
ENDBRANCH  26  28
ENDBRANCH  24  25
ENDBRANCH  23  24
ENDBRANCH  21  23
ENDBRANCH  19  20
ENDBRANCH  18  19
ENDBRANCH   2  18
TORSDOF 10
ENDMDL
MODEL 3
REMARK VINA RESULT:      -8.7      5.883      9.272
REMARK  Name = 
REMARK  14 active torsions:
REMARK  status: ('A' for Active; 'I' for Inactive)
REMARK    1  A    between atoms: C_1  and  C_2
REMARK    2  A    between atoms: C_3  and  C_4
REMARK    3  A    between atoms: C_4  and  C_5
REMARK    4  A    between atoms: C_6  and  C_7
REMARK    5  A    between atoms: C_6  and  C_8
REMARK    6  A    between atoms: C_8  and  C_9
REMARK    7  A    between atoms: C_9  and  C_10
REMARK    8  A    between atoms: C_11  and  C_12
REMARK    9  A    between atoms: C_11  and  C_13
REMARK   10  A    between atoms: C_13  and  C_14
REMARK   11  A    between atoms: C_14  and  C_15
REMARK   12  A    between atoms: C_16  and  C_17
REMARK   13  A    between atoms: C_16  and  C_18
REMARK   14  A    between atoms: C_18  and  C_19
REMARK                            x       y       z     vdW  Elec       q    Type
REMARK                         _______ _______ _______ _____ _____    ______ ____
ROOT
ATOM      1  C   UNL     1       1.003  10.481  21.007  0.00  0.00    +0.000 C 
ATOM      2  C   UNL     1       0.683   9.591  21.965  0.00  0.00    +0.000 C 
ATOM      3  C   UNL     1      -0.356   9.822  23.029  0.00  0.00    +0.000 C 
ENDROOT
BRANCH   1   4
ATOM      4  C   UNL     1       0.437  11.854  20.758  0.00  0.00    +0.000 C 
BRANCH   4   7
ATOM      5  C   UNL     1      -2.199  12.971  21.932  0.00  0.00    +0.000 C 
ATOM      6  C   UNL     1      -2.055  12.307  20.588  0.00  0.00    +0.000 C 
ATOM      7  C   UNL     1      -0.915  11.798  20.075  0.00  0.00    +0.000 C 
ATOM      8  C   UNL     1      -0.922  11.113  18.748  0.00  0.00    +0.000 C 
ATOM      9  O   UNL     1       0.074  10.546  18.303  0.00  0.00    +0.000 OA
ATOM     10  C   UNL     1      -2.166  11.107  17.963  0.00  0.00    +0.000 A 
ATOM     11  C   UNL     1      -2.179  10.538  16.680  0.00  0.00    +0.000 A 
ATOM     12  C   UNL     1      -3.359  10.532  15.927  0.00  0.00    +0.000 A 
ATOM     13  C   UNL     1      -4.520  11.100  16.446  0.00  0.00    +0.000 A 
ATOM     14  C   UNL     1      -4.506  11.671  17.718  0.00  0.00    +0.000 A 
ATOM     15  C   UNL     1      -3.327  11.672  18.477  0.00  0.00    +0.000 A 
ATOM     16  C   UNL     1      -3.333  12.263  19.821  0.00  0.00    +0.000 C 
ATOM     17  O   UNL     1      -4.371  12.721  20.287  0.00  0.00    +0.000 OA
ENDBRANCH   4   7
ENDBRANCH   1   4
BRANCH   2  18
ATOM     18  C   UNL     1       1.395   8.243  22.006  0.00  0.00    +0.000 C 
BRANCH  18  19
ATOM     19  C   UNL     1       1.813   7.678  20.628  0.00  0.00    +0.000 C 
BRANCH  19  20
ATOM     20  C   UNL     1       1.202   6.329  20.385  0.00  0.00    +0.000 C 
ATOM     21  C   UNL     1       1.804   5.122  20.340  0.00  0.00    +0.000 C 
ATOM     22  C   UNL     1       3.289   4.956  20.499  0.00  0.00    +0.000 C 
BRANCH  21  23
ATOM     23  C   UNL     1       1.018   3.819  20.115  0.00  0.00    +0.000 C 
BRANCH  23  24
ATOM     24  C   UNL     1       1.012   3.401  18.638  0.00  0.00    +0.000 C 
BRANCH  24  25
ATOM     25  C   UNL     1       1.979   3.984  17.658  0.00  0.00    +0.000 C 
ATOM     26  C   UNL     1       3.146   3.354  17.384  0.00  0.00    +0.000 C 
ATOM     27  C   UNL     1       3.543   2.030  18.006  0.00  0.00    +0.000 C 
BRANCH  26  28
ATOM     28  C   UNL     1       4.117   3.889  16.357  0.00  0.00    +0.000 C 
BRANCH  28  29
ATOM     29  C   UNL     1       5.163   4.876  16.826  0.00  0.00    +0.000 A 
ATOM     30  C   UNL     1       5.039   6.269  16.732  0.00  0.00    +0.000 A 
ATOM     31  C   UNL     1       6.070   7.106  17.171  0.00  0.00    +0.000 A 
ATOM     32  C   UNL     1       7.235   6.564  17.710  0.00  0.00    +0.000 A 
ATOM     33  C   UNL     1       7.371   5.183  17.817  0.00  0.00    +0.000 A 
ATOM     34  C   UNL     1       6.342   4.349  17.382  0.00  0.00    +0.000 A 
ENDBRANCH  28  29
ENDBRANCH  26  28
ENDBRANCH  24  25
ENDBRANCH  23  24
ENDBRANCH  21  23
ENDBRANCH  19  20
ENDBRANCH  18  19
ENDBRANCH   2  18
TORSDOF 10
ENDMDL
MODEL 4
REMARK VINA RESULT:      -8.6      0.880      1.139
REMARK  Name = 
REMARK  14 active torsions:
REMARK  status: ('A' for Active; 'I' for Inactive)
REMARK    1  A    between atoms: C_1  and  C_2
REMARK    2  A    between atoms: C_3  and  C_4
REMARK    3  A    between atoms: C_4  and  C_5
REMARK    4  A    between atoms: C_6  and  C_7
REMARK    5  A    between atoms: C_6  and  C_8
REMARK    6  A    between atoms: C_8  and  C_9
REMARK    7  A    between atoms: C_9  and  C_10
REMARK    8  A    between atoms: C_11  and  C_12
REMARK    9  A    between atoms: C_11  and  C_13
REMARK   10  A    between atoms: C_13  and  C_14
REMARK   11  A    between atoms: C_14  and  C_15
REMARK   12  A    between atoms: C_16  and  C_17
REMARK   13  A    between atoms: C_16  and  C_18
REMARK   14  A    between atoms: C_18  and  C_19
REMARK                            x       y       z     vdW  Elec       q    Type
REMARK                         _______ _______ _______ _____ _____    ______ ____
ROOT
ATOM      1  C   UNL     1      10.014  10.823  19.309  0.00  0.00    +0.000 C 
ATOM      2  C   UNL     1       9.210  11.182  18.291  0.00  0.00    +0.000 C 
ATOM      3  C   UNL     1       9.193  12.548  17.660  0.00  0.00    +0.000 C 
ENDROOT
BRANCH   1   4
ATOM      4  C   UNL     1      11.049  11.640  20.037  0.00  0.00    +0.000 C 
BRANCH   4   7
ATOM      5  C   UNL     1      11.949  14.579  19.679  0.00  0.00    +0.000 C 
ATOM      6  C   UNL     1      10.825  14.113  20.566  0.00  0.00    +0.000 C 
ATOM      7  C   UNL     1      10.437  12.833  20.745  0.00  0.00    +0.000 C 
ATOM      8  C   UNL     1       9.339  12.502  21.701  0.00  0.00    +0.000 C 
ATOM      9  O   UNL     1       9.036  11.341  21.967  0.00  0.00    +0.000 OA
ATOM     10  C   UNL     1       8.613  13.604  22.353  0.00  0.00    +0.000 A 
ATOM     11  C   UNL     1       7.527  13.321  23.195  0.00  0.00    +0.000 A 
ATOM     12  C   UNL     1       6.830  14.366  23.815  0.00  0.00    +0.000 A 
ATOM     13  C   UNL     1       7.209  15.688  23.588  0.00  0.00    +0.000 A 
ATOM     14  C   UNL     1       8.284  15.968  22.745  0.00  0.00    +0.000 A 
ATOM     15  C   UNL     1       8.987  14.924  22.129  0.00  0.00    +0.000 A 
ATOM     16  C   UNL     1      10.127  15.235  21.259  0.00  0.00    +0.000 C 
ATOM     17  O   UNL     1      10.481  16.398  21.100  0.00  0.00    +0.000 OA
ENDBRANCH   4   7
ENDBRANCH   1   4
BRANCH   2  18
ATOM     18  C   UNL     1       8.239  10.162  17.705  0.00  0.00    +0.000 C 
BRANCH  18  19
ATOM     19  C   UNL     1       8.319   8.747  18.325  0.00  0.00    +0.000 C 
BRANCH  19  20
ATOM     20  C   UNL     1       7.748   7.714  17.398  0.00  0.00    +0.000 C 
ATOM     21  C   UNL     1       7.481   6.413  17.640  0.00  0.00    +0.000 C 
ATOM     22  C   UNL     1       7.780   5.762  18.961  0.00  0.00    +0.000 C 
BRANCH  21  23
ATOM     23  C   UNL     1       6.855   5.491  16.581  0.00  0.00    +0.000 C 
BRANCH  23  24
ATOM     24  C   UNL     1       5.521   6.043  16.057  0.00  0.00    +0.000 C 
BRANCH  24  25
ATOM     25  C   UNL     1       4.355   6.259  16.968  0.00  0.00    +0.000 C 
ATOM     26  C   UNL     1       3.600   5.213  17.379  0.00  0.00    +0.000 C 
ATOM     27  C   UNL     1       3.884   3.776  16.986  0.00  0.00    +0.000 C 
BRANCH  26  28
ATOM     28  C   UNL     1       2.452   5.391  18.344  0.00  0.00    +0.000 C 
BRANCH  28  29
ATOM     29  C   UNL     1       2.309   4.382  19.462  0.00  0.00    +0.000 A 
ATOM     30  C   UNL     1       3.382   3.838  20.182  0.00  0.00    +0.000 A 
ATOM     31  C   UNL     1       3.157   2.891  21.186  0.00  0.00    +0.000 A 
ATOM     32  C   UNL     1       1.860   2.476  21.484  0.00  0.00    +0.000 A 
ATOM     33  C   UNL     1       0.784   3.012  20.784  0.00  0.00    +0.000 A 
ATOM     34  C   UNL     1       1.008   3.959  19.785  0.00  0.00    +0.000 A 
ENDBRANCH  28  29
ENDBRANCH  26  28
ENDBRANCH  24  25
ENDBRANCH  23  24
ENDBRANCH  21  23
ENDBRANCH  19  20
ENDBRANCH  18  19
ENDBRANCH   2  18
TORSDOF 10
ENDMDL
MODEL 5
REMARK VINA RESULT:      -8.6      5.770      9.071
REMARK  Name = 
REMARK  14 active torsions:
REMARK  status: ('A' for Active; 'I' for Inactive)
REMARK    1  A    between atoms: C_1  and  C_2
REMARK    2  A    between atoms: C_3  and  C_4
REMARK    3  A    between atoms: C_4  and  C_5
REMARK    4  A    between atoms: C_6  and  C_7
REMARK    5  A    between atoms: C_6  and  C_8
REMARK    6  A    between atoms: C_8  and  C_9
REMARK    7  A    between atoms: C_9  and  C_10
REMARK    8  A    between atoms: C_11  and  C_12
REMARK    9  A    between atoms: C_11  and  C_13
REMARK   10  A    between atoms: C_13  and  C_14
REMARK   11  A    between atoms: C_14  and  C_15
REMARK   12  A    between atoms: C_16  and  C_17
REMARK   13  A    between atoms: C_16  and  C_18
REMARK   14  A    between atoms: C_18  and  C_19
REMARK                            x       y       z     vdW  Elec       q    Type
REMARK                         _______ _______ _______ _____ _____    ______ ____
ROOT
ATOM      1  C   UNL     1       1.035   9.413  19.766  0.00  0.00    +0.000 C 
ATOM      2  C   UNL     1       1.707   8.630  18.902  0.00  0.00    +0.000 C 
ATOM      3  C   UNL     1       2.400   9.129  17.662  0.00  0.00    +0.000 C 
ENDROOT
BRANCH   1   4
ATOM      4  C   UNL     1       0.817  10.903  19.727  0.00  0.00    +0.000 C 
BRANCH   4   7
ATOM      5  C   UNL     1      -0.654  12.011  22.214  0.00  0.00    +0.000 C 
ATOM      6  C   UNL     1      -1.281  11.766  20.867  0.00  0.00    +0.000 C 
ATOM      7  C   UNL     1      -0.655  11.263  19.782  0.00  0.00    +0.000 C 
ATOM      8  C   UNL     1      -1.411  11.016  18.518  0.00  0.00    +0.000 C 
ATOM      9  O   UNL     1      -0.896  10.462  17.550  0.00  0.00    +0.000 OA
ATOM     10  C   UNL     1      -2.818  11.438  18.443  0.00  0.00    +0.000 A 
ATOM     11  C   UNL     1      -3.528  11.288  17.242  0.00  0.00    +0.000 A 
ATOM     12  C   UNL     1      -4.867  11.691  17.163  0.00  0.00    +0.000 A 
ATOM     13  C   UNL     1      -5.493  12.250  18.275  0.00  0.00    +0.000 A 
ATOM     14  C   UNL     1      -4.785  12.405  19.467  0.00  0.00    +0.000 A 
ATOM     15  C   UNL     1      -3.447  11.997  19.550  0.00  0.00    +0.000 A 
ATOM     16  C   UNL     1      -2.721  12.152  20.816  0.00  0.00    +0.000 C 
ATOM     17  O   UNL     1      -3.293  12.604  21.802  0.00  0.00    +0.000 OA
ENDBRANCH   4   7
ENDBRANCH   1   4
BRANCH   2  18
ATOM     18  C   UNL     1       1.802   7.131  19.164  0.00  0.00    +0.000 C 
BRANCH  18  19
ATOM     19  C   UNL     1       1.726   6.717  20.652  0.00  0.00    +0.000 C 
BRANCH  19  20
ATOM     20  C   UNL     1       2.420   5.409  20.890  0.00  0.00    +0.000 C 
ATOM     21  C   UNL     1       1.948   4.156  20.719  0.00  0.00    +0.000 C 
ATOM     22  C   UNL     1       0.540   3.879  20.272  0.00  0.00    +0.000 C 
BRANCH  21  23
ATOM     23  C   UNL     1       2.812   2.909  20.976  0.00  0.00    +0.000 C 
BRANCH  23  24
ATOM     24  C   UNL     1       3.097   2.134  19.682  0.00  0.00    +0.000 C 
BRANCH  24  25
ATOM     25  C   UNL     1       4.154   2.579  18.723  0.00  0.00    +0.000 C 
ATOM     26  C   UNL     1       3.821   3.241  17.590  0.00  0.00    +0.000 C 
ATOM     27  C   UNL     1       2.395   3.602  17.225  0.00  0.00    +0.000 C 
BRANCH  26  28
ATOM     28  C   UNL     1       4.870   3.754  16.631  0.00  0.00    +0.000 C 
BRANCH  28  29
ATOM     29  C   UNL     1       5.725   4.918  17.080  0.00  0.00    +0.000 A 
ATOM     30  C   UNL     1       5.482   6.257  16.744  0.00  0.00    +0.000 A 
ATOM     31  C   UNL     1       6.340   7.268  17.186  0.00  0.00    +0.000 A 
ATOM     32  C   UNL     1       7.451   6.956  17.969  0.00  0.00    +0.000 A 
ATOM     33  C   UNL     1       7.702   5.633  18.317  0.00  0.00    +0.000 A 
ATOM     34  C   UNL     1       6.844   4.625  17.879  0.00  0.00    +0.000 A 
ENDBRANCH  28  29
ENDBRANCH  26  28
ENDBRANCH  24  25
ENDBRANCH  23  24
ENDBRANCH  21  23
ENDBRANCH  19  20
ENDBRANCH  18  19
ENDBRANCH   2  18
TORSDOF 10
ENDMDL
MODEL 6
REMARK VINA RESULT:      -8.5      2.969      9.814
REMARK  Name = 
REMARK  14 active torsions:
REMARK  status: ('A' for Active; 'I' for Inactive)
REMARK    1  A    between atoms: C_1  and  C_2
REMARK    2  A    between atoms: C_3  and  C_4
REMARK    3  A    between atoms: C_4  and  C_5
REMARK    4  A    between atoms: C_6  and  C_7
REMARK    5  A    between atoms: C_6  and  C_8
REMARK    6  A    between atoms: C_8  and  C_9
REMARK    7  A    between atoms: C_9  and  C_10
REMARK    8  A    between atoms: C_11  and  C_12
REMARK    9  A    between atoms: C_11  and  C_13
REMARK   10  A    between atoms: C_13  and  C_14
REMARK   11  A    between atoms: C_14  and  C_15
REMARK   12  A    between atoms: C_16  and  C_17
REMARK   13  A    between atoms: C_16  and  C_18
REMARK   14  A    between atoms: C_18  and  C_19
REMARK                            x       y       z     vdW  Elec       q    Type
REMARK                         _______ _______ _______ _____ _____    ______ ____
ROOT
ATOM      1  C   UNL     1       6.254   6.870  16.798  0.00  0.00    +0.000 C 
ATOM      2  C   UNL     1       7.278   7.223  17.598  0.00  0.00    +0.000 C 
ATOM      3  C   UNL     1       7.882   6.333  18.651  0.00  0.00    +0.000 C 
ENDROOT
BRANCH   1   4
ATOM      4  C   UNL     1       5.493   5.572  16.745  0.00  0.00    +0.000 C 
BRANCH   4   7
ATOM      5  C   UNL     1       3.440   7.725  17.594  0.00  0.00    +0.000 C 
ATOM      6  C   UNL     1       3.608   6.377  18.243  0.00  0.00    +0.000 C 
ATOM      7  C   UNL     1       4.514   5.438  17.894  0.00  0.00    +0.000 C 
ATOM      8  C   UNL     1       4.613   4.161  18.660  0.00  0.00    +0.000 C 
ATOM      9  O   UNL     1       5.495   3.335  18.437  0.00  0.00    +0.000 OA
ATOM     10  C   UNL     1       3.630   3.896  19.723  0.00  0.00    +0.000 A 
ATOM     11  C   UNL     1       3.653   2.670  20.405  0.00  0.00    +0.000 A 
ATOM     12  C   UNL     1       2.719   2.411  21.415  0.00  0.00    +0.000 A 
ATOM     13  C   UNL     1       1.758   3.368  21.738  0.00  0.00    +0.000 A 
ATOM     14  C   UNL     1       1.731   4.584  21.055  0.00  0.00    +0.000 A 
ATOM     15  C   UNL     1       2.670   4.848  20.048  0.00  0.00    +0.000 A 
ATOM     16  C   UNL     1       2.638   6.139  19.351  0.00  0.00    +0.000 C 
ATOM     17  O   UNL     1       1.818   6.992  19.672  0.00  0.00    +0.000 OA
ENDBRANCH   4   7
ENDBRANCH   1   4
BRANCH   2  18
ATOM     18  C   UNL     1       7.900   8.608  17.456  0.00  0.00    +0.000 C 
BRANCH  18  19
ATOM     19  C   UNL     1       8.536   9.179  18.745  0.00  0.00    +0.000 C 
BRANCH  19  20
ATOM     20  C   UNL     1       9.491  10.293  18.434  0.00  0.00    +0.000 C 
ATOM     21  C   UNL     1      10.055  11.185  19.275  0.00  0.00    +0.000 C 
ATOM     22  C   UNL     1       9.747  11.212  20.746  0.00  0.00    +0.000 C 
BRANCH  21  23
ATOM     23  C   UNL     1      11.054  12.251  18.794  0.00  0.00    +0.000 C 
BRANCH  23  24
ATOM     24  C   UNL     1      10.449  13.157  17.712  0.00  0.00    +0.000 C 
BRANCH  24  25
ATOM     25  C   UNL     1       9.532  14.285  18.062  0.00  0.00    +0.000 C 
ATOM     26  C   UNL     1       8.201  14.183  17.839  0.00  0.00    +0.000 C 
ATOM     27  C   UNL     1       7.545  12.944  17.262  0.00  0.00    +0.000 C 
BRANCH  26  28
ATOM     28  C   UNL     1       7.242  15.282  18.234  0.00  0.00    +0.000 C 
BRANCH  28  29
ATOM     29  C   UNL     1       6.943  15.459  19.707  0.00  0.00    +0.000 A 
ATOM     30  C   UNL     1       6.258  16.554  20.252  0.00  0.00    +0.000 A 
ATOM     31  C   UNL     1       6.047  16.645  21.631  0.00  0.00    +0.000 A 
ATOM     32  C   UNL     1       6.516  15.647  22.483  0.00  0.00    +0.000 A 
ATOM     33  C   UNL     1       7.191  14.550  21.957  0.00  0.00    +0.000 A 
ATOM     34  C   UNL     1       7.399  14.457  20.582  0.00  0.00    +0.000 A 
ENDBRANCH  28  29
ENDBRANCH  26  28
ENDBRANCH  24  25
ENDBRANCH  23  24
ENDBRANCH  21  23
ENDBRANCH  19  20
ENDBRANCH  18  19
ENDBRANCH   2  18
TORSDOF 10
ENDMDL
MODEL 7
REMARK VINA RESULT:      -8.5      5.383      8.321
REMARK  Name = 
REMARK  14 active torsions:
REMARK  status: ('A' for Active; 'I' for Inactive)
REMARK    1  A    between atoms: C_1  and  C_2
REMARK    2  A    between atoms: C_3  and  C_4
REMARK    3  A    between atoms: C_4  and  C_5
REMARK    4  A    between atoms: C_6  and  C_7
REMARK    5  A    between atoms: C_6  and  C_8
REMARK    6  A    between atoms: C_8  and  C_9
REMARK    7  A    between atoms: C_9  and  C_10
REMARK    8  A    between atoms: C_11  and  C_12
REMARK    9  A    between atoms: C_11  and  C_13
REMARK   10  A    between atoms: C_13  and  C_14
REMARK   11  A    between atoms: C_14  and  C_15
REMARK   12  A    between atoms: C_16  and  C_17
REMARK   13  A    between atoms: C_16  and  C_18
REMARK   14  A    between atoms: C_18  and  C_19
REMARK                            x       y       z     vdW  Elec       q    Type
REMARK                         _______ _______ _______ _____ _____    ______ ____
ROOT
ATOM      1  C   UNL     1       1.146   8.914  18.631  0.00  0.00    +0.000 C 
ATOM      2  C   UNL     1       2.139   8.053  18.340  0.00  0.00    +0.000 C 
ATOM      3  C   UNL     1       3.370   8.408  17.548  0.00  0.00    +0.000 C 
ENDROOT
BRANCH   1   4
ATOM      4  C   UNL     1       1.014  10.370  18.270  0.00  0.00    +0.000 C 
BRANCH   4   7
ATOM      5  C   UNL     1      -1.884  10.486  17.190  0.00  0.00    +0.000 C 
ATOM      6  C   UNL     1      -1.420  11.054  18.505  0.00  0.00    +0.000 C 
ATOM      7  C   UNL     1      -0.155  11.027  18.977  0.00  0.00    +0.000 C 
ATOM      8  C   UNL     1       0.182  11.680  20.276  0.00  0.00    +0.000 C 
ATOM      9  O   UNL     1       1.339  11.767  20.680  0.00  0.00    +0.000 OA
ATOM     10  C   UNL     1      -0.908  12.249  21.085  0.00  0.00    +0.000 A 
ATOM     11  C   UNL     1      -0.628  12.798  22.346  0.00  0.00    +0.000 A 
ATOM     12  C   UNL     1      -1.662  13.337  23.122  0.00  0.00    +0.000 A 
ATOM     13  C   UNL     1      -2.972  13.319  22.647  0.00  0.00    +0.000 A 
ATOM     14  C   UNL     1      -3.251  12.767  21.397  0.00  0.00    +0.000 A 
ATOM     15  C   UNL     1      -2.217  12.233  20.616  0.00  0.00    +0.000 A 
ATOM     16  C   UNL     1      -2.525  11.670  19.296  0.00  0.00    +0.000 C 
ATOM     17  O   UNL     1      -3.673  11.699  18.867  0.00  0.00    +0.000 OA
ENDBRANCH   4   7
ENDBRANCH   1   4
BRANCH   2  18
ATOM     18  C   UNL     1       2.053   6.613  18.831  0.00  0.00    +0.000 C 
BRANCH  18  19
ATOM     19  C   UNL     1       1.737   6.449  20.336  0.00  0.00    +0.000 C 
BRANCH  19  20
ATOM     20  C   UNL     1       2.343   5.192  20.887  0.00  0.00    +0.000 C 
ATOM     21  C   UNL     1       1.933   3.915  20.733  0.00  0.00    +0.000 C 
ATOM     22  C   UNL     1       0.693   3.555  19.963  0.00  0.00    +0.000 C 
BRANCH  21  23
ATOM     23  C   UNL     1       2.698   2.727  21.340  0.00  0.00    +0.000 C 
BRANCH  23  24
ATOM     24  C   UNL     1       3.914   2.335  20.489  0.00  0.00    +0.000 C 
BRANCH  24  25
ATOM     25  C   UNL     1       4.442   3.237  19.420  0.00  0.00    +0.000 C 
ATOM     26  C   UNL     1       4.069   3.067  18.130  0.00  0.00    +0.000 C 
ATOM     27  C   UNL     1       3.092   1.999  17.680  0.00  0.00    +0.000 C 
BRANCH  26  28
ATOM     28  C   UNL     1       4.540   3.996  17.036  0.00  0.00    +0.000 C 
BRANCH  28  29
ATOM     29  C   UNL     1       5.612   5.006  17.385  0.00  0.00    +0.000 A 
ATOM     30  C   UNL     1       5.689   6.299  16.848  0.00  0.00    +0.000 A 
ATOM     31  C   UNL     1       6.730   7.158  17.212  0.00  0.00    +0.000 A 
ATOM     32  C   UNL     1       7.705   6.740  18.115  0.00  0.00    +0.000 A 
ATOM     33  C   UNL     1       7.639   5.463  18.662  0.00  0.00    +0.000 A 
ATOM     34  C   UNL     1       6.599   4.607  18.302  0.00  0.00    +0.000 A 
ENDBRANCH  28  29
ENDBRANCH  26  28
ENDBRANCH  24  25
ENDBRANCH  23  24
ENDBRANCH  21  23
ENDBRANCH  19  20
ENDBRANCH  18  19
ENDBRANCH   2  18
TORSDOF 10
ENDMDL
MODEL 8
REMARK VINA RESULT:      -8.5      6.383      9.171
REMARK  Name = 
REMARK  14 active torsions:
REMARK  status: ('A' for Active; 'I' for Inactive)
REMARK    1  A    between atoms: C_1  and  C_2
REMARK    2  A    between atoms: C_3  and  C_4
REMARK    3  A    between atoms: C_4  and  C_5
REMARK    4  A    between atoms: C_6  and  C_7
REMARK    5  A    between atoms: C_6  and  C_8
REMARK    6  A    between atoms: C_8  and  C_9
REMARK    7  A    between atoms: C_9  and  C_10
REMARK    8  A    between atoms: C_11  and  C_12
REMARK    9  A    between atoms: C_11  and  C_13
REMARK   10  A    between atoms: C_13  and  C_14
REMARK   11  A    between atoms: C_14  and  C_15
REMARK   12  A    between atoms: C_16  and  C_17
REMARK   13  A    between atoms: C_16  and  C_18
REMARK   14  A    between atoms: C_18  and  C_19
REMARK                            x       y       z     vdW  Elec       q    Type
REMARK                         _______ _______ _______ _____ _____    ______ ____
ROOT
ATOM      1  C   UNL     1       1.487   8.628  20.414  0.00  0.00    +0.000 C 
ATOM      2  C   UNL     1       1.961   7.461  19.938  0.00  0.00    +0.000 C 
ATOM      3  C   UNL     1       2.572   7.282  18.574  0.00  0.00    +0.000 C 
ENDROOT
BRANCH   1   4
ATOM      4  C   UNL     1       1.450   9.980  19.752  0.00  0.00    +0.000 C 
BRANCH   4   7
ATOM      5  C   UNL     1      -0.321  11.631  21.677  0.00  0.00    +0.000 C 
ATOM      6  C   UNL     1      -0.723  11.171  20.301  0.00  0.00    +0.000 C 
ATOM      7  C   UNL     1       0.034  10.433  19.461  0.00  0.00    +0.000 C 
ATOM      8  C   UNL     1      -0.509   9.994  18.141  0.00  0.00    +0.000 C 
ATOM      9  O   UNL     1       0.112   9.234  17.402  0.00  0.00    +0.000 OA
ATOM     10  C   UNL     1      -1.836  10.479  17.726  0.00  0.00    +0.000 A 
ATOM     11  C   UNL     1      -2.335  10.144  16.458  0.00  0.00    +0.000 A 
ATOM     12  C   UNL     1      -3.595  10.605  16.056  0.00  0.00    +0.000 A 
ATOM     13  C   UNL     1      -4.350  11.404  16.912  0.00  0.00    +0.000 A 
ATOM     14  C   UNL     1      -3.850  11.742  18.170  0.00  0.00    +0.000 A 
ATOM     15  C   UNL     1      -2.593  11.276  18.577  0.00  0.00    +0.000 A 
ATOM     16  C   UNL     1      -2.089  11.627  19.910  0.00  0.00    +0.000 C 
ATOM     17  O   UNL     1      -2.779  12.293  20.673  0.00  0.00    +0.000 OA
ENDBRANCH   4   7
ENDBRANCH   1   4
BRANCH   2  18
ATOM     18  C   UNL     1       1.897   6.212  20.810  0.00  0.00    +0.000 C 
BRANCH  18  19
ATOM     19  C   UNL     1       0.888   5.136  20.346  0.00  0.00    +0.000 C 
BRANCH  19  20
ATOM     20  C   UNL     1       1.592   3.910  19.843  0.00  0.00    +0.000 C 
ATOM     21  C   UNL     1       1.746   3.482  18.572  0.00  0.00    +0.000 C 
ATOM     22  C   UNL     1       1.153   4.212  17.399  0.00  0.00    +0.000 C 
BRANCH  21  23
ATOM     23  C   UNL     1       2.536   2.210  18.223  0.00  0.00    +0.000 C 
BRANCH  23  24
ATOM     24  C   UNL     1       4.019   2.510  17.961  0.00  0.00    +0.000 C 
BRANCH  24  25
ATOM     25  C   UNL     1       4.445   3.458  16.887  0.00  0.00    +0.000 C 
ATOM     26  C   UNL     1       5.051   4.627  17.201  0.00  0.00    +0.000 C 
ATOM     27  C   UNL     1       5.365   5.046  18.623  0.00  0.00    +0.000 C 
BRANCH  26  28
ATOM     28  C   UNL     1       5.545   5.578  16.136  0.00  0.00    +0.000 C 
BRANCH  28  29
ATOM     29  C   UNL     1       5.997   4.987  14.819  0.00  0.00    +0.000 A 
ATOM     30  C   UNL     1       7.265   5.182  14.254  0.00  0.00    +0.000 A 
ATOM     31  C   UNL     1       7.588   4.614  13.019  0.00  0.00    +0.000 A 
ATOM     32  C   UNL     1       6.652   3.844  12.331  0.00  0.00    +0.000 A 
ATOM     33  C   UNL     1       5.391   3.634  12.881  0.00  0.00    +0.000 A 
ATOM     34  C   UNL     1       5.070   4.198  14.115  0.00  0.00    +0.000 A 
ENDBRANCH  28  29
ENDBRANCH  26  28
ENDBRANCH  24  25
ENDBRANCH  23  24
ENDBRANCH  21  23
ENDBRANCH  19  20
ENDBRANCH  18  19
ENDBRANCH   2  18
TORSDOF 10
ENDMDL
MODEL 9
REMARK VINA RESULT:      -8.4      2.725     10.486
REMARK  Name = 
REMARK  14 active torsions:
REMARK  status: ('A' for Active; 'I' for Inactive)
REMARK    1  A    between atoms: C_1  and  C_2
REMARK    2  A    between atoms: C_3  and  C_4
REMARK    3  A    between atoms: C_4  and  C_5
REMARK    4  A    between atoms: C_6  and  C_7
REMARK    5  A    between atoms: C_6  and  C_8
REMARK    6  A    between atoms: C_8  and  C_9
REMARK    7  A    between atoms: C_9  and  C_10
REMARK    8  A    between atoms: C_11  and  C_12
REMARK    9  A    between atoms: C_11  and  C_13
REMARK   10  A    between atoms: C_13  and  C_14
REMARK   11  A    between atoms: C_14  and  C_15
REMARK   12  A    between atoms: C_16  and  C_17
REMARK   13  A    between atoms: C_16  and  C_18
REMARK   14  A    between atoms: C_18  and  C_19
REMARK                            x       y       z     vdW  Elec       q    Type
REMARK                         _______ _______ _______ _____ _____    ______ ____
ROOT
ATOM      1  C   UNL     1       5.749   7.378  17.319  0.00  0.00    +0.000 C 
ATOM      2  C   UNL     1       7.056   7.057  17.280  0.00  0.00    +0.000 C 
ATOM      3  C   UNL     1       7.632   5.930  16.464  0.00  0.00    +0.000 C 
ENDROOT
BRANCH   1   4
ATOM      4  C   UNL     1       4.591   6.740  16.599  0.00  0.00    +0.000 C 
BRANCH   4   7
ATOM      5  C   UNL     1       5.131   3.785  15.859  0.00  0.00    +0.000 C 
ATOM      6  C   UNL     1       4.306   4.254  17.028  0.00  0.00    +0.000 C 
ATOM      7  C   UNL     1       4.047   5.540  17.348  0.00  0.00    +0.000 C 
ATOM      8  C   UNL     1       3.163   5.868  18.506  0.00  0.00    +0.000 C 
ATOM      9  O   UNL     1       2.822   7.021  18.758  0.00  0.00    +0.000 OA
ATOM     10  C   UNL     1       2.678   4.770  19.358  0.00  0.00    +0.000 A 
ATOM     11  C   UNL     1       1.911   5.058  20.497  0.00  0.00    +0.000 A 
ATOM     12  C   UNL     1       1.449   4.019  21.313  0.00  0.00    +0.000 A 
ATOM     13  C   UNL     1       1.759   2.696  21.001  0.00  0.00    +0.000 A 
ATOM     14  C   UNL     1       2.528   2.411  19.872  0.00  0.00    +0.000 A 
ATOM     15  C   UNL     1       2.985   3.450  19.050  0.00  0.00    +0.000 A 
ATOM     16  C   UNL     1       3.779   3.131  17.857  0.00  0.00    +0.000 C 
ATOM     17  O   UNL     1       4.010   1.963  17.565  0.00  0.00    +0.000 OA
ENDBRANCH   4   7
ENDBRANCH   1   4
BRANCH   2  18
ATOM     18  C   UNL     1       8.055   7.868  18.097  0.00  0.00    +0.000 C 
BRANCH  18  19
ATOM     19  C   UNL     1       7.893   9.403  17.998  0.00  0.00    +0.000 C 
BRANCH  19  20
ATOM     20  C   UNL     1       9.221  10.096  18.072  0.00  0.00    +0.000 C 
ATOM     21  C   UNL     1       9.824  10.662  19.139  0.00  0.00    +0.000 C 
ATOM     22  C   UNL     1       9.178  10.713  20.496  0.00  0.00    +0.000 C 
BRANCH  21  23
ATOM     23  C   UNL     1      11.218  11.305  19.052  0.00  0.00    +0.000 C 
BRANCH  23  24
ATOM     24  C   UNL     1      11.139  12.836  18.969  0.00  0.00    +0.000 C 
BRANCH  24  25
ATOM     25  C   UNL     1      11.029  13.679  20.198  0.00  0.00    +0.000 C 
ATOM     26  C   UNL     1       9.970  14.504  20.375  0.00  0.00    +0.000 C 
ATOM     27  C   UNL     1       8.827  14.615  19.385  0.00  0.00    +0.000 C 
BRANCH  26  28
ATOM     28  C   UNL     1       9.802  15.325  21.632  0.00  0.00    +0.000 C 
BRANCH  28  29
ATOM     29  C   UNL     1       9.261  14.627  22.861  0.00  0.00    +0.000 A 
ATOM     30  C   UNL     1       8.845  13.289  22.895  0.00  0.00    +0.000 A 
ATOM     31  C   UNL     1       8.336  12.733  24.073  0.00  0.00    +0.000 A 
ATOM     32  C   UNL     1       8.235  13.504  25.229  0.00  0.00    +0.000 A 
ATOM     33  C   UNL     1       8.650  14.832  25.214  0.00  0.00    +0.000 A 
ATOM     34  C   UNL     1       9.162  15.386  24.041  0.00  0.00    +0.000 A 
ENDBRANCH  28  29
ENDBRANCH  26  28
ENDBRANCH  24  25
ENDBRANCH  23  24
ENDBRANCH  21  23
ENDBRANCH  19  20
ENDBRANCH  18  19
ENDBRANCH   2  18
TORSDOF 10
ENDMDL
