MODEL 1
REMARK VINA RESULT:      -9.0      0.000      0.000
REMARK  Name = 
REMARK  8 active torsions:
REMARK  status: ('A' for Active; 'I' for Inactive)
REMARK    1  A    between atoms: C_1  and  C_2
REMARK    2  A    between atoms: C_5  and  C_6
REMARK    3  A    between atoms: C_6  and  C_7
REMARK    4  A    between atoms: C_6  and  C_8
REMARK    5  A    between atoms: C_10  and  N_11
REMARK    6  A    between atoms: C_16  and  C_17
REMARK    7  A    between atoms: C_24  and  C_25
REMARK    8  A    between atoms: C_28  and  C_29
REMARK                            x       y       z     vdW  Elec       q    Type
REMARK                         _______ _______ _______ _____ _____    ______ ____
ROOT
ATOM      1  N   UNL     1      -0.340  11.118  20.921  0.00  0.00    +0.000 N 
ATOM      2  C   UNL     1       0.004  10.543  22.209  0.00  0.00    +0.000 C 
ATOM      3  C   UNL     1       0.031   9.037  22.094  0.00  0.00    +0.000 C 
ATOM      4  C   UNL     1       0.902   8.607  20.948  0.00  0.00    +0.000 A 
ATOM      5  N   UNL     1       1.367   7.336  21.034  0.00  0.00    +0.000 NA
ATOM      6  C   UNL     1       1.948   6.766  19.957  0.00  0.00    +0.000 A 
ATOM      7  C   UNL     1       2.210   7.531  18.823  0.00  0.00    +0.000 A 
ATOM      8  C   UNL     1       1.811   8.883  18.754  0.00  0.00    +0.000 A 
ATOM      9  C   UNL     1       2.156   9.675  17.523  0.00  0.00    +0.000 C 
ATOM     10  C   UNL     1       1.082   9.420  19.832  0.00  0.00    +0.000 A 
ATOM     11  C   UNL     1       0.404  10.753  19.787  0.00  0.00    +0.000 C 
ATOM     12  O   UNL     1       0.485  11.451  18.781  0.00  0.00    +0.000 OA
ENDROOT
BRANCH   6  13
ATOM     13  C   UNL     1       2.261   5.320  20.056  0.00  0.00    +0.000 A 
ATOM     14  C   UNL     1       1.373   4.446  20.741  0.00  0.00    +0.000 A 
ATOM     15  C   UNL     1       1.628   3.087  20.896  0.00  0.00    +0.000 A 
ATOM     16  C   UNL     1       2.788   2.527  20.382  0.00  0.00    +0.000 A 
ATOM     17  C   UNL     1       3.679   3.370  19.710  0.00  0.00    +0.000 A 
ATOM     18  N   UNL     1       4.884   3.035  19.138  0.00  0.00    +0.000 N 
ATOM     19  C   UNL     1       5.460   4.125  18.571  0.00  0.00    +0.000 A 
ATOM     20  C   UNL     1       4.620   5.204  18.761  0.00  0.00    +0.000 A 
ATOM     21  C   UNL     1       4.925   6.556  18.223  0.00  0.00    +0.000 C 
ATOM     22  C   UNL     1       3.462   4.745  19.513  0.00  0.00    +0.000 A 
ATOM     23  H   UNL     1       5.278   2.106  19.141  0.00  0.00    +0.000 HD
ENDBRANCH   6  13
BRANCH   1  30
ATOM     24  C   UNL     1       0.588  13.829  21.630  0.00  0.00    +0.000 C 
ATOM     25  C   UNL     1      -0.836  13.504  21.265  0.00  0.00    +0.000 A 
ATOM     26  C   UNL     1      -1.777  14.543  21.268  0.00  0.00    +0.000 A 
ATOM     27  C   UNL     1      -3.090  14.321  20.855  0.00  0.00    +0.000 A 
ATOM     28  C   UNL     1      -3.499  13.060  20.406  0.00  0.00    +0.000 A 
ATOM     29  C   UNL     1      -2.557  12.017  20.392  0.00  0.00    +0.000 A 
ATOM     30  C   UNL     1      -1.246  12.215  20.862  0.00  0.00    +0.000 A 
BRANCH  28  31
ATOM     31  C   UNL     1      -4.947  12.851  20.001  0.00  0.00    +0.000 C 
ATOM     32  C   UNL     1      -5.083  11.914  18.801  0.00  0.00    +0.000 C 
ATOM     33  C   UNL     1      -5.798  12.362  21.176  0.00  0.00    +0.000 C 
ENDBRANCH  28  31
ENDBRANCH   1  30
TORSDOF 3
ENDMDL
MODEL 2
REMARK VINA RESULT:      -8.7      1.643      3.033
REMARK  Name = 
REMARK  8 active torsions:
REMARK  status: ('A' for Active; 'I' for Inactive)
REMARK    1  A    between atoms: C_1  and  C_2
REMARK    2  A    between atoms: C_5  and  C_6
REMARK    3  A    between atoms: C_6  and  C_7
REMARK    4  A    between atoms: C_6  and  C_8
REMARK    5  A    between atoms: C_10  and  N_11
REMARK    6  A    between atoms: C_16  and  C_17
REMARK    7  A    between atoms: C_24  and  C_25
REMARK    8  A    between atoms: C_28  and  C_29
REMARK                            x       y       z     vdW  Elec       q    Type
REMARK                         _______ _______ _______ _____ _____    ______ ____
ROOT
ATOM      1  N   UNL     1      -1.078  11.627  19.716  0.00  0.00    +0.000 N 
ATOM      2  C   UNL     1      -1.494  11.000  18.473  0.00  0.00    +0.000 C 
ATOM      3  C   UNL     1      -0.299  10.345  17.819  0.00  0.00    +0.000 C 
ATOM      4  C   UNL     1       0.407   9.440  18.788  0.00  0.00    +0.000 A 
ATOM      5  N   UNL     1       1.170   8.477  18.213  0.00  0.00    +0.000 NA
ATOM      6  C   UNL     1       2.034   7.771  18.973  0.00  0.00    +0.000 A 
ATOM      7  C   UNL     1       2.025   7.922  20.358  0.00  0.00    +0.000 A 
ATOM      8  C   UNL     1       1.171   8.858  20.978  0.00  0.00    +0.000 A 
ATOM      9  C   UNL     1       1.171   8.950  22.479  0.00  0.00    +0.000 C 
ATOM     10  C   UNL     1       0.377   9.684  20.159  0.00  0.00    +0.000 A 
ATOM     11  C   UNL     1      -0.388  10.863  20.671  0.00  0.00    +0.000 C 
ATOM     12  O   UNL     1      -0.362  11.142  21.865  0.00  0.00    +0.000 OA
ENDROOT
BRANCH   6  13
ATOM     13  C   UNL     1       2.969   6.872  18.256  0.00  0.00    +0.000 A 
ATOM     14  C   UNL     1       3.925   7.413  17.352  0.00  0.00    +0.000 A 
ATOM     15  C   UNL     1       4.806   6.618  16.626  0.00  0.00    +0.000 A 
ATOM     16  C   UNL     1       4.776   5.237  16.756  0.00  0.00    +0.000 A 
ATOM     17  C   UNL     1       3.840   4.683  17.634  0.00  0.00    +0.000 A 
ATOM     18  N   UNL     1       3.627   3.351  17.904  0.00  0.00    +0.000 N 
ATOM     19  C   UNL     1       2.634   3.206  18.818  0.00  0.00    +0.000 A 
ATOM     20  C   UNL     1       2.183   4.463  19.169  0.00  0.00    +0.000 A 
ATOM     21  C   UNL     1       1.123   4.672  20.189  0.00  0.00    +0.000 C 
ATOM     22  C   UNL     1       2.939   5.441  18.401  0.00  0.00    +0.000 A 
ATOM     23  H   UNL     1       4.142   2.594  17.481  0.00  0.00    +0.000 HD
ENDBRANCH   6  13
BRANCH   1  30
ATOM     24  C   UNL     1       0.507  14.040  19.102  0.00  0.00    +0.000 C 
ATOM     25  C   UNL     1      -0.810  14.070  19.833  0.00  0.00    +0.000 A 
ATOM     26  C   UNL     1      -1.310  15.311  20.250  0.00  0.00    +0.000 A 
ATOM     27  C   UNL     1      -2.564  15.412  20.853  0.00  0.00    +0.000 A 
ATOM     28  C   UNL     1      -3.366  14.280  21.036  0.00  0.00    +0.000 A 
ATOM     29  C   UNL     1      -2.873  13.035  20.610  0.00  0.00    +0.000 A 
ATOM     30  C   UNL     1      -1.586  12.913  20.055  0.00  0.00    +0.000 A 
BRANCH  28  31
ATOM     31  C   UNL     1      -4.708  14.427  21.730  0.00  0.00    +0.000 C 
ATOM     32  C   UNL     1      -5.448  13.094  21.846  0.00  0.00    +0.000 C 
ATOM     33  C   UNL     1      -4.567  15.096  23.100  0.00  0.00    +0.000 C 
ENDBRANCH  28  31
ENDBRANCH   1  30
TORSDOF 3
ENDMDL
MODEL 3
REMARK VINA RESULT:      -8.4      2.351      4.084
REMARK  Name = 
REMARK  8 active torsions:
REMARK  status: ('A' for Active; 'I' for Inactive)
REMARK    1  A    between atoms: C_1  and  C_2
REMARK    2  A    between atoms: C_5  and  C_6
REMARK    3  A    between atoms: C_6  and  C_7
REMARK    4  A    between atoms: C_6  and  C_8
REMARK    5  A    between atoms: C_10  and  N_11
REMARK    6  A    between atoms: C_16  and  C_17
REMARK    7  A    between atoms: C_24  and  C_25
REMARK    8  A    between atoms: C_28  and  C_29
REMARK                            x       y       z     vdW  Elec       q    Type
REMARK                         _______ _______ _______ _____ _____    ______ ____
ROOT
ATOM      1  N   UNL     1       0.822  11.475  19.114  0.00  0.00    +0.000 N 
ATOM      2  C   UNL     1       0.500  10.694  17.932  0.00  0.00    +0.000 C 
ATOM      3  C   UNL     1       1.409   9.489  17.865  0.00  0.00    +0.000 C 
ATOM      4  C   UNL     1       1.382   8.730  19.161  0.00  0.00    +0.000 A 
ATOM      5  N   UNL     1       1.764   7.432  19.066  0.00  0.00    +0.000 NA
ATOM      6  C   UNL     1       2.012   6.728  20.191  0.00  0.00    +0.000 A 
ATOM      7  C   UNL     1       1.725   7.284  21.436  0.00  0.00    +0.000 A 
ATOM      8  C   UNL     1       1.240   8.604  21.544  0.00  0.00    +0.000 A 
ATOM      9  C   UNL     1       0.906   9.140  22.909  0.00  0.00    +0.000 C 
ATOM     10  C   UNL     1       1.120   9.371  20.369  0.00  0.00    +0.000 A 
ATOM     11  C   UNL     1       0.847  10.842  20.367  0.00  0.00    +0.000 C 
ATOM     12  O   UNL     1       0.693  11.440  21.427  0.00  0.00    +0.000 OA
ENDROOT
BRANCH   6  13
ATOM     13  C   UNL     1       2.606   5.381  20.017  0.00  0.00    +0.000 A 
ATOM     14  C   UNL     1       2.169   4.300  20.831  0.00  0.00    +0.000 A 
ATOM     15  C   UNL     1       2.711   3.022  20.738  0.00  0.00    +0.000 A 
ATOM     16  C   UNL     1       3.726   2.755  19.830  0.00  0.00    +0.000 A 
ATOM     17  C   UNL     1       4.176   3.805  19.024  0.00  0.00    +0.000 A 
ATOM     18  N   UNL     1       5.171   3.769  18.076  0.00  0.00    +0.000 N 
ATOM     19  C   UNL     1       5.317   4.987  17.494  0.00  0.00    +0.000 A 
ATOM     20  C   UNL     1       4.396   5.847  18.059  0.00  0.00    +0.000 A 
ATOM     21  C   UNL     1       4.251   7.259  17.618  0.00  0.00    +0.000 C 
ATOM     22  C   UNL     1       3.652   5.109  19.068  0.00  0.00    +0.000 A 
ATOM     23  H   UNL     1       5.713   2.948  17.847  0.00  0.00    +0.000 HD
ENDBRANCH   6  13
BRANCH   1  30
ATOM     24  C   UNL     1      -1.648  13.039  19.513  0.00  0.00    +0.000 C 
ATOM     25  C   UNL     1      -0.323  13.653  19.144  0.00  0.00    +0.000 A 
ATOM     26  C   UNL     1      -0.257  15.042  18.975  0.00  0.00    +0.000 A 
ATOM     27  C   UNL     1       0.959  15.676  18.720  0.00  0.00    +0.000 A 
ATOM     28  C   UNL     1       2.150  14.944  18.648  0.00  0.00    +0.000 A 
ATOM     29  C   UNL     1       2.090  13.551  18.827  0.00  0.00    +0.000 A 
ATOM     30  C   UNL     1       0.862  12.895  19.026  0.00  0.00    +0.000 A 
BRANCH  28  31
ATOM     31  C   UNL     1       3.446  15.667  18.331  0.00  0.00    +0.000 C 
ATOM     32  C   UNL     1       4.590  14.698  18.031  0.00  0.00    +0.000 C 
ATOM     33  C   UNL     1       3.268  16.675  17.193  0.00  0.00    +0.000 C 
ENDBRANCH  28  31
ENDBRANCH   1  30
TORSDOF 3
ENDMDL
MODEL 4
REMARK VINA RESULT:      -8.3      1.974      9.143
REMARK  Name = 
REMARK  8 active torsions:
REMARK  status: ('A' for Active; 'I' for Inactive)
REMARK    1  A    between atoms: C_1  and  C_2
REMARK    2  A    between atoms: C_5  and  C_6
REMARK    3  A    between atoms: C_6  and  C_7
REMARK    4  A    between atoms: C_6  and  C_8
REMARK    5  A    between atoms: C_10  and  N_11
REMARK    6  A    between atoms: C_16  and  C_17
REMARK    7  A    between atoms: C_24  and  C_25
REMARK    8  A    between atoms: C_28  and  C_29
REMARK                            x       y       z     vdW  Elec       q    Type
REMARK                         _______ _______ _______ _____ _____    ______ ____
ROOT
ATOM      1  N   UNL     1       2.168   7.758  18.545  0.00  0.00    +0.000 N 
ATOM      2  C   UNL     1       2.139   8.840  17.576  0.00  0.00    +0.000 C 
ATOM      3  C   UNL     1       0.805   9.545  17.652  0.00  0.00    +0.000 C 
ATOM      4  C   UNL     1       0.496   9.945  19.067  0.00  0.00    +0.000 A 
ATOM      5  N   UNL     1      -0.399  10.956  19.188  0.00  0.00    +0.000 NA
ATOM      6  C   UNL     1      -0.933  11.231  20.398  0.00  0.00    +0.000 A 
ATOM      7  C   UNL     1      -0.448  10.586  21.533  0.00  0.00    +0.000 A 
ATOM      8  C   UNL     1       0.550   9.594  21.431  0.00  0.00    +0.000 A 
ATOM      9  C   UNL     1       1.068   8.960  22.693  0.00  0.00    +0.000 C 
ATOM     10  C   UNL     1       0.994   9.223  20.148  0.00  0.00    +0.000 A 
ATOM     11  C   UNL     1       1.866   8.034  19.888  0.00  0.00    +0.000 C 
ATOM     12  O   UNL     1       2.250   7.338  20.822  0.00  0.00    +0.000 OA
ENDROOT
BRANCH   6  13
ATOM     13  C   UNL     1      -2.041  12.216  20.429  0.00  0.00    +0.000 A 
ATOM     14  C   UNL     1      -2.026  13.273  21.380  0.00  0.00    +0.000 A 
ATOM     15  C   UNL     1      -3.052  14.207  21.481  0.00  0.00    +0.000 A 
ATOM     16  C   UNL     1      -4.154  14.132  20.641  0.00  0.00    +0.000 A 
ATOM     17  C   UNL     1      -4.193  13.097  19.703  0.00  0.00    +0.000 A 
ATOM     18  N   UNL     1      -5.185  12.827  18.790  0.00  0.00    +0.000 N 
ATOM     19  C   UNL     1      -4.861  11.740  18.044  0.00  0.00    +0.000 A 
ATOM     20  C   UNL     1      -3.627  11.283  18.462  0.00  0.00    +0.000 A 
ATOM     21  C   UNL     1      -2.947  10.127  17.821  0.00  0.00    +0.000 C 
ATOM     22  C   UNL     1      -3.177  12.137  19.550  0.00  0.00    +0.000 A 
ATOM     23  H   UNL     1      -6.033  13.367  18.692  0.00  0.00    +0.000 HD
ENDBRANCH   6  13
BRANCH   1  30
ATOM     24  C   UNL     1       4.870   7.659  17.364  0.00  0.00    +0.000 C 
ATOM     25  C   UNL     1       3.997   6.446  17.550  0.00  0.00    +0.000 A 
ATOM     26  C   UNL     1       4.490   5.202  17.135  0.00  0.00    +0.000 A 
ATOM     27  C   UNL     1       3.763   4.033  17.361  0.00  0.00    +0.000 A 
ATOM     28  C   UNL     1       2.533   4.068  18.028  0.00  0.00    +0.000 A 
ATOM     29  C   UNL     1       2.040   5.314  18.455  0.00  0.00    +0.000 A 
ATOM     30  C   UNL     1       2.736   6.505  18.180  0.00  0.00    +0.000 A 
BRANCH  28  31
ATOM     31  C   UNL     1       1.757   2.778  18.221  0.00  0.00    +0.000 C 
ATOM     32  C   UNL     1       2.677   1.576  18.438  0.00  0.00    +0.000 C 
ATOM     33  C   UNL     1       0.734   2.897  19.354  0.00  0.00    +0.000 C 
ENDBRANCH  28  31
ENDBRANCH   1  30
TORSDOF 3
ENDMDL
MODEL 5
REMARK VINA RESULT:      -8.3      1.978      3.840
REMARK  Name = 
REMARK  8 active torsions:
REMARK  status: ('A' for Active; 'I' for Inactive)
REMARK    1  A    between atoms: C_1  and  C_2
REMARK    2  A    between atoms: C_5  and  C_6
REMARK    3  A    between atoms: C_6  and  C_7
REMARK    4  A    between atoms: C_6  and  C_8
REMARK    5  A    between atoms: C_10  and  N_11
REMARK    6  A    between atoms: C_16  and  C_17
REMARK    7  A    between atoms: C_24  and  C_25
REMARK    8  A    between atoms: C_28  and  C_29
REMARK                            x       y       z     vdW  Elec       q    Type
REMARK                         _______ _______ _______ _____ _____    ______ ____
ROOT
ATOM      1  N   UNL     1      -0.523  11.858  19.643  0.00  0.00    +0.000 N 
ATOM      2  C   UNL     1      -1.016  11.240  18.424  0.00  0.00    +0.000 C 
ATOM      3  C   UNL     1       0.091  10.432  17.788  0.00  0.00    +0.000 C 
ATOM      4  C   UNL     1       0.697   9.486  18.785  0.00  0.00    +0.000 A 
ATOM      5  N   UNL     1       1.341   8.424  18.241  0.00  0.00    +0.000 NA
ATOM      6  C   UNL     1       2.125   7.650  19.021  0.00  0.00    +0.000 A 
ATOM      7  C   UNL     1       2.143   7.847  20.400  0.00  0.00    +0.000 A 
ATOM      8  C   UNL     1       1.405   8.894  20.991  0.00  0.00    +0.000 A 
ATOM      9  C   UNL     1       1.427   9.036  22.488  0.00  0.00    +0.000 C 
ATOM     10  C   UNL     1       0.705   9.777  20.147  0.00  0.00    +0.000 A 
ATOM     11  C   UNL     1       0.083  11.053  20.621  0.00  0.00    +0.000 C 
ATOM     12  O   UNL     1       0.149  11.367  21.805  0.00  0.00    +0.000 OA
ENDROOT
BRANCH   6  13
ATOM     13  C   UNL     1       2.947   6.626  18.333  0.00  0.00    +0.000 A 
ATOM     14  C   UNL     1       3.952   7.024  17.409  0.00  0.00    +0.000 A 
ATOM     15  C   UNL     1       4.732   6.110  16.708  0.00  0.00    +0.000 A 
ATOM     16  C   UNL     1       4.545   4.747  16.884  0.00  0.00    +0.000 A 
ATOM     17  C   UNL     1       3.557   4.333  17.782  0.00  0.00    +0.000 A 
ATOM     18  N   UNL     1       3.195   3.044  18.097  0.00  0.00    +0.000 N 
ATOM     19  C   UNL     1       2.197   3.043  19.017  0.00  0.00    +0.000 A 
ATOM     20  C   UNL     1       1.895   4.354  19.327  0.00  0.00    +0.000 A 
ATOM     21  C   UNL     1       0.872   4.717  20.342  0.00  0.00    +0.000 C 
ATOM     22  C   UNL     1       2.753   5.214  18.526  0.00  0.00    +0.000 A 
ATOM     23  H   UNL     1       3.617   2.219  17.698  0.00  0.00    +0.000 HD
ENDBRANCH   6  13
BRANCH   1  30
ATOM     24  C   UNL     1      -3.020  12.429  21.109  0.00  0.00    +0.000 C 
ATOM     25  C   UNL     1      -2.102  13.498  20.577  0.00  0.00    +0.000 A 
ATOM     26  C   UNL     1      -2.454  14.839  20.784  0.00  0.00    +0.000 A 
ATOM     27  C   UNL     1      -1.601  15.871  20.392  0.00  0.00    +0.000 A 
ATOM     28  C   UNL     1      -0.362  15.594  19.803  0.00  0.00    +0.000 A 
ATOM     29  C   UNL     1      -0.001  14.251  19.603  0.00  0.00    +0.000 A 
ATOM     30  C   UNL     1      -0.878  13.204  19.940  0.00  0.00    +0.000 A 
BRANCH  28  31
ATOM     31  C   UNL     1       0.521  16.747  19.357  0.00  0.00    +0.000 C 
ATOM     32  C   UNL     1       1.766  16.267  18.612  0.00  0.00    +0.000 C 
ATOM     33  C   UNL     1      -0.259  17.765  18.522  0.00  0.00    +0.000 C 
ENDBRANCH  28  31
ENDBRANCH   1  30
TORSDOF 3
ENDMDL
MODEL 6
REMARK VINA RESULT:      -8.2      2.221      9.469
REMARK  Name = 
REMARK  8 active torsions:
REMARK  status: ('A' for Active; 'I' for Inactive)
REMARK    1  A    between atoms: C_1  and  C_2
REMARK    2  A    between atoms: C_5  and  C_6
REMARK    3  A    between atoms: C_6  and  C_7
REMARK    4  A    between atoms: C_6  and  C_8
REMARK    5  A    between atoms: C_10  and  N_11
REMARK    6  A    between atoms: C_16  and  C_17
REMARK    7  A    between atoms: C_24  and  C_25
REMARK    8  A    between atoms: C_28  and  C_29
REMARK                            x       y       z     vdW  Elec       q    Type
REMARK                         _______ _______ _______ _____ _____    ______ ____
ROOT
ATOM      1  N   UNL     1       2.723   7.326  18.395  0.00  0.00    +0.000 N 
ATOM      2  C   UNL     1       2.820   8.489  17.529  0.00  0.00    +0.000 C 
ATOM      3  C   UNL     1       1.481   9.185  17.473  0.00  0.00    +0.000 C 
ATOM      4  C   UNL     1       0.967   9.460  18.858  0.00  0.00    +0.000 A 
ATOM      5  N   UNL     1       0.051  10.457  18.936  0.00  0.00    +0.000 NA
ATOM      6  C   UNL     1      -0.654  10.625  20.075  0.00  0.00    +0.000 A 
ATOM      7  C   UNL     1      -0.329   9.884  21.208  0.00  0.00    +0.000 A 
ATOM      8  C   UNL     1       0.686   8.905  21.166  0.00  0.00    +0.000 A 
ATOM      9  C   UNL     1       1.025   8.163  22.429  0.00  0.00    +0.000 C 
ATOM     10  C   UNL     1       1.314   8.646  19.933  0.00  0.00    +0.000 A 
ATOM     11  C   UNL     1       2.228   7.485  19.699  0.00  0.00    +0.000 C 
ATOM     12  O   UNL     1       2.483   6.709  20.615  0.00  0.00    +0.000 OA
ENDROOT
BRANCH   6  13
ATOM     13  C   UNL     1      -1.767  11.604  20.031  0.00  0.00    +0.000 A 
ATOM     14  C   UNL     1      -1.881  12.596  21.043  0.00  0.00    +0.000 A 
ATOM     15  C   UNL     1      -2.921  13.520  21.075  0.00  0.00    +0.000 A 
ATOM     16  C   UNL     1      -3.909  13.499  20.101  0.00  0.00    +0.000 A 
ATOM     17  C   UNL     1      -3.820  12.527  19.100  0.00  0.00    +0.000 A 
ATOM     18  N   UNL     1      -4.688  12.316  18.055  0.00  0.00    +0.000 N 
ATOM     19  C   UNL     1      -4.262  11.281  17.286  0.00  0.00    +0.000 A 
ATOM     20  C   UNL     1      -3.085  10.800  17.824  0.00  0.00    +0.000 A 
ATOM     21  C   UNL     1      -2.320   9.689  17.200  0.00  0.00    +0.000 C 
ATOM     22  C   UNL     1      -2.783  11.582  19.014  0.00  0.00    +0.000 A 
ATOM     23  H   UNL     1      -5.522  12.860  17.887  0.00  0.00    +0.000 HD
ENDBRANCH   6  13
BRANCH   1  30
ATOM     24  C   UNL     1       1.079   4.957  17.767  0.00  0.00    +0.000 C 
ATOM     25  C   UNL     1       2.585   4.949  17.773  0.00  0.00    +0.000 A 
ATOM     26  C   UNL     1       3.246   3.751  17.470  0.00  0.00    +0.000 A 
ATOM     27  C   UNL     1       4.636   3.704  17.375  0.00  0.00    +0.000 A 
ATOM     28  C   UNL     1       5.409   4.857  17.557  0.00  0.00    +0.000 A 
ATOM     29  C   UNL     1       4.750   6.063  17.851  0.00  0.00    +0.000 A 
ATOM     30  C   UNL     1       3.353   6.110  18.008  0.00  0.00    +0.000 A 
BRANCH  28  31
ATOM     31  C   UNL     1       6.922   4.755  17.482  0.00  0.00    +0.000 C 
ATOM     32  C   UNL     1       7.431   4.770  16.040  0.00  0.00    +0.000 C 
ATOM     33  C   UNL     1       7.604   5.843  18.315  0.00  0.00    +0.000 C 
ENDBRANCH  28  31
ENDBRANCH   1  30
TORSDOF 3
ENDMDL
MODEL 7
REMARK VINA RESULT:      -8.1      1.729      3.182
REMARK  Name = 
REMARK  8 active torsions:
REMARK  status: ('A' for Active; 'I' for Inactive)
REMARK    1  A    between atoms: C_1  and  C_2
REMARK    2  A    between atoms: C_5  and  C_6
REMARK    3  A    between atoms: C_6  and  C_7
REMARK    4  A    between atoms: C_6  and  C_8
REMARK    5  A    between atoms: C_10  and  N_11
REMARK    6  A    between atoms: C_16  and  C_17
REMARK    7  A    between atoms: C_24  and  C_25
REMARK    8  A    between atoms: C_28  and  C_29
REMARK                            x       y       z     vdW  Elec       q    Type
REMARK                         _______ _______ _______ _____ _____    ______ ____
ROOT
ATOM      1  N   UNL     1      -0.217  12.067  19.865  0.00  0.00    +0.000 N 
ATOM      2  C   UNL     1      -0.612  11.623  18.539  0.00  0.00    +0.000 C 
ATOM      3  C   UNL     1       0.497  10.791  17.939  0.00  0.00    +0.000 C 
ATOM      4  C   UNL     1       0.912   9.698  18.883  0.00  0.00    +0.000 A 
ATOM      5  N   UNL     1       1.532   8.645  18.295  0.00  0.00    +0.000 NA
ATOM      6  C   UNL     1       2.160   7.730  19.062  0.00  0.00    +0.000 A 
ATOM      7  C   UNL     1       2.035   7.782  20.449  0.00  0.00    +0.000 A 
ATOM      8  C   UNL     1       1.315   8.823  21.071  0.00  0.00    +0.000 A 
ATOM      9  C   UNL     1       1.176   8.809  22.568  0.00  0.00    +0.000 C 
ATOM     10  C   UNL     1       0.785   9.846  20.261  0.00  0.00    +0.000 A 
ATOM     11  C   UNL     1       0.211  11.116  20.806  0.00  0.00    +0.000 C 
ATOM     12  O   UNL     1       0.164  11.300  22.018  0.00  0.00    +0.000 OA
ENDROOT
BRANCH   6  13
ATOM     13  C   UNL     1       2.976   6.714  18.355  0.00  0.00    +0.000 A 
ATOM     14  C   UNL     1       3.982   7.123  17.436  0.00  0.00    +0.000 A 
ATOM     15  C   UNL     1       4.756   6.218  16.717  0.00  0.00    +0.000 A 
ATOM     16  C   UNL     1       4.563   4.853  16.871  0.00  0.00    +0.000 A 
ATOM     17  C   UNL     1       3.575   4.428  17.763  0.00  0.00    +0.000 A 
ATOM     18  N   UNL     1       3.207   3.135  18.057  0.00  0.00    +0.000 N 
ATOM     19  C   UNL     1       2.212   3.123  18.980  0.00  0.00    +0.000 A 
ATOM     20  C   UNL     1       1.916   4.430  19.312  0.00  0.00    +0.000 A 
ATOM     21  C   UNL     1       0.897   4.781  20.336  0.00  0.00    +0.000 C 
ATOM     22  C   UNL     1       2.776   5.299  18.524  0.00  0.00    +0.000 A 
ATOM     23  H   UNL     1       3.625   2.315  17.643  0.00  0.00    +0.000 HD
ENDBRANCH   6  13
BRANCH   1  30
ATOM     24  C   UNL     1       1.926  14.096  19.846  0.00  0.00    +0.000 C 
ATOM     25  C   UNL     1       0.527  14.365  20.335  0.00  0.00    +0.000 A 
ATOM     26  C   UNL     1       0.225  15.647  20.812  0.00  0.00    +0.000 A 
ATOM     27  C   UNL     1      -1.074  15.981  21.196  0.00  0.00    +0.000 A 
ATOM     28  C   UNL     1      -2.115  15.051  21.093  0.00  0.00    +0.000 A 
ATOM     29  C   UNL     1      -1.818  13.767  20.604  0.00  0.00    +0.000 A 
ATOM     30  C   UNL     1      -0.501  13.401  20.271  0.00  0.00    +0.000 A 
BRANCH  28  31
ATOM     31  C   UNL     1      -3.507  15.442  21.556  0.00  0.00    +0.000 C 
ATOM     32  C   UNL     1      -3.956  16.781  20.971  0.00  0.00    +0.000 C 
ATOM     33  C   UNL     1      -4.531  14.343  21.260  0.00  0.00    +0.000 C 
ENDBRANCH  28  31
ENDBRANCH   1  30
TORSDOF 3
ENDMDL
MODEL 8
REMARK VINA RESULT:      -8.1      1.069      2.318
REMARK  Name = 
REMARK  8 active torsions:
REMARK  status: ('A' for Active; 'I' for Inactive)
REMARK    1  A    between atoms: C_1  and  C_2
REMARK    2  A    between atoms: C_5  and  C_6
REMARK    3  A    between atoms: C_6  and  C_7
REMARK    4  A    between atoms: C_6  and  C_8
REMARK    5  A    between atoms: C_10  and  N_11
REMARK    6  A    between atoms: C_16  and  C_17
REMARK    7  A    between atoms: C_24  and  C_25
REMARK    8  A    between atoms: C_28  and  C_29
REMARK                            x       y       z     vdW  Elec       q    Type
REMARK                         _______ _______ _______ _____ _____    ______ ____
ROOT
ATOM      1  N   UNL     1      -0.236  11.054  21.262  0.00  0.00    +0.000 N 
ATOM      2  C   UNL     1       0.044  10.313  22.481  0.00  0.00    +0.000 C 
ATOM      3  C   UNL     1      -0.017   8.832  22.191  0.00  0.00    +0.000 C 
ATOM      4  C   UNL     1       0.852   8.484  21.016  0.00  0.00    +0.000 A 
ATOM      5  N   UNL     1       1.238   7.185  20.960  0.00  0.00    +0.000 NA
ATOM      6  C   UNL     1       1.809   6.709  19.833  0.00  0.00    +0.000 A 
ATOM      7  C   UNL     1       2.141   7.582  18.800  0.00  0.00    +0.000 A 
ATOM      8  C   UNL     1       1.826   8.955  18.884  0.00  0.00    +0.000 A 
ATOM      9  C   UNL     1       2.246   9.861  17.759  0.00  0.00    +0.000 C 
ATOM     10  C   UNL     1       1.106   9.408  20.006  0.00  0.00    +0.000 A 
ATOM     11  C   UNL     1       0.510  10.777  20.106  0.00  0.00    +0.000 C 
ATOM     12  O   UNL     1       0.655  11.580  19.190  0.00  0.00    +0.000 OA
ENDROOT
BRANCH   6  13
ATOM     13  C   UNL     1       2.032   5.245  19.767  0.00  0.00    +0.000 A 
ATOM     14  C   UNL     1       1.176   4.362  20.482  0.00  0.00    +0.000 A 
ATOM     15  C   UNL     1       1.355   2.982  20.486  0.00  0.00    +0.000 A 
ATOM     16  C   UNL     1       2.404   2.408  19.783  0.00  0.00    +0.000 A 
ATOM     17  C   UNL     1       3.261   3.258  19.078  0.00  0.00    +0.000 A 
ATOM     18  N   UNL     1       4.363   2.909  18.332  0.00  0.00    +0.000 N 
ATOM     19  C   UNL     1       4.938   4.014  17.792  0.00  0.00    +0.000 A 
ATOM     20  C   UNL     1       4.203   5.116  18.178  0.00  0.00    +0.000 A 
ATOM     21  C   UNL     1       4.532   6.493  17.723  0.00  0.00    +0.000 C 
ATOM     22  C   UNL     1       3.116   4.655  19.029  0.00  0.00    +0.000 A 
ATOM     23  H   UNL     1       4.690   1.963  18.205  0.00  0.00    +0.000 HD
ENDBRANCH   6  13
BRANCH   1  30
ATOM     24  C   UNL     1      -2.575  11.258  19.474  0.00  0.00    +0.000 C 
ATOM     25  C   UNL     1      -2.153  12.349  20.423  0.00  0.00    +0.000 A 
ATOM     26  C   UNL     1      -2.908  13.529  20.456  0.00  0.00    +0.000 A 
ATOM     27  C   UNL     1      -2.619  14.538  21.375  0.00  0.00    +0.000 A 
ATOM     28  C   UNL     1      -1.581  14.389  22.302  0.00  0.00    +0.000 A 
ATOM     29  C   UNL     1      -0.829  13.202  22.279  0.00  0.00    +0.000 A 
ATOM     30  C   UNL     1      -1.073  12.204  21.319  0.00  0.00    +0.000 A 
BRANCH  28  31
ATOM     31  C   UNL     1      -1.274  15.527  23.260  0.00  0.00    +0.000 C 
ATOM     32  C   UNL     1      -2.160  16.748  23.010  0.00  0.00    +0.000 C 
ATOM     33  C   UNL     1      -1.363  15.076  24.720  0.00  0.00    +0.000 C 
ENDBRANCH  28  31
ENDBRANCH   1  30
TORSDOF 3
ENDMDL
MODEL 9
REMARK VINA RESULT:      -8.0      1.907      3.427
REMARK  Name = 
REMARK  8 active torsions:
REMARK  status: ('A' for Active; 'I' for Inactive)
REMARK    1  A    between atoms: C_1  and  C_2
REMARK    2  A    between atoms: C_5  and  C_6
REMARK    3  A    between atoms: C_6  and  C_7
REMARK    4  A    between atoms: C_6  and  C_8
REMARK    5  A    between atoms: C_10  and  N_11
REMARK    6  A    between atoms: C_16  and  C_17
REMARK    7  A    between atoms: C_24  and  C_25
REMARK    8  A    between atoms: C_28  and  C_29
REMARK                            x       y       z     vdW  Elec       q    Type
REMARK                         _______ _______ _______ _____ _____    ______ ____
ROOT
ATOM      1  N   UNL     1       0.424  10.678  19.643  0.00  0.00    +0.000 N 
ATOM      2  C   UNL     1       0.605  10.802  18.207  0.00  0.00    +0.000 C 
ATOM      3  C   UNL     1       1.969  10.274  17.828  0.00  0.00    +0.000 C 
ATOM      4  C   UNL     1       2.177   8.894  18.382  0.00  0.00    +0.000 A 
ATOM      5  N   UNL     1       3.121   8.161  17.740  0.00  0.00    +0.000 NA
ATOM      6  C   UNL     1       3.562   7.012  18.295  0.00  0.00    +0.000 A 
ATOM      7  C   UNL     1       2.939   6.507  19.435  0.00  0.00    +0.000 A 
ATOM      8  C   UNL     1       1.894   7.216  20.062  0.00  0.00    +0.000 A 
ATOM      9  C   UNL     1       1.228   6.605  21.264  0.00  0.00    +0.000 C 
ATOM     10  C   UNL     1       1.542   8.480  19.549  0.00  0.00    +0.000 A 
ATOM     11  C   UNL     1       0.623   9.429  20.252  0.00  0.00    +0.000 C 
ATOM     12  O   UNL     1       0.115   9.113  21.324  0.00  0.00    +0.000 OA
ENDROOT
BRANCH   6  13
ATOM     13  C   UNL     1       4.723   6.360  17.643  0.00  0.00    +0.000 A 
ATOM     14  C   UNL     1       5.924   7.092  17.431  0.00  0.00    +0.000 A 
ATOM     15  C   UNL     1       7.034   6.546  16.795  0.00  0.00    +0.000 A 
ATOM     16  C   UNL     1       7.004   5.240  16.328  0.00  0.00    +0.000 A 
ATOM     17  C   UNL     1       5.831   4.504  16.520  0.00  0.00    +0.000 A 
ATOM     18  N   UNL     1       5.577   3.210  16.128  0.00  0.00    +0.000 N 
ATOM     19  C   UNL     1       4.325   2.839  16.498  0.00  0.00    +0.000 A 
ATOM     20  C   UNL     1       3.737   3.902  17.155  0.00  0.00    +0.000 A 
ATOM     21  C   UNL     1       2.372   3.821  17.737  0.00  0.00    +0.000 C 
ATOM     22  C   UNL     1       4.688   5.003  17.168  0.00  0.00    +0.000 A 
ATOM     23  H   UNL     1       6.236   2.623  15.637  0.00  0.00    +0.000 HD
ENDBRANCH   6  13
BRANCH   1  30
ATOM     24  C   UNL     1       2.071  12.913  20.642  0.00  0.00    +0.000 C 
ATOM     25  C   UNL     1       0.595  12.780  20.911  0.00  0.00    +0.000 A 
ATOM     26  C   UNL     1      -0.032  13.767  21.683  0.00  0.00    +0.000 A 
ATOM     27  C   UNL     1      -1.411  13.744  21.892  0.00  0.00    +0.000 A 
ATOM     28  C   UNL     1      -2.208  12.747  21.318  0.00  0.00    +0.000 A 
ATOM     29  C   UNL     1      -1.584  11.761  20.535  0.00  0.00    +0.000 A 
ATOM     30  C   UNL     1      -0.188  11.740  20.367  0.00  0.00    +0.000 A 
BRANCH  28  31
ATOM     31  C   UNL     1      -3.700  12.737  21.601  0.00  0.00    +0.000 C 
ATOM     32  C   UNL     1      -4.008  12.911  23.088  0.00  0.00    +0.000 C 
ATOM     33  C   UNL     1      -4.442  13.780  20.762  0.00  0.00    +0.000 C 
ENDBRANCH  28  31
ENDBRANCH   1  30
TORSDOF 3
ENDMDL
