MODEL 1
REMARK VINA RESULT:      -7.3      0.000      0.000
REMARK  Name = 
REMARK  10 active torsions:
REMARK  status: ('A' for Active; 'I' for Inactive)
REMARK    1  A    between atoms: N_5  and  C_6
REMARK    2  A    between atoms: C_9  and  C_10
REMARK    3  A    between atoms: C_10  and  O_11
REMARK    4  A    between atoms: O_11  and  P_12
REMARK    5  A    between atoms: P_12  and  O_14
REMARK    6  A    between atoms: P_12  and  O_15
REMARK    7  A    between atoms: O_15  and  P_16
REMARK    8  A    between atoms: P_16  and  O_18
REMARK    9  A    between atoms: P_16  and  O_19
REMARK   10  A    between atoms: C_20  and  O_21
REMARK                            x       y       z     vdW  Elec       q    Type
REMARK                         _______ _______ _______ _____ _____    ______ ____
ROOT
ATOM      1  C   UNL     1       4.846   5.948  17.815  0.00  0.00    +0.000 C 
ATOM      2  C   UNL     1       5.517   5.658  19.167  0.00  0.00    +0.000 C 
ATOM      3  C   UNL     1       4.070   5.386  19.000  0.00  0.00    +0.000 C 
ATOM      4  C   UNL     1       3.110   6.470  19.500  0.00  0.00    +0.000 C 
ATOM      5  C   UNL     1       2.794   7.191  18.179  0.00  0.00    +0.000 C 
ATOM      6  C   UNL     1       4.173   7.281  17.498  0.00  0.00    +0.000 C 
ENDROOT
BRANCH   1  11
ATOM      7  O   UNL     1       7.195   4.447  13.140  0.00  0.00    +0.000 OA
ATOM      8  C   UNL     1       6.758   4.670  14.268  0.00  0.00    +0.000 A 
ATOM      9  C   UNL     1       5.546   3.989  14.766  0.00  0.00    +0.000 A 
ATOM     10  C   UNL     1       5.014   4.372  15.937  0.00  0.00    +0.000 A 
ATOM     11  N   UNL     1       5.580   5.370  16.696  0.00  0.00    +0.000 N 
ATOM     12  C   UNL     1       6.752   6.028  16.281  0.00  0.00    +0.000 A 
ATOM     13  O   UNL     1       7.248   6.994  16.860  0.00  0.00    +0.000 OA
ATOM     14  N   UNL     1       7.323   5.563  15.125  0.00  0.00    +0.000 N 
ATOM     15  H   UNL     1       8.122   6.079  14.790  0.00  0.00    +0.000 HD
ENDBRANCH   1  11
BRANCH   5  16
ATOM     16  O   UNL     1       2.191   8.454  18.376  0.00  0.00    +0.000 OA
ATOM     17  H   UNL     1       2.856   9.143  18.203  0.00  0.00    +0.000 HD
ENDBRANCH   5  16
BRANCH   4  18
ATOM     18  C   UNL     1       1.855   6.068  20.276  0.00  0.00    +0.000 C 
BRANCH  18  19
ATOM     19  O   UNL     1       2.140   5.052  21.243  0.00  0.00    +0.000 OA
BRANCH  19  20
ATOM     20  P   UNL     1       1.997   3.430  20.658  0.00  0.00    +0.000 P 
ATOM     21  O   UNL     1       2.007   2.926  22.105  0.00  0.00    +0.000 OA
BRANCH  20  22
ATOM     22  O   UNL     1       0.439   3.715  20.263  0.00  0.00    +0.000 OA
ATOM     23  H   UNL     1      -0.017   2.953  19.871  0.00  0.00    +0.000 HD
ENDBRANCH  20  22
BRANCH  20  24
ATOM     24  O   UNL     1       1.855   1.808  20.074  0.00  0.00    +0.000 OA
BRANCH  24  25
ATOM     25  P   UNL     1       3.046   1.529  18.850  0.00  0.00    +0.000 P 
ATOM     26  O   UNL     1       2.579   2.731  18.026  0.00  0.00    +0.000 OA
BRANCH  25  27
ATOM     27  O   UNL     1       4.178   2.189  19.822  0.00  0.00    +0.000 OA
ATOM     28  H   UNL     1       4.886   1.522  19.923  0.00  0.00    +0.000 HD
ENDBRANCH  25  27
BRANCH  25  29
ATOM     29  O   UNL     1       4.236   1.248  17.627  0.00  0.00    +0.000 OA
ATOM     30  H   UNL     1       3.848   1.686  16.840  0.00  0.00    +0.000 HD
ENDBRANCH  25  29
ENDBRANCH  24  25
ENDBRANCH  20  24
ENDBRANCH  19  20
ENDBRANCH  18  19
ENDBRANCH   4  18
TORSDOF 10
ENDMDL
MODEL 2
REMARK VINA RESULT:      -7.2      4.849      7.392
REMARK  Name = 
REMARK  10 active torsions:
REMARK  status: ('A' for Active; 'I' for Inactive)
REMARK    1  A    between atoms: N_5  and  C_6
REMARK    2  A    between atoms: C_9  and  C_10
REMARK    3  A    between atoms: C_10  and  O_11
REMARK    4  A    between atoms: O_11  and  P_12
REMARK    5  A    between atoms: P_12  and  O_14
REMARK    6  A    between atoms: P_12  and  O_15
REMARK    7  A    between atoms: O_15  and  P_16
REMARK    8  A    between atoms: P_16  and  O_18
REMARK    9  A    between atoms: P_16  and  O_19
REMARK   10  A    between atoms: C_20  and  O_21
REMARK                            x       y       z     vdW  Elec       q    Type
REMARK                         _______ _______ _______ _____ _____    ______ ____
ROOT
ATOM      1  C   UNL     1       0.535   9.949  18.762  0.00  0.00    +0.000 C 
ATOM      2  C   UNL     1       1.688  10.523  17.925  0.00  0.00    +0.000 C 
ATOM      3  C   UNL     1       1.438   9.062  17.913  0.00  0.00    +0.000 C 
ATOM      4  C   UNL     1       2.300   8.216  18.856  0.00  0.00    +0.000 C 
ATOM      5  C   UNL     1       1.329   8.043  20.036  0.00  0.00    +0.000 C 
ATOM      6  C   UNL     1       0.722   9.450  20.192  0.00  0.00    +0.000 C 
ENDROOT
BRANCH   1  11
ATOM      7  O   UNL     1      -4.421  12.198  18.700  0.00  0.00    +0.000 OA
ATOM      8  C   UNL     1      -3.269  11.784  18.582  0.00  0.00    +0.000 A 
ATOM      9  C   UNL     1      -2.971  10.575  17.789  0.00  0.00    +0.000 A 
ATOM     10  C   UNL     1      -1.729  10.067  17.810  0.00  0.00    +0.000 A 
ATOM     11  N   UNL     1      -0.720  10.657  18.537  0.00  0.00    +0.000 N 
ATOM     12  C   UNL     1      -0.945  11.828  19.283  0.00  0.00    +0.000 A 
ATOM     13  O   UNL     1      -0.117  12.344  20.033  0.00  0.00    +0.000 OA
ATOM     14  N   UNL     1      -2.198  12.373  19.179  0.00  0.00    +0.000 N 
ATOM     15  H   UNL     1      -2.381  13.171  19.767  0.00  0.00    +0.000 HD
ENDBRANCH   1  11
BRANCH   5  16
ATOM     16  O   UNL     1       1.971   7.584  21.209  0.00  0.00    +0.000 OA
ATOM     17  H   UNL     1       2.735   8.160  21.387  0.00  0.00    +0.000 HD
ENDBRANCH   5  16
BRANCH   4  18
ATOM     18  C   UNL     1       2.881   6.890  18.362  0.00  0.00    +0.000 C 
BRANCH  18  19
ATOM     19  O   UNL     1       3.500   6.161  19.428  0.00  0.00    +0.000 OA
BRANCH  19  20
ATOM     20  P   UNL     1       4.838   5.173  18.952  0.00  0.00    +0.000 P 
ATOM     21  O   UNL     1       4.201   3.989  19.687  0.00  0.00    +0.000 OA
BRANCH  20  22
ATOM     22  O   UNL     1       4.269   5.147  17.422  0.00  0.00    +0.000 OA
ATOM     23  H   UNL     1       3.487   5.703  17.279  0.00  0.00    +0.000 HD
ENDBRANCH  20  22
BRANCH  20  24
ATOM     24  O   UNL     1       6.176   4.184  18.478  0.00  0.00    +0.000 OA
BRANCH  24  25
ATOM     25  P   UNL     1       6.864   4.805  17.018  0.00  0.00    +0.000 P 
ATOM     26  O   UNL     1       8.241   4.218  17.337  0.00  0.00    +0.000 OA
BRANCH  25  27
ATOM     27  O   UNL     1       6.152   3.595  16.185  0.00  0.00    +0.000 OA
ATOM     28  H   UNL     1       6.803   3.291  15.522  0.00  0.00    +0.000 HD
ENDBRANCH  25  27
BRANCH  25  29
ATOM     29  O   UNL     1       7.552   5.427  15.557  0.00  0.00    +0.000 OA
ATOM     30  H   UNL     1       6.843   5.271  14.899  0.00  0.00    +0.000 HD
ENDBRANCH  25  29
ENDBRANCH  24  25
ENDBRANCH  20  24
ENDBRANCH  19  20
ENDBRANCH  18  19
ENDBRANCH   4  18
TORSDOF 10
ENDMDL
MODEL 3
REMARK VINA RESULT:      -7.2      3.532      5.988
REMARK  Name = 
REMARK  10 active torsions:
REMARK  status: ('A' for Active; 'I' for Inactive)
REMARK    1  A    between atoms: N_5  and  C_6
REMARK    2  A    between atoms: C_9  and  C_10
REMARK    3  A    between atoms: C_10  and  O_11
REMARK    4  A    between atoms: O_11  and  P_12
REMARK    5  A    between atoms: P_12  and  O_14
REMARK    6  A    between atoms: P_12  and  O_15
REMARK    7  A    between atoms: O_15  and  P_16
REMARK    8  A    between atoms: P_16  and  O_18
REMARK    9  A    between atoms: P_16  and  O_19
REMARK   10  A    between atoms: C_20  and  O_21
REMARK                            x       y       z     vdW  Elec       q    Type
REMARK                         _______ _______ _______ _____ _____    ______ ____
ROOT
ATOM      1  C   UNL     1       2.253   6.413  19.047  0.00  0.00    +0.000 C 
ATOM      2  C   UNL     1       2.419   6.057  20.532  0.00  0.00    +0.000 C 
ATOM      3  C   UNL     1       3.494   5.703  19.574  0.00  0.00    +0.000 C 
ATOM      4  C   UNL     1       3.484   4.266  19.041  0.00  0.00    +0.000 C 
ATOM      5  C   UNL     1       2.793   4.480  17.684  0.00  0.00    +0.000 C 
ATOM      6  C   UNL     1       1.648   5.450  18.029  0.00  0.00    +0.000 C 
ENDROOT
BRANCH   1  11
ATOM      7  O   UNL     1       1.618  11.808  18.703  0.00  0.00    +0.000 OA
ATOM      8  C   UNL     1       1.621  10.578  18.694  0.00  0.00    +0.000 A 
ATOM      9  C   UNL     1       0.998   9.805  19.786  0.00  0.00    +0.000 A 
ATOM     10  C   UNL     1       1.156   8.473  19.819  0.00  0.00    +0.000 A 
ATOM     11  N   UNL     1       1.869   7.806  18.849  0.00  0.00    +0.000 N 
ATOM     12  C   UNL     1       2.456   8.493  17.772  0.00  0.00    +0.000 A 
ATOM     13  O   UNL     1       3.190   7.972  16.932  0.00  0.00    +0.000 OA
ATOM     14  N   UNL     1       2.210   9.840  17.714  0.00  0.00    +0.000 N 
ATOM     15  H   UNL     1       2.687  10.344  16.983  0.00  0.00    +0.000 HD
ENDBRANCH   1  11
BRANCH   5  16
ATOM     16  O   UNL     1       2.341   3.272  17.105  0.00  0.00    +0.000 OA
ATOM     17  H   UNL     1       1.866   3.484  16.283  0.00  0.00    +0.000 HD
ENDBRANCH   5  16
BRANCH   4  18
ATOM     18  C   UNL     1       4.800   3.495  18.926  0.00  0.00    +0.000 C 
BRANCH  18  19
ATOM     19  O   UNL     1       5.928   4.344  19.170  0.00  0.00    +0.000 OA
BRANCH  19  20
ATOM     20  P   UNL     1       6.717   4.930  17.747  0.00  0.00    +0.000 P 
ATOM     21  O   UNL     1       8.055   4.434  18.306  0.00  0.00    +0.000 OA
BRANCH  20  22
ATOM     22  O   UNL     1       6.074   3.700  16.888  0.00  0.00    +0.000 OA
ATOM     23  H   UNL     1       5.577   3.059  17.421  0.00  0.00    +0.000 HD
ENDBRANCH  20  22
BRANCH  20  24
ATOM     24  O   UNL     1       7.508   5.517  16.324  0.00  0.00    +0.000 OA
BRANCH  24  25
ATOM     25  P   UNL     1       6.816   4.768  14.928  0.00  0.00    +0.000 P 
ATOM     26  O   UNL     1       5.654   5.763  14.885  0.00  0.00    +0.000 OA
BRANCH  25  27
ATOM     27  O   UNL     1       7.939   5.501  13.997  0.00  0.00    +0.000 OA
ATOM     28  H   UNL     1       7.623   6.414  13.844  0.00  0.00    +0.000 HD
ENDBRANCH  25  27
BRANCH  25  29
ATOM     29  O   UNL     1       6.124   4.017  13.531  0.00  0.00    +0.000 OA
ATOM     30  H   UNL     1       6.912   3.786  12.995  0.00  0.00    +0.000 HD
ENDBRANCH  25  29
ENDBRANCH  24  25
ENDBRANCH  20  24
ENDBRANCH  19  20
ENDBRANCH  18  19
ENDBRANCH   4  18
TORSDOF 10
ENDMDL
MODEL 4
REMARK VINA RESULT:      -7.0      4.256      6.934
REMARK  Name = 
REMARK  10 active torsions:
REMARK  status: ('A' for Active; 'I' for Inactive)
REMARK    1  A    between atoms: N_5  and  C_6
REMARK    2  A    between atoms: C_9  and  C_10
REMARK    3  A    between atoms: C_10  and  O_11
REMARK    4  A    between atoms: O_11  and  P_12
REMARK    5  A    between atoms: P_12  and  O_14
REMARK    6  A    between atoms: P_12  and  O_15
REMARK    7  A    between atoms: O_15  and  P_16
REMARK    8  A    between atoms: P_16  and  O_18
REMARK    9  A    between atoms: P_16  and  O_19
REMARK   10  A    between atoms: C_20  and  O_21
REMARK                            x       y       z     vdW  Elec       q    Type
REMARK                         _______ _______ _______ _____ _____    ______ ____
ROOT
ATOM      1  C   UNL     1       0.897   9.642  18.705  0.00  0.00    +0.000 C 
ATOM      2  C   UNL     1       2.085  10.264  17.955  0.00  0.00    +0.000 C 
ATOM      3  C   UNL     1       1.782   8.824  17.772  0.00  0.00    +0.000 C 
ATOM      4  C   UNL     1       2.595   7.844  18.623  0.00  0.00    +0.000 C 
ATOM      5  C   UNL     1       1.598   7.574  19.763  0.00  0.00    +0.000 C 
ATOM      6  C   UNL     1       1.040   8.977  20.071  0.00  0.00    +0.000 C 
ENDROOT
BRANCH   1  11
ATOM      7  O   UNL     1      -3.995  12.027  18.795  0.00  0.00    +0.000 OA
ATOM      8  C   UNL     1      -2.848  11.603  18.663  0.00  0.00    +0.000 A 
ATOM      9  C   UNL     1      -2.536  10.541  17.686  0.00  0.00    +0.000 A 
ATOM     10  C   UNL     1      -1.309   9.997  17.679  0.00  0.00    +0.000 A 
ATOM     11  N   UNL     1      -0.327  10.419  18.547  0.00  0.00    +0.000 N 
ATOM     12  C   UNL     1      -0.565  11.449  19.474  0.00  0.00    +0.000 A 
ATOM     13  O   UNL     1       0.233  11.799  20.343  0.00  0.00    +0.000 OA
ATOM     14  N   UNL     1      -1.797  12.044  19.406  0.00  0.00    +0.000 N 
ATOM     15  H   UNL     1      -1.994  12.733  20.115  0.00  0.00    +0.000 HD
ENDBRANCH   1  11
BRANCH   5  16
ATOM     16  O   UNL     1       2.202   6.960  20.884  0.00  0.00    +0.000 OA
ATOM     17  H   UNL     1       2.612   6.127  20.594  0.00  0.00    +0.000 HD
ENDBRANCH   5  16
BRANCH   4  18
ATOM     18  C   UNL     1       3.136   6.561  17.988  0.00  0.00    +0.000 C 
BRANCH  18  19
ATOM     19  O   UNL     1       2.081   5.641  17.687  0.00  0.00    +0.000 OA
BRANCH  19  20
ATOM     20  P   UNL     1       2.246   4.082  18.417  0.00  0.00    +0.000 P 
ATOM     21  O   UNL     1       1.980   3.435  17.053  0.00  0.00    +0.000 OA
BRANCH  20  22
ATOM     22  O   UNL     1       3.858   4.310  18.531  0.00  0.00    +0.000 OA
ATOM     23  H   UNL     1       4.374   3.847  17.851  0.00  0.00    +0.000 HD
ENDBRANCH  20  22
BRANCH  20  24
ATOM     24  O   UNL     1       2.410   2.522  19.146  0.00  0.00    +0.000 OA
BRANCH  24  25
ATOM     25  P   UNL     1       1.886   2.596  20.793  0.00  0.00    +0.000 P 
ATOM     26  O   UNL     1       2.542   3.961  21.011  0.00  0.00    +0.000 OA
BRANCH  25  27
ATOM     27  O   UNL     1       0.390   3.004  20.283  0.00  0.00    +0.000 OA
ATOM     28  H   UNL     1       0.180   3.867  20.692  0.00  0.00    +0.000 HD
ENDBRANCH  25  27
BRANCH  25  29
ATOM     29  O   UNL     1       1.362   2.669  22.440  0.00  0.00    +0.000 OA
ATOM     30  H   UNL     1       1.725   3.526  22.747  0.00  0.00    +0.000 HD
ENDBRANCH  25  29
ENDBRANCH  24  25
ENDBRANCH  20  24
ENDBRANCH  19  20
ENDBRANCH  18  19
ENDBRANCH   4  18
TORSDOF 10
ENDMDL
MODEL 5
REMARK VINA RESULT:      -7.0      4.267      7.017
REMARK  Name = 
REMARK  10 active torsions:
REMARK  status: ('A' for Active; 'I' for Inactive)
REMARK    1  A    between atoms: N_5  and  C_6
REMARK    2  A    between atoms: C_9  and  C_10
REMARK    3  A    between atoms: C_10  and  O_11
REMARK    4  A    between atoms: O_11  and  P_12
REMARK    5  A    between atoms: P_12  and  O_14
REMARK    6  A    between atoms: P_12  and  O_15
REMARK    7  A    between atoms: O_15  and  P_16
REMARK    8  A    between atoms: P_16  and  O_18
REMARK    9  A    between atoms: P_16  and  O_19
REMARK   10  A    between atoms: C_20  and  O_21
REMARK                            x       y       z     vdW  Elec       q    Type
REMARK                         _______ _______ _______ _____ _____    ______ ____
ROOT
ATOM      1  C   UNL     1       1.358   9.128  18.867  0.00  0.00    +0.000 C 
ATOM      2  C   UNL     1       2.527   9.568  17.972  0.00  0.00    +0.000 C 
ATOM      3  C   UNL     1       1.956   8.210  17.808  0.00  0.00    +0.000 C 
ATOM      4  C   UNL     1       2.691   7.072  18.523  0.00  0.00    +0.000 C 
ATOM      5  C   UNL     1       1.821   6.930  19.783  0.00  0.00    +0.000 C 
ATOM      6  C   UNL     1       1.561   8.393  20.189  0.00  0.00    +0.000 C 
ENDROOT
BRANCH   1  11
ATOM      7  O   UNL     1      -3.025  12.266  19.619  0.00  0.00    +0.000 OA
ATOM      8  C   UNL     1      -1.984  11.673  19.343  0.00  0.00    +0.000 A 
ATOM      9  C   UNL     1      -1.939  10.673  18.259  0.00  0.00    +0.000 A 
ATOM     10  C   UNL     1      -0.829   9.938  18.090  0.00  0.00    +0.000 A 
ATOM     11  N   UNL     1       0.277  10.107  18.890  0.00  0.00    +0.000 N 
ATOM     12  C   UNL     1       0.297  11.068  19.916  0.00  0.00    +0.000 A 
ATOM     13  O   UNL     1       1.211  11.198  20.730  0.00  0.00    +0.000 OA
ATOM     14  N   UNL     1      -0.815  11.862  20.015  0.00  0.00    +0.000 N 
ATOM     15  H   UNL     1      -0.832  12.503  20.793  0.00  0.00    +0.000 HD
ENDBRANCH   1  11
BRANCH   5  16
ATOM     16  O   UNL     1       2.452   6.177  20.801  0.00  0.00    +0.000 OA
ATOM     17  H   UNL     1       3.326   6.566  20.975  0.00  0.00    +0.000 HD
ENDBRANCH   5  16
BRANCH   4  18
ATOM     18  C   UNL     1       2.913   5.743  17.798  0.00  0.00    +0.000 C 
BRANCH  18  19
ATOM     19  O   UNL     1       3.474   4.757  18.673  0.00  0.00    +0.000 OA
BRANCH  19  20
ATOM     20  P   UNL     1       5.180   4.526  18.508  0.00  0.00    +0.000 P 
ATOM     21  O   UNL     1       5.182   3.739  19.824  0.00  0.00    +0.000 OA
BRANCH  20  22
ATOM     22  O   UNL     1       4.914   3.449  17.310  0.00  0.00    +0.000 OA
ATOM     23  H   UNL     1       4.406   3.803  16.563  0.00  0.00    +0.000 HD
ENDBRANCH  20  22
BRANCH  20  24
ATOM     24  O   UNL     1       6.887   4.294  18.345  0.00  0.00    +0.000 OA
BRANCH  24  25
ATOM     25  P   UNL     1       7.703   5.790  18.638  0.00  0.00    +0.000 P 
ATOM     26  O   UNL     1       6.439   6.610  18.372  0.00  0.00    +0.000 OA
BRANCH  25  27
ATOM     27  O   UNL     1       7.608   5.511  20.244  0.00  0.00    +0.000 OA
ATOM     28  H   UNL     1       6.807   4.968  20.387  0.00  0.00    +0.000 HD
ENDBRANCH  25  27
BRANCH  25  29
ATOM     29  O   UNL     1       8.521   7.287  18.931  0.00  0.00    +0.000 OA
ATOM     30  H   UNL     1       9.294   7.233  18.331  0.00  0.00    +0.000 HD
ENDBRANCH  25  29
ENDBRANCH  24  25
ENDBRANCH  20  24
ENDBRANCH  19  20
ENDBRANCH  18  19
ENDBRANCH   4  18
TORSDOF 10
ENDMDL
MODEL 6
REMARK VINA RESULT:      -7.0      4.695      7.427
REMARK  Name = 
REMARK  10 active torsions:
REMARK  status: ('A' for Active; 'I' for Inactive)
REMARK    1  A    between atoms: N_5  and  C_6
REMARK    2  A    between atoms: C_9  and  C_10
REMARK    3  A    between atoms: C_10  and  O_11
REMARK    4  A    between atoms: O_11  and  P_12
REMARK    5  A    between atoms: P_12  and  O_14
REMARK    6  A    between atoms: P_12  and  O_15
REMARK    7  A    between atoms: O_15  and  P_16
REMARK    8  A    between atoms: P_16  and  O_18
REMARK    9  A    between atoms: P_16  and  O_19
REMARK   10  A    between atoms: C_20  and  O_21
REMARK                            x       y       z     vdW  Elec       q    Type
REMARK                         _______ _______ _______ _____ _____    ______ ____
ROOT
ATOM      1  C   UNL     1       0.909   9.835  18.902  0.00  0.00    +0.000 C 
ATOM      2  C   UNL     1       2.057  10.399  18.051  0.00  0.00    +0.000 C 
ATOM      3  C   UNL     1       1.622   8.996  17.848  0.00  0.00    +0.000 C 
ATOM      4  C   UNL     1       2.440   7.919  18.568  0.00  0.00    +0.000 C 
ATOM      5  C   UNL     1       1.551   7.673  19.799  0.00  0.00    +0.000 C 
ATOM      6  C   UNL     1       1.143   9.098  20.219  0.00  0.00    +0.000 C 
ENDROOT
BRANCH   1  11
ATOM      7  O   UNL     1      -3.722  12.598  19.640  0.00  0.00    +0.000 OA
ATOM      8  C   UNL     1      -2.640  12.086  19.357  0.00  0.00    +0.000 A 
ATOM      9  C   UNL     1      -2.543  11.017  18.344  0.00  0.00    +0.000 A 
ATOM     10  C   UNL     1      -1.375  10.378  18.174  0.00  0.00    +0.000 A 
ATOM     11  N   UNL     1      -0.259  10.708  18.908  0.00  0.00    +0.000 N 
ATOM     12  C   UNL     1      -0.291  11.740  19.863  0.00  0.00    +0.000 A 
ATOM     13  O   UNL     1       0.639  12.014  20.621  0.00  0.00    +0.000 OA
ATOM     14  N   UNL     1      -1.469  12.432  19.958  0.00  0.00    +0.000 N 
ATOM     15  H   UNL     1      -1.516  13.125  20.689  0.00  0.00    +0.000 HD
ENDBRANCH   1  11
BRANCH   5  16
ATOM     16  O   UNL     1       2.220   6.965  20.823  0.00  0.00    +0.000 OA
ATOM     17  H   UNL     1       2.000   6.021  20.738  0.00  0.00    +0.000 HD
ENDBRANCH   5  16
BRANCH   4  18
ATOM     18  C   UNL     1       2.806   6.630  17.830  0.00  0.00    +0.000 C 
BRANCH  18  19
ATOM     19  O   UNL     1       3.952   6.001  18.414  0.00  0.00    +0.000 OA
BRANCH  19  20
ATOM     20  P   UNL     1       4.787   4.900  17.373  0.00  0.00    +0.000 P 
ATOM     21  O   UNL     1       5.638   4.447  18.564  0.00  0.00    +0.000 OA
BRANCH  20  22
ATOM     22  O   UNL     1       3.468   3.940  17.336  0.00  0.00    +0.000 OA
ATOM     23  H   UNL     1       2.679   4.332  17.745  0.00  0.00    +0.000 HD
ENDBRANCH  20  22
BRANCH  20  24
ATOM     24  O   UNL     1       5.624   3.800  16.332  0.00  0.00    +0.000 OA
BRANCH  24  25
ATOM     25  P   UNL     1       6.722   4.678  15.325  0.00  0.00    +0.000 P 
ATOM     26  O   UNL     1       6.070   6.020  15.669  0.00  0.00    +0.000 OA
BRANCH  25  27
ATOM     27  O   UNL     1       7.868   4.540  16.480  0.00  0.00    +0.000 OA
ATOM     28  H   UNL     1       8.117   3.595  16.515  0.00  0.00    +0.000 HD
ENDBRANCH  25  27
BRANCH  25  29
ATOM     29  O   UNL     1       7.821   5.556  14.318  0.00  0.00    +0.000 OA
ATOM     30  H   UNL     1       7.912   4.973  13.536  0.00  0.00    +0.000 HD
ENDBRANCH  25  29
ENDBRANCH  24  25
ENDBRANCH  20  24
ENDBRANCH  19  20
ENDBRANCH  18  19
ENDBRANCH   4  18
TORSDOF 10
ENDMDL
MODEL 7
REMARK VINA RESULT:      -6.8      3.399      6.467
REMARK  Name = 
REMARK  10 active torsions:
REMARK  status: ('A' for Active; 'I' for Inactive)
REMARK    1  A    between atoms: N_5  and  C_6
REMARK    2  A    between atoms: C_9  and  C_10
REMARK    3  A    between atoms: C_10  and  O_11
REMARK    4  A    between atoms: O_11  and  P_12
REMARK    5  A    between atoms: P_12  and  O_14
REMARK    6  A    between atoms: P_12  and  O_15
REMARK    7  A    between atoms: O_15  and  P_16
REMARK    8  A    between atoms: P_16  and  O_18
REMARK    9  A    between atoms: P_16  and  O_19
REMARK   10  A    between atoms: C_20  and  O_21
REMARK                            x       y       z     vdW  Elec       q    Type
REMARK                         _______ _______ _______ _____ _____    ______ ____
ROOT
ATOM      1  C   UNL     1       4.283   5.122  18.712  0.00  0.00    +0.000 C 
ATOM      2  C   UNL     1       3.719   6.506  18.356  0.00  0.00    +0.000 C 
ATOM      3  C   UNL     1       4.803   5.926  17.526  0.00  0.00    +0.000 C 
ATOM      4  C   UNL     1       6.228   6.386  17.849  0.00  0.00    +0.000 C 
ATOM      5  C   UNL     1       6.708   5.211  18.717  0.00  0.00    +0.000 C 
ATOM      6  C   UNL     1       5.494   4.933  19.622  0.00  0.00    +0.000 C 
ENDROOT
BRANCH   1  11
ATOM      7  O   UNL     1      -0.020   1.790  18.691  0.00  0.00    +0.000 OA
ATOM      8  C   UNL     1       1.010   2.448  18.818  0.00  0.00    +0.000 A 
ATOM      9  C   UNL     1       1.059   3.625  19.708  0.00  0.00    +0.000 A 
ATOM     10  C   UNL     1       2.151   4.406  19.703  0.00  0.00    +0.000 A 
ATOM     11  N   UNL     1       3.234   4.127  18.902  0.00  0.00    +0.000 N 
ATOM     12  C   UNL     1       3.250   3.000  18.060  0.00  0.00    +0.000 A 
ATOM     13  O   UNL     1       4.140   2.753  17.248  0.00  0.00    +0.000 OA
ATOM     14  N   UNL     1       2.161   2.173  18.146  0.00  0.00    +0.000 N 
ATOM     15  H   UNL     1       2.138   1.405  17.493  0.00  0.00    +0.000 HD
ENDBRANCH   1  11
BRANCH   5  16
ATOM     16  O   UNL     1       7.883   5.512  19.443  0.00  0.00    +0.000 OA
ATOM     17  H   UNL     1       7.846   6.445  19.715  0.00  0.00    +0.000 HD
ENDBRANCH   5  16
BRANCH   4  18
ATOM     18  C   UNL     1       7.191   6.718  16.707  0.00  0.00    +0.000 C 
BRANCH  18  19
ATOM     19  O   UNL     1       7.611   5.536  16.017  0.00  0.00    +0.000 OA
BRANCH  19  20
ATOM     20  P   UNL     1       6.602   5.072  14.690  0.00  0.00    +0.000 P 
ATOM     21  O   UNL     1       7.813   5.178  13.756  0.00  0.00    +0.000 OA
BRANCH  20  22
ATOM     22  O   UNL     1       6.569   3.541  15.256  0.00  0.00    +0.000 OA
ATOM     23  H   UNL     1       7.277   3.335  15.886  0.00  0.00    +0.000 HD
ENDBRANCH  20  22
BRANCH  20  24
ATOM     24  O   UNL     1       5.594   4.609  13.363  0.00  0.00    +0.000 OA
BRANCH  24  25
ATOM     25  P   UNL     1       6.337   3.307  12.499  0.00  0.00    +0.000 P 
ATOM     26  O   UNL     1       5.035   2.955  11.776  0.00  0.00    +0.000 OA
BRANCH  25  27
ATOM     27  O   UNL     1       7.019   4.389  11.485  0.00  0.00    +0.000 OA
ATOM     28  H   UNL     1       7.810   3.958  11.105  0.00  0.00    +0.000 HD
ENDBRANCH  25  27
BRANCH  25  29
ATOM     29  O   UNL     1       7.081   2.005  11.637  0.00  0.00    +0.000 OA
ATOM     30  H   UNL     1       6.384   1.317  11.639  0.00  0.00    +0.000 HD
ENDBRANCH  25  29
ENDBRANCH  24  25
ENDBRANCH  20  24
ENDBRANCH  19  20
ENDBRANCH  18  19
ENDBRANCH   4  18
TORSDOF 10
ENDMDL
MODEL 8
REMARK VINA RESULT:      -6.8      4.760      7.023
REMARK  Name = 
REMARK  10 active torsions:
REMARK  status: ('A' for Active; 'I' for Inactive)
REMARK    1  A    between atoms: N_5  and  C_6
REMARK    2  A    between atoms: C_9  and  C_10
REMARK    3  A    between atoms: C_10  and  O_11
REMARK    4  A    between atoms: O_11  and  P_12
REMARK    5  A    between atoms: P_12  and  O_14
REMARK    6  A    between atoms: P_12  and  O_15
REMARK    7  A    between atoms: O_15  and  P_16
REMARK    8  A    between atoms: P_16  and  O_18
REMARK    9  A    between atoms: P_16  and  O_19
REMARK   10  A    between atoms: C_20  and  O_21
REMARK                            x       y       z     vdW  Elec       q    Type
REMARK                         _______ _______ _______ _____ _____    ______ ____
ROOT
ATOM      1  C   UNL     1       0.006  10.095  18.820  0.00  0.00    +0.000 C 
ATOM      2  C   UNL     1       1.347  10.483  18.179  0.00  0.00    +0.000 C 
ATOM      3  C   UNL     1       1.100   9.070  18.553  0.00  0.00    +0.000 C 
ATOM      4  C   UNL     1       1.666   8.613  19.902  0.00  0.00    +0.000 C 
ATOM      5  C   UNL     1       0.410   8.725  20.781  0.00  0.00    +0.000 C 
ATOM      6  C   UNL     1      -0.208  10.063  20.331  0.00  0.00    +0.000 C 
ENDROOT
BRANCH   1  11
ATOM      7  O   UNL     1      -4.752  11.700  16.720  0.00  0.00    +0.000 OA
ATOM      8  C   UNL     1      -3.608  11.412  17.064  0.00  0.00    +0.000 A 
ATOM      9  C   UNL     1      -2.987  10.135  16.659  0.00  0.00    +0.000 A 
ATOM     10  C   UNL     1      -1.800   9.789  17.180  0.00  0.00    +0.000 A 
ATOM     11  N   UNL     1      -1.136  10.604  18.068  0.00  0.00    +0.000 N 
ATOM     12  C   UNL     1      -1.669  11.844  18.461  0.00  0.00    +0.000 A 
ATOM     13  O   UNL     1      -1.178  12.569  19.326  0.00  0.00    +0.000 OA
ATOM     14  N   UNL     1      -2.840  12.213  17.852  0.00  0.00    +0.000 N 
ATOM     15  H   UNL     1      -3.259  13.068  18.184  0.00  0.00    +0.000 HD
ENDBRANCH   1  11
BRANCH   5  16
ATOM     16  O   UNL     1       0.704   8.689  22.163  0.00  0.00    +0.000 OA
ATOM     17  H   UNL     1      -0.132   8.609  22.654  0.00  0.00    +0.000 HD
ENDBRANCH   5  16
BRANCH   4  18
ATOM     18  C   UNL     1       2.352   7.250  20.011  0.00  0.00    +0.000 C 
BRANCH  18  19
ATOM     19  O   UNL     1       1.513   6.294  20.669  0.00  0.00    +0.000 OA
BRANCH  19  20
ATOM     20  P   UNL     1       2.120   4.674  20.670  0.00  0.00    +0.000 P 
ATOM     21  O   UNL     1       1.282   4.379  19.421  0.00  0.00    +0.000 OA
BRANCH  20  22
ATOM     22  O   UNL     1       3.569   5.220  20.154  0.00  0.00    +0.000 OA
ATOM     23  H   UNL     1       4.283   5.129  20.805  0.00  0.00    +0.000 HD
ENDBRANCH  20  22
BRANCH  20  24
ATOM     24  O   UNL     1       2.725   3.053  20.671  0.00  0.00    +0.000 OA
BRANCH  24  25
ATOM     25  P   UNL     1       3.626   2.772  19.221  0.00  0.00    +0.000 P 
ATOM     26  O   UNL     1       4.769   2.097  19.983  0.00  0.00    +0.000 OA
BRANCH  25  27
ATOM     27  O   UNL     1       2.645   1.514  18.873  0.00  0.00    +0.000 OA
ATOM     28  H   UNL     1       2.741   0.874  19.606  0.00  0.00    +0.000 HD
ENDBRANCH  25  27
BRANCH  25  29
ATOM     29  O   UNL     1       4.527   2.492  17.771  0.00  0.00    +0.000 OA
ATOM     30  H   UNL     1       4.320   3.283  17.230  0.00  0.00    +0.000 HD
ENDBRANCH  25  29
ENDBRANCH  24  25
ENDBRANCH  20  24
ENDBRANCH  19  20
ENDBRANCH  18  19
ENDBRANCH   4  18
TORSDOF 10
ENDMDL
MODEL 9
REMARK VINA RESULT:      -6.8      4.447      7.325
REMARK  Name = 
REMARK  10 active torsions:
REMARK  status: ('A' for Active; 'I' for Inactive)
REMARK    1  A    between atoms: N_5  and  C_6
REMARK    2  A    between atoms: C_9  and  C_10
REMARK    3  A    between atoms: C_10  and  O_11
REMARK    4  A    between atoms: O_11  and  P_12
REMARK    5  A    between atoms: P_12  and  O_14
REMARK    6  A    between atoms: P_12  and  O_15
REMARK    7  A    between atoms: O_15  and  P_16
REMARK    8  A    between atoms: P_16  and  O_18
REMARK    9  A    between atoms: P_16  and  O_19
REMARK   10  A    between atoms: C_20  and  O_21
REMARK                            x       y       z     vdW  Elec       q    Type
REMARK                         _______ _______ _______ _____ _____    ______ ____
ROOT
ATOM      1  C   UNL     1       1.176   9.434  19.086  0.00  0.00    +0.000 C 
ATOM      2  C   UNL     1       2.321   9.811  18.133  0.00  0.00    +0.000 C 
ATOM      3  C   UNL     1       1.669   8.486  17.999  0.00  0.00    +0.000 C 
ATOM      4  C   UNL     1       2.376   7.308  18.677  0.00  0.00    +0.000 C 
ATOM      5  C   UNL     1       1.565   7.212  19.980  0.00  0.00    +0.000 C 
ATOM      6  C   UNL     1       1.406   8.687  20.397  0.00  0.00    +0.000 C 
ENDROOT
BRANCH   1  11
ATOM      7  O   UNL     1      -2.966  12.822  20.076  0.00  0.00    +0.000 OA
ATOM      8  C   UNL     1      -1.981  12.168  19.740  0.00  0.00    +0.000 A 
ATOM      9  C   UNL     1      -2.071  11.142  18.682  0.00  0.00    +0.000 A 
ATOM     10  C   UNL     1      -1.017  10.344  18.451  0.00  0.00    +0.000 A 
ATOM     11  N   UNL     1       0.154  10.470  19.163  0.00  0.00    +0.000 N 
ATOM     12  C   UNL     1       0.300  11.452  20.159  0.00  0.00    +0.000 A 
ATOM     13  O   UNL     1       1.279  11.550  20.899  0.00  0.00    +0.000 OA
ATOM     14  N   UNL     1      -0.758  12.308  20.318  0.00  0.00    +0.000 N 
ATOM     15  H   UNL     1      -0.682  12.966  21.078  0.00  0.00    +0.000 HD
ENDBRANCH   1  11
BRANCH   5  16
ATOM     16  O   UNL     1       2.204   6.424  20.965  0.00  0.00    +0.000 OA
ATOM     17  H   UNL     1       2.508   5.599  20.550  0.00  0.00    +0.000 HD
ENDBRANCH   5  16
BRANCH   4  18
ATOM     18  C   UNL     1       2.488   5.970  17.944  0.00  0.00    +0.000 C 
BRANCH  18  19
ATOM     19  O   UNL     1       3.265   5.028  18.690  0.00  0.00    +0.000 OA
BRANCH  19  20
ATOM     20  P   UNL     1       4.937   4.953  18.250  0.00  0.00    +0.000 P 
ATOM     21  O   UNL     1       5.313   5.348  19.683  0.00  0.00    +0.000 OA
BRANCH  20  22
ATOM     22  O   UNL     1       4.850   3.324  18.212  0.00  0.00    +0.000 OA
ATOM     23  H   UNL     1       5.656   2.890  17.890  0.00  0.00    +0.000 HD
ENDBRANCH  20  22
BRANCH  20  24
ATOM     24  O   UNL     1       6.608   4.880  17.811  0.00  0.00    +0.000 OA
BRANCH  24  25
ATOM     25  P   UNL     1       7.189   6.475  17.479  0.00  0.00    +0.000 P 
ATOM     26  O   UNL     1       7.589   6.105  16.049  0.00  0.00    +0.000 OA
BRANCH  25  27
ATOM     27  O   UNL     1       5.648   6.981  17.291  0.00  0.00    +0.000 OA
ATOM     28  H   UNL     1       5.444   7.550  18.059  0.00  0.00    +0.000 HD
ENDBRANCH  25  27
BRANCH  25  29
ATOM     29  O   UNL     1       7.769   8.071  17.147  0.00  0.00    +0.000 OA
ATOM     30  H   UNL     1       7.016   8.483  16.674  0.00  0.00    +0.000 HD
ENDBRANCH  25  29
ENDBRANCH  24  25
ENDBRANCH  20  24
ENDBRANCH  19  20
ENDBRANCH  18  19
ENDBRANCH   4  18
TORSDOF 10
ENDMDL
