MODEL 1
REMARK VINA RESULT:      -7.8      0.000      0.000
REMARK  Name = 
REMARK  12 active torsions:
REMARK  status: ('A' for Active; 'I' for Inactive)
REMARK    1  A    between atoms: C_1  and  C_2
REMARK    2  A    between atoms: C_4  and  C_5
REMARK    3  A    between atoms: N_7  and  C_8
REMARK    4  A    between atoms: C_11  and  C_12
REMARK    5  A    between atoms: C_12  and  N_13
REMARK    6  A    between atoms: N_22  and  C_23
REMARK    7  A    between atoms: C_23  and  C_24
REMARK    8  A    between atoms: C_30  and  O_31
REMARK    9  A    between atoms: O_31  and  C_32
REMARK   10  A    between atoms: C_32  and  C_33
REMARK   11  A    between atoms: C_33  and  C_34
REMARK   12  A    between atoms: C_33  and  C_35
REMARK                            x       y       z     vdW  Elec       q    Type
REMARK                         _______ _______ _______ _____ _____    ______ ____
ROOT
ATOM      1  C   UNL     1      -3.090  12.720  23.920  0.00  0.00    +0.000 C 
ATOM      2  C   UNL     1      -2.229  12.155  22.852  0.00  0.00    +0.000 A 
ATOM      3  C   UNL     1      -1.253  11.200  22.976  0.00  0.00    +0.000 A 
ATOM      4  C   UNL     1      -0.686  11.040  21.685  0.00  0.00    +0.000 A 
ATOM      5  N   UNL     1      -1.327  11.814  20.781  0.00  0.00    +0.000 NA
ATOM      6  N   UNL     1      -2.200  12.567  21.532  0.00  0.00    +0.000 N 
ENDROOT
BRANCH   4   7
ATOM      7  C   UNL     1       0.476  10.173  21.388  0.00  0.00    +0.000 C 
ATOM      8  O   UNL     1       1.342   9.985  22.239  0.00  0.00    +0.000 OA
ATOM      9  N   UNL     1       0.495   9.674  20.101  0.00  0.00    +0.000 N 
ATOM     10  H   UNL     1      -0.257  10.016  19.509  0.00  0.00    +0.000 HD
BRANCH   9  11
ATOM     11  C   UNL     1       1.417   8.751  19.559  0.00  0.00    +0.000 A 
ATOM     12  C   UNL     1       1.854   7.604  20.228  0.00  0.00    +0.000 A 
ATOM     13  C   UNL     1       2.675   6.663  19.584  0.00  0.00    +0.000 A 
ATOM     14  C   UNL     1       3.089   6.856  18.262  0.00  0.00    +0.000 A 
ATOM     15  C   UNL     1       2.729   8.057  17.633  0.00  0.00    +0.000 A 
ATOM     16  C   UNL     1       1.890   8.984  18.266  0.00  0.00    +0.000 A 
BRANCH  14  17
ATOM     17  C   UNL     1       3.954   5.840  17.547  0.00  0.00    +0.000 C 
BRANCH  17  18
ATOM     18  N   UNL     1       5.070   6.302  16.719  0.00  0.00    +0.000 NA
ATOM     19  C   UNL     1       5.429   5.510  15.540  0.00  0.00    +0.000 C 
ATOM     20  C   UNL     1       6.525   4.452  15.772  0.00  0.00    +0.000 C 
ATOM     21  O   UNL     1       7.671   4.981  16.448  0.00  0.00    +0.000 OA
ATOM     22  C   UNL     1       7.318   5.655  17.661  0.00  0.00    +0.000 C 
ATOM     23  C   UNL     1       6.275   6.752  17.418  0.00  0.00    +0.000 C 
ENDBRANCH  17  18
ENDBRANCH  14  17
ENDBRANCH   9  11
ENDBRANCH   4   7
BRANCH   6  24
ATOM     24  C   UNL     1      -2.817  13.779  20.936  0.00  0.00    +0.000 C 
BRANCH  24  25
ATOM     25  C   UNL     1      -4.299  13.941  21.287  0.00  0.00    +0.000 A 
ATOM     26  C   UNL     1      -4.685  15.135  21.979  0.00  0.00    +0.000 A 
ATOM     27  C   UNL     1      -6.013  15.430  22.273  0.00  0.00    +0.000 A 
ATOM     28 CL   UNL     1      -6.398  16.882  23.107  0.00  0.00    +0.000 Cl
ATOM     29  C   UNL     1      -7.007  14.569  21.888  0.00  0.00    +0.000 A 
ATOM     30  C   UNL     1      -6.673  13.395  21.215  0.00  0.00    +0.000 A 
ATOM     31  C   UNL     1      -5.327  13.056  20.900  0.00  0.00    +0.000 A 
BRANCH  31  32
ATOM     32  O   UNL     1      -5.030  11.875  20.217  0.00  0.00    +0.000 OA
BRANCH  32  33
ATOM     33  C   UNL     1      -4.978  12.037  18.776  0.00  0.00    +0.000 C 
BRANCH  33  34
ATOM     34  C   UNL     1      -6.166  11.503  17.965  0.00  0.00    +0.000 C 
ATOM     35  C   UNL     1      -6.849  10.327  18.654  0.00  0.00    +0.000 C 
ATOM     36  C   UNL     1      -7.157  12.609  17.611  0.00  0.00    +0.000 C 
ENDBRANCH  33  34
ENDBRANCH  32  33
ENDBRANCH  31  32
ENDBRANCH  24  25
ENDBRANCH   6  24
TORSDOF 9
ENDMDL
MODEL 2
REMARK VINA RESULT:      -7.8      2.001      2.534
REMARK  Name = 
REMARK  12 active torsions:
REMARK  status: ('A' for Active; 'I' for Inactive)
REMARK    1  A    between atoms: C_1  and  C_2
REMARK    2  A    between atoms: C_4  and  C_5
REMARK    3  A    between atoms: N_7  and  C_8
REMARK    4  A    between atoms: C_11  and  C_12
REMARK    5  A    between atoms: C_12  and  N_13
REMARK    6  A    between atoms: N_22  and  C_23
REMARK    7  A    between atoms: C_23  and  C_24
REMARK    8  A    between atoms: C_30  and  O_31
REMARK    9  A    between atoms: O_31  and  C_32
REMARK   10  A    between atoms: C_32  and  C_33
REMARK   11  A    between atoms: C_33  and  C_34
REMARK   12  A    between atoms: C_33  and  C_35
REMARK                            x       y       z     vdW  Elec       q    Type
REMARK                         _______ _______ _______ _____ _____    ______ ____
ROOT
ATOM      1  C   UNL     1      -1.101  13.727  23.025  0.00  0.00    +0.000 C 
ATOM      2  C   UNL     1      -0.910  12.837  21.854  0.00  0.00    +0.000 A 
ATOM      3  C   UNL     1       0.195  12.089  21.537  0.00  0.00    +0.000 A 
ATOM      4  C   UNL     1      -0.094  11.455  20.301  0.00  0.00    +0.000 A 
ATOM      5  N   UNL     1      -1.352  11.743  19.898  0.00  0.00    +0.000 NA
ATOM      6  N   UNL     1      -1.800  12.672  20.809  0.00  0.00    +0.000 N 
ENDROOT
BRANCH   4   7
ATOM      7  C   UNL     1       0.871  10.629  19.544  0.00  0.00    +0.000 C 
ATOM      8  O   UNL     1       1.612  11.148  18.712  0.00  0.00    +0.000 OA
ATOM      9  N   UNL     1       0.807   9.280  19.830  0.00  0.00    +0.000 N 
ATOM     10  H   UNL     1       0.066   9.023  20.475  0.00  0.00    +0.000 HD
BRANCH   9  11
ATOM     11  C   UNL     1       1.660   8.264  19.341  0.00  0.00    +0.000 A 
ATOM     12  C   UNL     1       2.144   7.212  20.122  0.00  0.00    +0.000 A 
ATOM     13  C   UNL     1       2.885   6.167  19.546  0.00  0.00    +0.000 A 
ATOM     14  C   UNL     1       3.171   6.159  18.176  0.00  0.00    +0.000 A 
ATOM     15  C   UNL     1       2.768   7.269  17.418  0.00  0.00    +0.000 A 
ATOM     16  C   UNL     1       2.007   8.299  17.988  0.00  0.00    +0.000 A 
BRANCH  14  17
ATOM     17  C   UNL     1       3.948   5.029  17.536  0.00  0.00    +0.000 C 
BRANCH  17  18
ATOM     18  N   UNL     1       4.989   5.339  16.554  0.00  0.00    +0.000 NA
ATOM     19  C   UNL     1       6.043   4.347  16.327  0.00  0.00    +0.000 C 
ATOM     20  C   UNL     1       7.312   4.533  17.181  0.00  0.00    +0.000 C 
ATOM     21  O   UNL     1       7.808   5.876  17.148  0.00  0.00    +0.000 OA
ATOM     22  C   UNL     1       6.796   6.832  17.485  0.00  0.00    +0.000 C 
ATOM     23  C   UNL     1       5.558   6.688  16.591  0.00  0.00    +0.000 C 
ENDBRANCH  17  18
ENDBRANCH  14  17
ENDBRANCH   9  11
ENDBRANCH   4   7
BRANCH   6  24
ATOM     24  C   UNL     1      -3.000  13.486  20.489  0.00  0.00    +0.000 C 
BRANCH  24  25
ATOM     25  C   UNL     1      -4.241  12.642  20.184  0.00  0.00    +0.000 A 
ATOM     26  C   UNL     1      -5.270  12.599  21.180  0.00  0.00    +0.000 A 
ATOM     27  C   UNL     1      -6.477  11.937  20.978  0.00  0.00    +0.000 A 
ATOM     28 CL   UNL     1      -7.662  11.928  22.221  0.00  0.00    +0.000 Cl
ATOM     29  C   UNL     1      -6.720  11.304  19.787  0.00  0.00    +0.000 A 
ATOM     30  C   UNL     1      -5.743  11.320  18.792  0.00  0.00    +0.000 A 
ATOM     31  C   UNL     1      -4.495  11.982  18.962  0.00  0.00    +0.000 A 
BRANCH  31  32
ATOM     32  O   UNL     1      -3.543  11.986  17.940  0.00  0.00    +0.000 OA
BRANCH  32  33
ATOM     33  C   UNL     1      -3.985  11.308  16.735  0.00  0.00    +0.000 C 
BRANCH  33  34
ATOM     34  C   UNL     1      -3.196  10.068  16.297  0.00  0.00    +0.000 C 
ATOM     35  C   UNL     1      -2.991  10.021  14.787  0.00  0.00    +0.000 C 
ATOM     36  C   UNL     1      -1.877   9.935  17.054  0.00  0.00    +0.000 C 
ENDBRANCH  33  34
ENDBRANCH  32  33
ENDBRANCH  31  32
ENDBRANCH  24  25
ENDBRANCH   6  24
TORSDOF 9
ENDMDL
MODEL 3
REMARK VINA RESULT:      -7.7      4.149     11.823
REMARK  Name = 
REMARK  12 active torsions:
REMARK  status: ('A' for Active; 'I' for Inactive)
REMARK    1  A    between atoms: C_1  and  C_2
REMARK    2  A    between atoms: C_4  and  C_5
REMARK    3  A    between atoms: N_7  and  C_8
REMARK    4  A    between atoms: C_11  and  C_12
REMARK    5  A    between atoms: C_12  and  N_13
REMARK    6  A    between atoms: N_22  and  C_23
REMARK    7  A    between atoms: C_23  and  C_24
REMARK    8  A    between atoms: C_30  and  O_31
REMARK    9  A    between atoms: O_31  and  C_32
REMARK   10  A    between atoms: C_32  and  C_33
REMARK   11  A    between atoms: C_33  and  C_34
REMARK   12  A    between atoms: C_33  and  C_35
REMARK                            x       y       z     vdW  Elec       q    Type
REMARK                         _______ _______ _______ _____ _____    ______ ____
ROOT
ATOM      1  C   UNL     1       4.451   7.424  16.624  0.00  0.00    +0.000 C 
ATOM      2  C   UNL     1       3.377   7.698  17.610  0.00  0.00    +0.000 A 
ATOM      3  C   UNL     1       2.536   8.780  17.661  0.00  0.00    +0.000 A 
ATOM      4  C   UNL     1       1.728   8.603  18.813  0.00  0.00    +0.000 A 
ATOM      5  N   UNL     1       2.008   7.428  19.419  0.00  0.00    +0.000 NA
ATOM      6  N   UNL     1       3.091   6.935  18.728  0.00  0.00    +0.000 N 
ENDROOT
BRANCH   4   7
ATOM      7  C   UNL     1       0.746   9.596  19.300  0.00  0.00    +0.000 C 
ATOM      8  O   UNL     1      -0.158   9.987  18.565  0.00  0.00    +0.000 OA
ATOM      9  N   UNL     1       0.984  10.043  20.585  0.00  0.00    +0.000 N 
ATOM     10  H   UNL     1       1.834   9.679  21.004  0.00  0.00    +0.000 HD
BRANCH   9  11
ATOM     11  C   UNL     1       0.172  10.912  21.348  0.00  0.00    +0.000 A 
ATOM     12  C   UNL     1      -0.726  10.478  22.327  0.00  0.00    +0.000 A 
ATOM     13  C   UNL     1      -1.411  11.399  23.137  0.00  0.00    +0.000 A 
ATOM     14  C   UNL     1      -1.224  12.776  22.975  0.00  0.00    +0.000 A 
ATOM     15  C   UNL     1      -0.400  13.205  21.924  0.00  0.00    +0.000 A 
ATOM     16  C   UNL     1       0.304  12.285  21.133  0.00  0.00    +0.000 A 
BRANCH  14  17
ATOM     17  C   UNL     1      -1.938  13.781  23.854  0.00  0.00    +0.000 C 
BRANCH  17  18
ATOM     18  N   UNL     1      -2.444  15.021  23.264  0.00  0.00    +0.000 NA
ATOM     19  C   UNL     1      -2.013  16.292  23.851  0.00  0.00    +0.000 C 
ATOM     20  C   UNL     1      -2.948  16.862  24.935  0.00  0.00    +0.000 C 
ATOM     21  O   UNL     1      -4.320  16.885  24.525  0.00  0.00    +0.000 OA
ATOM     22  C   UNL     1      -4.764  15.606  24.059  0.00  0.00    +0.000 C 
ATOM     23  C   UNL     1      -3.870  15.068  22.936  0.00  0.00    +0.000 C 
ENDBRANCH  17  18
ENDBRANCH  14  17
ENDBRANCH   9  11
ENDBRANCH   4   7
BRANCH   6  24
ATOM     24  C   UNL     1       3.900   5.842  19.325  0.00  0.00    +0.000 C 
BRANCH  24  25
ATOM     25  C   UNL     1       3.197   4.482  19.295  0.00  0.00    +0.000 A 
ATOM     26  C   UNL     1       2.589   4.028  20.511  0.00  0.00    +0.000 A 
ATOM     27  C   UNL     1       1.851   2.851  20.582  0.00  0.00    +0.000 A 
ATOM     28 CL   UNL     1       1.153   2.372  22.077  0.00  0.00    +0.000 Cl
ATOM     29  C   UNL     1       1.672   2.086  19.459  0.00  0.00    +0.000 A 
ATOM     30  C   UNL     1       2.249   2.491  18.256  0.00  0.00    +0.000 A 
ATOM     31  C   UNL     1       3.015   3.685  18.145  0.00  0.00    +0.000 A 
BRANCH  31  32
ATOM     32  O   UNL     1       3.571   4.065  16.921  0.00  0.00    +0.000 OA
BRANCH  32  33
ATOM     33  C   UNL     1       4.992   3.790  16.820  0.00  0.00    +0.000 C 
BRANCH  33  34
ATOM     34  C   UNL     1       5.793   4.600  15.793  0.00  0.00    +0.000 C 
ATOM     35  C   UNL     1       7.294   4.541  16.059  0.00  0.00    +0.000 C 
ATOM     36  C   UNL     1       5.453   4.199  14.360  0.00  0.00    +0.000 C 
ENDBRANCH  33  34
ENDBRANCH  32  33
ENDBRANCH  31  32
ENDBRANCH  24  25
ENDBRANCH   6  24
TORSDOF 9
ENDMDL
MODEL 4
REMARK VINA RESULT:      -7.6      8.675     10.985
REMARK  Name = 
REMARK  12 active torsions:
REMARK  status: ('A' for Active; 'I' for Inactive)
REMARK    1  A    between atoms: C_1  and  C_2
REMARK    2  A    between atoms: C_4  and  C_5
REMARK    3  A    between atoms: N_7  and  C_8
REMARK    4  A    between atoms: C_11  and  C_12
REMARK    5  A    between atoms: C_12  and  N_13
REMARK    6  A    between atoms: N_22  and  C_23
REMARK    7  A    between atoms: C_23  and  C_24
REMARK    8  A    between atoms: C_30  and  O_31
REMARK    9  A    between atoms: O_31  and  C_32
REMARK   10  A    between atoms: C_32  and  C_33
REMARK   11  A    between atoms: C_33  and  C_34
REMARK   12  A    between atoms: C_33  and  C_35
REMARK                            x       y       z     vdW  Elec       q    Type
REMARK                         _______ _______ _______ _____ _____    ______ ____
ROOT
ATOM      1  C   UNL     1      12.051  12.715  18.443  0.00  0.00    +0.000 C 
ATOM      2  C   UNL     1      10.983  11.749  18.798  0.00  0.00    +0.000 A 
ATOM      3  C   UNL     1      10.296  10.908  17.960  0.00  0.00    +0.000 A 
ATOM      4  C   UNL     1       9.350  10.226  18.767  0.00  0.00    +0.000 A 
ATOM      5  N   UNL     1       9.485  10.579  20.065  0.00  0.00    +0.000 NA
ATOM      6  N   UNL     1      10.420  11.588  20.051  0.00  0.00    +0.000 N 
ENDROOT
BRANCH   4   7
ATOM      7  C   UNL     1       8.329   9.292  18.244  0.00  0.00    +0.000 C 
ATOM      8  O   UNL     1       7.423   9.705  17.524  0.00  0.00    +0.000 OA
ATOM      9  N   UNL     1       8.479   7.990  18.677  0.00  0.00    +0.000 N 
ATOM     10  H   UNL     1       9.232   7.856  19.346  0.00  0.00    +0.000 HD
BRANCH   9  11
ATOM     11  C   UNL     1       7.723   6.866  18.275  0.00  0.00    +0.000 A 
ATOM     12  C   UNL     1       7.404   5.800  19.121  0.00  0.00    +0.000 A 
ATOM     13  C   UNL     1       6.544   4.774  18.695  0.00  0.00    +0.000 A 
ATOM     14  C   UNL     1       5.996   4.784  17.408  0.00  0.00    +0.000 A 
ATOM     15  C   UNL     1       6.400   5.804  16.533  0.00  0.00    +0.000 A 
ATOM     16  C   UNL     1       7.238   6.841  16.966  0.00  0.00    +0.000 A 
BRANCH  14  17
ATOM     17  C   UNL     1       5.049   3.698  16.942  0.00  0.00    +0.000 C 
BRANCH  17  18
ATOM     18  N   UNL     1       3.607   3.881  17.112  0.00  0.00    +0.000 NA
ATOM     19  C   UNL     1       3.141   5.066  17.836  0.00  0.00    +0.000 C 
ATOM     20  C   UNL     1       2.918   4.865  19.347  0.00  0.00    +0.000 C 
ATOM     21  O   UNL     1       2.138   3.701  19.641  0.00  0.00    +0.000 OA
ATOM     22  C   UNL     1       2.669   2.525  19.020  0.00  0.00    +0.000 C 
ATOM     23  C   UNL     1       2.829   2.704  17.506  0.00  0.00    +0.000 C 
ENDBRANCH  17  18
ENDBRANCH  14  17
ENDBRANCH   9  11
ENDBRANCH   4   7
BRANCH   6  24
ATOM     24  C   UNL     1      10.565  12.465  21.241  0.00  0.00    +0.000 C 
BRANCH  24  25
ATOM     25  C   UNL     1       9.358  13.380  21.469  0.00  0.00    +0.000 A 
ATOM     26  C   UNL     1       9.288  14.585  20.697  0.00  0.00    +0.000 A 
ATOM     27  C   UNL     1       8.198  15.447  20.758  0.00  0.00    +0.000 A 
ATOM     28 CL   UNL     1       8.188  16.876  19.802  0.00  0.00    +0.000 Cl
ATOM     29  C   UNL     1       7.134  15.151  21.568  0.00  0.00    +0.000 A 
ATOM     30  C   UNL     1       7.163  13.989  22.337  0.00  0.00    +0.000 A 
ATOM     31  C   UNL     1       8.261  13.084  22.307  0.00  0.00    +0.000 A 
BRANCH  31  32
ATOM     32  O   UNL     1       8.252  11.924  23.085  0.00  0.00    +0.000 OA
BRANCH  32  33
ATOM     33  C   UNL     1       8.436  12.175  24.502  0.00  0.00    +0.000 C 
BRANCH  33  34
ATOM     34  C   UNL     1       7.351  11.657  25.454  0.00  0.00    +0.000 C 
ATOM     35  C   UNL     1       7.130  12.593  26.637  0.00  0.00    +0.000 C 
ATOM     36  C   UNL     1       6.049  11.349  24.721  0.00  0.00    +0.000 C 
ENDBRANCH  33  34
ENDBRANCH  32  33
ENDBRANCH  31  32
ENDBRANCH  24  25
ENDBRANCH   6  24
TORSDOF 9
ENDMDL
MODEL 5
REMARK VINA RESULT:      -7.6      3.580     11.899
REMARK  Name = 
REMARK  12 active torsions:
REMARK  status: ('A' for Active; 'I' for Inactive)
REMARK    1  A    between atoms: C_1  and  C_2
REMARK    2  A    between atoms: C_4  and  C_5
REMARK    3  A    between atoms: N_7  and  C_8
REMARK    4  A    between atoms: C_11  and  C_12
REMARK    5  A    between atoms: C_12  and  N_13
REMARK    6  A    between atoms: N_22  and  C_23
REMARK    7  A    between atoms: C_23  and  C_24
REMARK    8  A    between atoms: C_30  and  O_31
REMARK    9  A    between atoms: O_31  and  C_32
REMARK   10  A    between atoms: C_32  and  C_33
REMARK   11  A    between atoms: C_33  and  C_34
REMARK   12  A    between atoms: C_33  and  C_35
REMARK                            x       y       z     vdW  Elec       q    Type
REMARK                         _______ _______ _______ _____ _____    ______ ____
ROOT
ATOM      1  C   UNL     1       2.896   8.236  17.446  0.00  0.00    +0.000 C 
ATOM      2  C   UNL     1       2.153   8.225  18.729  0.00  0.00    +0.000 A 
ATOM      3  C   UNL     1       1.261   9.158  19.193  0.00  0.00    +0.000 A 
ATOM      4  C   UNL     1       0.865   8.724  20.484  0.00  0.00    +0.000 A 
ATOM      5  N   UNL     1       1.436   7.536  20.786  0.00  0.00    +0.000 NA
ATOM      6  N   UNL     1       2.301   7.297  19.743  0.00  0.00    +0.000 N 
ENDROOT
BRANCH   4   7
ATOM      7  C   UNL     1      -0.018   9.494  21.386  0.00  0.00    +0.000 C 
ATOM      8  O   UNL     1      -0.305   9.055  22.497  0.00  0.00    +0.000 OA
ATOM      9  N   UNL     1      -0.494  10.671  20.843  0.00  0.00    +0.000 N 
ATOM     10  H   UNL     1      -0.226  10.823  19.875  0.00  0.00    +0.000 HD
BRANCH   9  11
ATOM     11  C   UNL     1      -1.273  11.655  21.492  0.00  0.00    +0.000 A 
ATOM     12  C   UNL     1      -1.251  11.880  22.871  0.00  0.00    +0.000 A 
ATOM     13  C   UNL     1      -1.954  12.956  23.437  0.00  0.00    +0.000 A 
ATOM     14  C   UNL     1      -2.707  13.823  22.638  0.00  0.00    +0.000 A 
ATOM     15  C   UNL     1      -2.805  13.531  21.269  0.00  0.00    +0.000 A 
ATOM     16  C   UNL     1      -2.083  12.472  20.700  0.00  0.00    +0.000 A 
BRANCH  14  17
ATOM     17  C   UNL     1      -3.452  15.000  23.230  0.00  0.00    +0.000 C 
BRANCH  17  18
ATOM     18  N   UNL     1      -4.831  14.822  23.688  0.00  0.00    +0.000 NA
ATOM     19  C   UNL     1      -5.354  13.457  23.789  0.00  0.00    +0.000 C 
ATOM     20  C   UNL     1      -6.095  12.946  22.539  0.00  0.00    +0.000 C 
ATOM     21  O   UNL     1      -7.074  13.874  22.058  0.00  0.00    +0.000 OA
ATOM     22  C   UNL     1      -6.523  15.180  21.853  0.00  0.00    +0.000 C 
ATOM     23  C   UNL     1      -5.842  15.715  23.118  0.00  0.00    +0.000 C 
ENDBRANCH  17  18
ENDBRANCH  14  17
ENDBRANCH   9  11
ENDBRANCH   4   7
BRANCH   6  24
ATOM     24  C   UNL     1       3.362   6.269  19.897  0.00  0.00    +0.000 C 
BRANCH  24  25
ATOM     25  C   UNL     1       3.157   5.047  18.996  0.00  0.00    +0.000 A 
ATOM     26  C   UNL     1       2.030   4.207  19.272  0.00  0.00    +0.000 A 
ATOM     27  C   UNL     1       1.695   3.121  18.469  0.00  0.00    +0.000 A 
ATOM     28 CL   UNL     1       0.328   2.158  18.865  0.00  0.00    +0.000 Cl
ATOM     29  C   UNL     1       2.448   2.830  17.362  0.00  0.00    +0.000 A 
ATOM     30  C   UNL     1       3.555   3.621  17.060  0.00  0.00    +0.000 A 
ATOM     31  C   UNL     1       3.933   4.737  17.859  0.00  0.00    +0.000 A 
BRANCH  31  32
ATOM     32  O   UNL     1       5.043   5.514  17.521  0.00  0.00    +0.000 OA
BRANCH  32  33
ATOM     33  C   UNL     1       5.190   5.724  16.093  0.00  0.00    +0.000 C 
BRANCH  33  34
ATOM     34  C   UNL     1       6.432   5.128  15.419  0.00  0.00    +0.000 C 
ATOM     35  C   UNL     1       7.382   4.489  16.426  0.00  0.00    +0.000 C 
ATOM     36  C   UNL     1       6.062   4.164  14.294  0.00  0.00    +0.000 C 
ENDBRANCH  33  34
ENDBRANCH  32  33
ENDBRANCH  31  32
ENDBRANCH  24  25
ENDBRANCH   6  24
TORSDOF 9
ENDMDL
MODEL 6
REMARK VINA RESULT:      -7.6      1.898      2.842
REMARK  Name = 
REMARK  12 active torsions:
REMARK  status: ('A' for Active; 'I' for Inactive)
REMARK    1  A    between atoms: C_1  and  C_2
REMARK    2  A    between atoms: C_4  and  C_5
REMARK    3  A    between atoms: N_7  and  C_8
REMARK    4  A    between atoms: C_11  and  C_12
REMARK    5  A    between atoms: C_12  and  N_13
REMARK    6  A    between atoms: N_22  and  C_23
REMARK    7  A    between atoms: C_23  and  C_24
REMARK    8  A    between atoms: C_30  and  O_31
REMARK    9  A    between atoms: O_31  and  C_32
REMARK   10  A    between atoms: C_32  and  C_33
REMARK   11  A    between atoms: C_33  and  C_34
REMARK   12  A    between atoms: C_33  and  C_35
REMARK                            x       y       z     vdW  Elec       q    Type
REMARK                         _______ _______ _______ _____ _____    ______ ____
ROOT
ATOM      1  C   UNL     1       0.240  14.515  21.858  0.00  0.00    +0.000 C 
ATOM      2  C   UNL     1      -0.099  13.078  21.997  0.00  0.00    +0.000 A 
ATOM      3  C   UNL     1       0.502  12.008  21.385  0.00  0.00    +0.000 A 
ATOM      4  C   UNL     1      -0.215  10.856  21.800  0.00  0.00    +0.000 A 
ATOM      5  N   UNL     1      -1.182  11.187  22.685  0.00  0.00    +0.000 NA
ATOM      6  N   UNL     1      -1.163  12.563  22.714  0.00  0.00    +0.000 N 
ENDROOT
BRANCH   4   7
ATOM      7  C   UNL     1       0.041   9.490  21.293  0.00  0.00    +0.000 C 
ATOM      8  O   UNL     1      -0.699   8.562  21.612  0.00  0.00    +0.000 OA
ATOM      9  N   UNL     1       1.172   9.380  20.510  0.00  0.00    +0.000 N 
ATOM     10  H   UNL     1       1.713  10.236  20.434  0.00  0.00    +0.000 HD
BRANCH   9  11
ATOM     11  C   UNL     1       1.617   8.234  19.813  0.00  0.00    +0.000 A 
ATOM     12  C   UNL     1       1.885   8.213  18.442  0.00  0.00    +0.000 A 
ATOM     13  C   UNL     1       2.444   7.076  17.833  0.00  0.00    +0.000 A 
ATOM     14  C   UNL     1       2.733   5.930  18.582  0.00  0.00    +0.000 A 
ATOM     15  C   UNL     1       2.368   5.924  19.936  0.00  0.00    +0.000 A 
ATOM     16  C   UNL     1       1.834   7.067  20.548  0.00  0.00    +0.000 A 
BRANCH  14  17
ATOM     17  C   UNL     1       3.357   4.706  17.946  0.00  0.00    +0.000 C 
BRANCH  17  18
ATOM     18  N   UNL     1       4.812   4.633  17.804  0.00  0.00    +0.000 NA
ATOM     19  C   UNL     1       5.603   5.810  18.172  0.00  0.00    +0.000 C 
ATOM     20  C   UNL     1       5.910   6.780  17.016  0.00  0.00    +0.000 C 
ATOM     21  O   UNL     1       6.426   6.114  15.857  0.00  0.00    +0.000 OA
ATOM     22  C   UNL     1       5.584   5.035  15.437  0.00  0.00    +0.000 C 
ATOM     23  C   UNL     1       5.331   4.036  16.572  0.00  0.00    +0.000 C 
ENDBRANCH  17  18
ENDBRANCH  14  17
ENDBRANCH   9  11
ENDBRANCH   4   7
BRANCH   6  24
ATOM     24  C   UNL     1      -2.317  13.295  23.297  0.00  0.00    +0.000 C 
BRANCH  24  25
ATOM     25  C   UNL     1      -3.646  12.980  22.604  0.00  0.00    +0.000 A 
ATOM     26  C   UNL     1      -4.826  12.963  23.419  0.00  0.00    +0.000 A 
ATOM     27  C   UNL     1      -6.097  12.775  22.886  0.00  0.00    +0.000 A 
ATOM     28 CL   UNL     1      -7.464  12.765  23.927  0.00  0.00    +0.000 Cl
ATOM     29  C   UNL     1      -6.256  12.610  21.535  0.00  0.00    +0.000 A 
ATOM     30  C   UNL     1      -5.134  12.618  20.708  0.00  0.00    +0.000 A 
ATOM     31  C   UNL     1      -3.817  12.802  21.215  0.00  0.00    +0.000 A 
BRANCH  31  32
ATOM     32  O   UNL     1      -2.716  12.814  20.355  0.00  0.00    +0.000 OA
BRANCH  32  33
ATOM     33  C   UNL     1      -2.838  11.886  19.246  0.00  0.00    +0.000 C 
BRANCH  33  34
ATOM     34  C   UNL     1      -1.762  11.951  18.155  0.00  0.00    +0.000 C 
ATOM     35  C   UNL     1      -0.783  13.098  18.380  0.00  0.00    +0.000 C 
ATOM     36  C   UNL     1      -1.043  10.616  17.983  0.00  0.00    +0.000 C 
ENDBRANCH  33  34
ENDBRANCH  32  33
ENDBRANCH  31  32
ENDBRANCH  24  25
ENDBRANCH   6  24
TORSDOF 9
ENDMDL
MODEL 7
REMARK VINA RESULT:      -7.5      8.795     10.848
REMARK  Name = 
REMARK  12 active torsions:
REMARK  status: ('A' for Active; 'I' for Inactive)
REMARK    1  A    between atoms: C_1  and  C_2
REMARK    2  A    between atoms: C_4  and  C_5
REMARK    3  A    between atoms: N_7  and  C_8
REMARK    4  A    between atoms: C_11  and  C_12
REMARK    5  A    between atoms: C_12  and  N_13
REMARK    6  A    between atoms: N_22  and  C_23
REMARK    7  A    between atoms: C_23  and  C_24
REMARK    8  A    between atoms: C_30  and  O_31
REMARK    9  A    between atoms: O_31  and  C_32
REMARK   10  A    between atoms: C_32  and  C_33
REMARK   11  A    between atoms: C_33  and  C_34
REMARK   12  A    between atoms: C_33  and  C_35
REMARK                            x       y       z     vdW  Elec       q    Type
REMARK                         _______ _______ _______ _____ _____    ______ ____
ROOT
ATOM      1  C   UNL     1       9.892  12.916  17.433  0.00  0.00    +0.000 C 
ATOM      2  C   UNL     1       9.608  11.623  18.102  0.00  0.00    +0.000 A 
ATOM      3  C   UNL     1       9.049  10.497  17.554  0.00  0.00    +0.000 A 
ATOM      4  C   UNL     1       8.939   9.553  18.607  0.00  0.00    +0.000 A 
ATOM      5  N   UNL     1       9.469  10.047  19.749  0.00  0.00    +0.000 NA
ATOM      6  N   UNL     1       9.779  11.353  19.447  0.00  0.00    +0.000 N 
ENDROOT
BRANCH   4   7
ATOM      7  C   UNL     1       8.293   8.230  18.474  0.00  0.00    +0.000 C 
ATOM      8  O   UNL     1       8.646   7.293  19.187  0.00  0.00    +0.000 OA
ATOM      9  N   UNL     1       7.340   8.163  17.478  0.00  0.00    +0.000 N 
ATOM     10  H   UNL     1       7.251   9.012  16.927  0.00  0.00    +0.000 HD
BRANCH   9  11
ATOM     11  C   UNL     1       6.495   7.071  17.179  0.00  0.00    +0.000 A 
ATOM     12  C   UNL     1       6.947   5.862  16.644  0.00  0.00    +0.000 A 
ATOM     13  C   UNL     1       6.073   4.772  16.487  0.00  0.00    +0.000 A 
ATOM     14  C   UNL     1       4.726   4.873  16.848  0.00  0.00    +0.000 A 
ATOM     15  C   UNL     1       4.259   6.120  17.289  0.00  0.00    +0.000 A 
ATOM     16  C   UNL     1       5.135   7.200  17.470  0.00  0.00    +0.000 A 
BRANCH  14  17
ATOM     17  C   UNL     1       3.778   3.701  16.706  0.00  0.00    +0.000 C 
BRANCH  17  18
ATOM     18  N   UNL     1       3.720   2.692  17.766  0.00  0.00    +0.000 NA
ATOM     19  C   UNL     1       2.507   1.878  17.879  0.00  0.00    +0.000 C 
ATOM     20  C   UNL     1       1.442   2.423  18.849  0.00  0.00    +0.000 C 
ATOM     21  O   UNL     1       1.985   2.777  20.126  0.00  0.00    +0.000 OA
ATOM     22  C   UNL     1       3.101   3.666  20.008  0.00  0.00    +0.000 C 
ATOM     23  C   UNL     1       4.190   3.094  19.093  0.00  0.00    +0.000 C 
ENDBRANCH  17  18
ENDBRANCH  14  17
ENDBRANCH   9  11
ENDBRANCH   4   7
BRANCH   6  24
ATOM     24  C   UNL     1      10.048  12.312  20.549  0.00  0.00    +0.000 C 
BRANCH  24  25
ATOM     25  C   UNL     1       8.782  12.752  21.291  0.00  0.00    +0.000 A 
ATOM     26  C   UNL     1       8.388  11.983  22.434  0.00  0.00    +0.000 A 
ATOM     27  C   UNL     1       7.307  12.338  23.235  0.00  0.00    +0.000 A 
ATOM     28 CL   UNL     1       6.894  11.364  24.589  0.00  0.00    +0.000 Cl
ATOM     29  C   UNL     1       6.584  13.466  22.949  0.00  0.00    +0.000 A 
ATOM     30  C   UNL     1       6.933  14.241  21.844  0.00  0.00    +0.000 A 
ATOM     31  C   UNL     1       8.028  13.908  20.998  0.00  0.00    +0.000 A 
BRANCH  31  32
ATOM     32  O   UNL     1       8.355  14.713  19.904  0.00  0.00    +0.000 OA
BRANCH  32  33
ATOM     33  C   UNL     1       7.760  16.035  19.959  0.00  0.00    +0.000 C 
BRANCH  33  34
ATOM     34  C   UNL     1       8.688  17.210  20.291  0.00  0.00    +0.000 C 
ATOM     35  C   UNL     1       8.456  17.743  21.701  0.00  0.00    +0.000 C 
ATOM     36  C   UNL     1      10.155  16.865  20.047  0.00  0.00    +0.000 C 
ENDBRANCH  33  34
ENDBRANCH  32  33
ENDBRANCH  31  32
ENDBRANCH  24  25
ENDBRANCH   6  24
TORSDOF 9
ENDMDL
MODEL 8
REMARK VINA RESULT:      -7.5      2.153      2.998
REMARK  Name = 
REMARK  12 active torsions:
REMARK  status: ('A' for Active; 'I' for Inactive)
REMARK    1  A    between atoms: C_1  and  C_2
REMARK    2  A    between atoms: C_4  and  C_5
REMARK    3  A    between atoms: N_7  and  C_8
REMARK    4  A    between atoms: C_11  and  C_12
REMARK    5  A    between atoms: C_12  and  N_13
REMARK    6  A    between atoms: N_22  and  C_23
REMARK    7  A    between atoms: C_23  and  C_24
REMARK    8  A    between atoms: C_30  and  O_31
REMARK    9  A    between atoms: O_31  and  C_32
REMARK   10  A    between atoms: C_32  and  C_33
REMARK   11  A    between atoms: C_33  and  C_34
REMARK   12  A    between atoms: C_33  and  C_35
REMARK                            x       y       z     vdW  Elec       q    Type
REMARK                         _______ _______ _______ _____ _____    ______ ____
ROOT
ATOM      1  C   UNL     1      -0.217  15.172  19.808  0.00  0.00    +0.000 C 
ATOM      2  C   UNL     1      -0.457  13.710  19.725  0.00  0.00    +0.000 A 
ATOM      3  C   UNL     1       0.352  12.756  19.164  0.00  0.00    +0.000 A 
ATOM      4  C   UNL     1      -0.340  11.523  19.290  0.00  0.00    +0.000 A 
ATOM      5  N   UNL     1      -1.502  11.692  19.959  0.00  0.00    +0.000 NA
ATOM      6  N   UNL     1      -1.606  13.054  20.127  0.00  0.00    +0.000 N 
ENDROOT
BRANCH   4   7
ATOM      7  C   UNL     1       0.135  10.242  18.724  0.00  0.00    +0.000 C 
ATOM      8  O   UNL     1      -0.460   9.723  17.782  0.00  0.00    +0.000 OA
ATOM      9  N   UNL     1       1.227   9.705  19.375  0.00  0.00    +0.000 N 
ATOM     10  H   UNL     1       1.524  10.228  20.194  0.00  0.00    +0.000 HD
BRANCH   9  11
ATOM     11  C   UNL     1       1.955   8.551  19.009  0.00  0.00    +0.000 A 
ATOM     12  C   UNL     1       2.023   7.394  19.789  0.00  0.00    +0.000 A 
ATOM     13  C   UNL     1       2.661   6.237  19.310  0.00  0.00    +0.000 A 
ATOM     14  C   UNL     1       3.258   6.218  18.045  0.00  0.00    +0.000 A 
ATOM     15  C   UNL     1       3.272   7.413  17.310  0.00  0.00    +0.000 A 
ATOM     16  C   UNL     1       2.614   8.559  17.777  0.00  0.00    +0.000 A 
BRANCH  14  17
ATOM     17  C   UNL     1       3.928   4.972  17.505  0.00  0.00    +0.000 C 
BRANCH  17  18
ATOM     18  N   UNL     1       5.365   4.783  17.711  0.00  0.00    +0.000 NA
ATOM     19  C   UNL     1       6.132   5.891  18.286  0.00  0.00    +0.000 C 
ATOM     20  C   UNL     1       6.780   6.840  17.260  0.00  0.00    +0.000 C 
ATOM     21  O   UNL     1       7.505   6.142  16.242  0.00  0.00    +0.000 OA
ATOM     22  C   UNL     1       6.708   5.137  15.606  0.00  0.00    +0.000 C 
ATOM     23  C   UNL     1       6.116   4.154  16.623  0.00  0.00    +0.000 C 
ENDBRANCH  17  18
ENDBRANCH  14  17
ENDBRANCH   9  11
ENDBRANCH   4   7
BRANCH   6  24
ATOM     24  C   UNL     1      -2.917  13.645  20.501  0.00  0.00    +0.000 C 
BRANCH  24  25
ATOM     25  C   UNL     1      -3.210  13.568  22.002  0.00  0.00    +0.000 A 
ATOM     26  C   UNL     1      -2.340  14.292  22.881  0.00  0.00    +0.000 A 
ATOM     27  C   UNL     1      -2.559  14.366  24.253  0.00  0.00    +0.000 A 
ATOM     28 CL   UNL     1      -1.470  15.252  25.243  0.00  0.00    +0.000 Cl
ATOM     29  C   UNL     1      -3.646  13.742  24.807  0.00  0.00    +0.000 A 
ATOM     30  C   UNL     1      -4.516  13.025  23.987  0.00  0.00    +0.000 A 
ATOM     31  C   UNL     1      -4.323  12.922  22.581  0.00  0.00    +0.000 A 
BRANCH  31  32
ATOM     32  O   UNL     1      -5.220  12.202  21.788  0.00  0.00    +0.000 OA
BRANCH  32  33
ATOM     33  C   UNL     1      -6.581  12.700  21.855  0.00  0.00    +0.000 C 
BRANCH  33  34
ATOM     34  C   UNL     1      -6.865  14.059  21.205  0.00  0.00    +0.000 C 
ATOM     35  C   UNL     1      -7.821  13.942  20.022  0.00  0.00    +0.000 C 
ATOM     36  C   UNL     1      -7.345  15.090  22.224  0.00  0.00    +0.000 C 
ENDBRANCH  33  34
ENDBRANCH  32  33
ENDBRANCH  31  32
ENDBRANCH  24  25
ENDBRANCH   6  24
TORSDOF 9
ENDMDL
MODEL 9
REMARK VINA RESULT:      -7.5      3.764     12.103
REMARK  Name = 
REMARK  12 active torsions:
REMARK  status: ('A' for Active; 'I' for Inactive)
REMARK    1  A    between atoms: C_1  and  C_2
REMARK    2  A    between atoms: C_4  and  C_5
REMARK    3  A    between atoms: N_7  and  C_8
REMARK    4  A    between atoms: C_11  and  C_12
REMARK    5  A    between atoms: C_12  and  N_13
REMARK    6  A    between atoms: N_22  and  C_23
REMARK    7  A    between atoms: C_23  and  C_24
REMARK    8  A    between atoms: C_30  and  O_31
REMARK    9  A    between atoms: O_31  and  C_32
REMARK   10  A    between atoms: C_32  and  C_33
REMARK   11  A    between atoms: C_33  and  C_34
REMARK   12  A    between atoms: C_33  and  C_35
REMARK                            x       y       z     vdW  Elec       q    Type
REMARK                         _______ _______ _______ _____ _____    ______ ____
ROOT
ATOM      1  C   UNL     1       3.565   7.491  17.369  0.00  0.00    +0.000 C 
ATOM      2  C   UNL     1       2.694   7.579  18.566  0.00  0.00    +0.000 A 
ATOM      3  C   UNL     1       1.759   8.539  18.858  0.00  0.00    +0.000 A 
ATOM      4  C   UNL     1       1.233   8.209  20.133  0.00  0.00    +0.000 A 
ATOM      5  N   UNL     1       1.771   7.055  20.589  0.00  0.00    +0.000 NA
ATOM      6  N   UNL     1       2.738   6.739  19.663  0.00  0.00    +0.000 N 
ENDROOT
BRANCH   4   7
ATOM      7  C   UNL     1       0.262   9.043  20.874  0.00  0.00    +0.000 C 
ATOM      8  O   UNL     1      -0.409   8.556  21.781  0.00  0.00    +0.000 OA
ATOM      9  N   UNL     1       0.169  10.342  20.417  0.00  0.00    +0.000 N 
ATOM     10  H   UNL     1       0.732  10.538  19.595  0.00  0.00    +0.000 HD
BRANCH   9  11
ATOM     11  C   UNL     1      -0.594  11.390  20.980  0.00  0.00    +0.000 A 
ATOM     12  C   UNL     1      -0.751  11.587  22.354  0.00  0.00    +0.000 A 
ATOM     13  C   UNL     1      -1.419  12.720  22.849  0.00  0.00    +0.000 A 
ATOM     14  C   UNL     1      -1.957  13.674  21.979  0.00  0.00    +0.000 A 
ATOM     15  C   UNL     1      -1.883  13.418  20.601  0.00  0.00    +0.000 A 
ATOM     16  C   UNL     1      -1.195  12.301  20.107  0.00  0.00    +0.000 A 
BRANCH  14  17
ATOM     17  C   UNL     1      -2.658  14.912  22.496  0.00  0.00    +0.000 C 
BRANCH  17  18
ATOM     18  N   UNL     1      -4.071  15.123  22.176  0.00  0.00    +0.000 NA
ATOM     19  C   UNL     1      -4.725  16.325  22.699  0.00  0.00    +0.000 C 
ATOM     20  C   UNL     1      -5.441  16.145  24.051  0.00  0.00    +0.000 C 
ATOM     21  O   UNL     1      -6.301  14.999  24.074  0.00  0.00    +0.000 OA
ATOM     22  C   UNL     1      -5.619  13.807  23.670  0.00  0.00    +0.000 C 
ATOM     23  C   UNL     1      -4.960  13.966  22.294  0.00  0.00    +0.000 C 
ENDBRANCH  17  18
ENDBRANCH  14  17
ENDBRANCH   9  11
ENDBRANCH   4   7
BRANCH   6  24
ATOM     24  C   UNL     1       3.778   5.736  20.009  0.00  0.00    +0.000 C 
BRANCH  24  25
ATOM     25  C   UNL     1       3.542   4.369  19.361  0.00  0.00    +0.000 A 
ATOM     26  C   UNL     1       2.188   3.904  19.279  0.00  0.00    +0.000 A 
ATOM     27  C   UNL     1       1.845   2.720  18.635  0.00  0.00    +0.000 A 
ATOM     28 CL   UNL     1       0.199   2.227  18.580  0.00  0.00    +0.000 Cl
ATOM     29  C   UNL     1       2.815   1.957  18.039  0.00  0.00    +0.000 A 
ATOM     30  C   UNL     1       4.144   2.373  18.098  0.00  0.00    +0.000 A 
ATOM     31  C   UNL     1       4.536   3.575  18.751  0.00  0.00    +0.000 A 
BRANCH  31  32
ATOM     32  O   UNL     1       5.877   3.965  18.783  0.00  0.00    +0.000 OA
BRANCH  32  33
ATOM     33  C   UNL     1       6.252   4.839  17.687  0.00  0.00    +0.000 C 
BRANCH  33  34
ATOM     34  C   UNL     1       7.462   5.757  17.902  0.00  0.00    +0.000 C 
ATOM     35  C   UNL     1       7.222   7.161  17.359  0.00  0.00    +0.000 C 
ATOM     36  C   UNL     1       7.908   5.779  19.362  0.00  0.00    +0.000 C 
ENDBRANCH  33  34
ENDBRANCH  32  33
ENDBRANCH  31  32
ENDBRANCH  24  25
ENDBRANCH   6  24
TORSDOF 9
ENDMDL
