MODEL 1
REMARK VINA RESULT:      -6.6      0.000      0.000
REMARK  Name = 
REMARK  6 active torsions:
REMARK  status: ('A' for Active; 'I' for Inactive)
REMARK    1  A    between atoms: C_1  and  C_2
REMARK    2  A    between atoms: C_2  and  N_3
REMARK    3  A    between atoms: N_6  and  C_7
REMARK    4  A    between atoms: C_7  and  C_8
REMARK    5  A    between atoms: C_8  and  C_10
REMARK    6  A    between atoms: C_13  and  C_14
REMARK                            x       y       z     vdW  Elec       q    Type
REMARK                         _______ _______ _______ _____ _____    ______ ____
ROOT
ATOM      1  C   UNL     1       4.163   3.720  16.823  0.00  0.00    +0.000 C 
ENDROOT
BRANCH   1   5
ATOM      2  N   UNL     1       1.423   2.963  19.253  0.00  0.00    +0.000 NA
ATOM      3  C   UNL     1       1.336   3.962  18.169  0.00  0.00    +0.000 C 
ATOM      4  C   UNL     1       2.509   4.975  18.094  0.00  0.00    +0.000 C 
ATOM      5  N   UNL     1       3.863   4.375  18.116  0.00  0.00    +0.000 NA
ATOM      6  C   UNL     1       3.921   3.422  19.251  0.00  0.00    +0.000 C 
ATOM      7  C   UNL     1       2.782   2.375  19.267  0.00  0.00    +0.000 C 
BRANCH   2   9
ATOM      8  C   UNL     1       1.500   2.579  21.733  0.00  0.00    +0.000 C 
ATOM      9  C   UNL     1       1.085   3.491  20.583  0.00  0.00    +0.000 C 
ENDBRANCH   2   9
ENDBRANCH   1   5
BRANCH   1  10
ATOM     10  C   UNL     1       5.557   4.082  16.322  0.00  0.00    +0.000 C 
ATOM     11  O   UNL     1       6.127   3.394  15.473  0.00  0.00    +0.000 OA
BRANCH  10  12
ATOM     12  C   UNL     1       6.274   5.251  16.904  0.00  0.00    +0.000 A 
ATOM     13  C   UNL     1       7.264   5.003  17.864  0.00  0.00    +0.000 A 
ATOM     14  C   UNL     1       7.980   6.059  18.431  0.00  0.00    +0.000 A 
ATOM     15  C   UNL     1       7.727   7.376  18.034  0.00  0.00    +0.000 A 
ATOM     16  C   UNL     1       8.512   8.517  18.607  0.00  0.00    +0.000 C 
ATOM     17  C   UNL     1       6.734   7.621  17.075  0.00  0.00    +0.000 A 
ATOM     18  C   UNL     1       6.005   6.568  16.517  0.00  0.00    +0.000 A 
ENDBRANCH  10  12
ENDBRANCH   1  10
TORSDOF 4
ENDMDL
MODEL 2
REMARK VINA RESULT:      -6.6      0.783      1.650
REMARK  Name = 
REMARK  6 active torsions:
REMARK  status: ('A' for Active; 'I' for Inactive)
REMARK    1  A    between atoms: C_1  and  C_2
REMARK    2  A    between atoms: C_2  and  N_3
REMARK    3  A    between atoms: N_6  and  C_7
REMARK    4  A    between atoms: C_7  and  C_8
REMARK    5  A    between atoms: C_8  and  C_10
REMARK    6  A    between atoms: C_13  and  C_14
REMARK                            x       y       z     vdW  Elec       q    Type
REMARK                         _______ _______ _______ _____ _____    ______ ____
ROOT
ATOM      1  C   UNL     1       4.067   4.056  16.820  0.00  0.00    +0.000 C 
ENDROOT
BRANCH   1   5
ATOM      2  N   UNL     1       1.611   3.776  19.627  0.00  0.00    +0.000 NA
ATOM      3  C   UNL     1       3.002   4.252  19.768  0.00  0.00    +0.000 C 
ATOM      4  C   UNL     1       4.091   3.337  19.146  0.00  0.00    +0.000 C 
ATOM      5  N   UNL     1       3.842   2.923  17.746  0.00  0.00    +0.000 NA
ATOM      6  C   UNL     1       2.455   2.402  17.664  0.00  0.00    +0.000 C 
ATOM      7  C   UNL     1       1.378   3.360  18.225  0.00  0.00    +0.000 C 
BRANCH   2   9
ATOM      8  C   UNL     1       1.842   2.841  21.945  0.00  0.00    +0.000 C 
ATOM      9  C   UNL     1       1.256   2.684  20.546  0.00  0.00    +0.000 C 
ENDBRANCH   2   9
ENDBRANCH   1   5
BRANCH   1  10
ATOM     10  C   UNL     1       5.539   4.186  16.443  0.00  0.00    +0.000 C 
ATOM     11  O   UNL     1       6.081   3.365  15.701  0.00  0.00    +0.000 OA
BRANCH  10  12
ATOM     12  C   UNL     1       6.358   5.288  17.022  0.00  0.00    +0.000 A 
ATOM     13  C   UNL     1       6.185   6.577  16.503  0.00  0.00    +0.000 A 
ATOM     14  C   UNL     1       6.913   7.651  17.018  0.00  0.00    +0.000 A 
ATOM     15  C   UNL     1       7.814   7.452  18.069  0.00  0.00    +0.000 A 
ATOM     16  C   UNL     1       8.576   8.601  18.657  0.00  0.00    +0.000 C 
ATOM     17  C   UNL     1       7.986   6.161  18.585  0.00  0.00    +0.000 A 
ATOM     18  C   UNL     1       7.270   5.081  18.061  0.00  0.00    +0.000 A 
ENDBRANCH  10  12
ENDBRANCH   1  10
TORSDOF 4
ENDMDL
MODEL 3
REMARK VINA RESULT:      -6.5      0.257      1.166
REMARK  Name = 
REMARK  6 active torsions:
REMARK  status: ('A' for Active; 'I' for Inactive)
REMARK    1  A    between atoms: C_1  and  C_2
REMARK    2  A    between atoms: C_2  and  N_3
REMARK    3  A    between atoms: N_6  and  C_7
REMARK    4  A    between atoms: C_7  and  C_8
REMARK    5  A    between atoms: C_8  and  C_10
REMARK    6  A    between atoms: C_13  and  C_14
REMARK                            x       y       z     vdW  Elec       q    Type
REMARK                         _______ _______ _______ _____ _____    ______ ____
ROOT
ATOM      1  C   UNL     1       4.478   3.368  16.978  0.00  0.00    +0.000 C 
ENDROOT
BRANCH   1   5
ATOM      2  N   UNL     1       1.522   2.862  19.212  0.00  0.00    +0.000 NA
ATOM      3  C   UNL     1       1.530   3.711  18.003  0.00  0.00    +0.000 C 
ATOM      4  C   UNL     1       2.693   4.735  17.910  0.00  0.00    +0.000 C 
ATOM      5  N   UNL     1       4.045   4.176  18.139  0.00  0.00    +0.000 NA
ATOM      6  C   UNL     1       4.003   3.379  19.390  0.00  0.00    +0.000 C 
ATOM      7  C   UNL     1       2.880   2.315  19.433  0.00  0.00    +0.000 C 
BRANCH   2   9
ATOM      8  C   UNL     1       1.338   2.791  21.715  0.00  0.00    +0.000 C 
ATOM      9  C   UNL     1       1.048   3.549  20.424  0.00  0.00    +0.000 C 
ENDBRANCH   2   9
ENDBRANCH   1   5
BRANCH   1  10
ATOM     10  C   UNL     1       5.623   4.039  16.225  0.00  0.00    +0.000 C 
ATOM     11  O   UNL     1       5.954   3.658  15.101  0.00  0.00    +0.000 OA
BRANCH  10  12
ATOM     12  C   UNL     1       6.397   5.134  16.874  0.00  0.00    +0.000 A 
ATOM     13  C   UNL     1       6.179   6.444  16.429  0.00  0.00    +0.000 A 
ATOM     14  C   UNL     1       6.864   7.512  17.012  0.00  0.00    +0.000 A 
ATOM     15  C   UNL     1       7.763   7.286  18.059  0.00  0.00    +0.000 A 
ATOM     16  C   UNL     1       8.479   8.426  18.719  0.00  0.00    +0.000 C 
ATOM     17  C   UNL     1       7.980   5.974  18.500  0.00  0.00    +0.000 A 
ATOM     18  C   UNL     1       7.308   4.901  17.908  0.00  0.00    +0.000 A 
ENDBRANCH  10  12
ENDBRANCH   1  10
TORSDOF 4
ENDMDL
MODEL 4
REMARK VINA RESULT:      -6.4      0.907      1.363
REMARK  Name = 
REMARK  6 active torsions:
REMARK  status: ('A' for Active; 'I' for Inactive)
REMARK    1  A    between atoms: C_1  and  C_2
REMARK    2  A    between atoms: C_2  and  N_3
REMARK    3  A    between atoms: N_6  and  C_7
REMARK    4  A    between atoms: C_7  and  C_8
REMARK    5  A    between atoms: C_8  and  C_10
REMARK    6  A    between atoms: C_13  and  C_14
REMARK                            x       y       z     vdW  Elec       q    Type
REMARK                         _______ _______ _______ _____ _____    ______ ____
ROOT
ATOM      1  C   UNL     1       4.364   4.593  16.926  0.00  0.00    +0.000 C 
ENDROOT
BRANCH   1   5
ATOM      2  N   UNL     1       1.793   3.966  19.569  0.00  0.00    +0.000 NA
ATOM      3  C   UNL     1       3.217   4.260  19.830  0.00  0.00    +0.000 C 
ATOM      4  C   UNL     1       4.237   3.395  19.041  0.00  0.00    +0.000 C 
ATOM      5  N   UNL     1       4.000   3.317  17.581  0.00  0.00    +0.000 NA
ATOM      6  C   UNL     1       2.575   2.967  17.368  0.00  0.00    +0.000 C 
ATOM      7  C   UNL     1       1.573   3.886  18.107  0.00  0.00    +0.000 C 
BRANCH   2   9
ATOM      8  C   UNL     1       1.553   2.710  21.729  0.00  0.00    +0.000 C 
ATOM      9  C   UNL     1       1.303   2.744  20.224  0.00  0.00    +0.000 C 
ENDBRANCH   2   9
ENDBRANCH   1   5
BRANCH   1  10
ATOM     10  C   UNL     1       5.870   4.701  16.710  0.00  0.00    +0.000 C 
ATOM     11  O   UNL     1       6.496   3.808  16.134  0.00  0.00    +0.000 OA
BRANCH  10  12
ATOM     12  C   UNL     1       6.616   5.872  17.250  0.00  0.00    +0.000 A 
ATOM     13  C   UNL     1       7.507   5.651  18.309  0.00  0.00    +0.000 A 
ATOM     14  C   UNL     1       8.245   6.709  18.844  0.00  0.00    +0.000 A 
ATOM     15  C   UNL     1       8.113   7.998  18.317  0.00  0.00    +0.000 A 
ATOM     16  C   UNL     1       8.926   9.136  18.857  0.00  0.00    +0.000 C 
ATOM     17  C   UNL     1       7.220   8.215  17.260  0.00  0.00    +0.000 A 
ATOM     18  C   UNL     1       6.468   7.162  16.732  0.00  0.00    +0.000 A 
ENDBRANCH  10  12
ENDBRANCH   1  10
TORSDOF 4
ENDMDL
MODEL 5
REMARK VINA RESULT:      -6.3      3.305      5.912
REMARK  Name = 
REMARK  6 active torsions:
REMARK  status: ('A' for Active; 'I' for Inactive)
REMARK    1  A    between atoms: C_1  and  C_2
REMARK    2  A    between atoms: C_2  and  N_3
REMARK    3  A    between atoms: N_6  and  C_7
REMARK    4  A    between atoms: C_7  and  C_8
REMARK    5  A    between atoms: C_8  and  C_10
REMARK    6  A    between atoms: C_13  and  C_14
REMARK                            x       y       z     vdW  Elec       q    Type
REMARK                         _______ _______ _______ _____ _____    ______ ____
ROOT
ATOM      1  C   UNL     1       4.798   5.783  19.141  0.00  0.00    +0.000 C 
ENDROOT
BRANCH   1   5
ATOM      2  N   UNL     1       6.571   5.773  15.848  0.00  0.00    +0.000 NA
ATOM      3  C   UNL     1       5.104   5.826  16.016  0.00  0.00    +0.000 C 
ATOM      4  C   UNL     1       4.497   4.751  16.957  0.00  0.00    +0.000 C 
ATOM      5  N   UNL     1       5.149   4.631  18.281  0.00  0.00    +0.000 NA
ATOM      6  C   UNL     1       6.612   4.525  18.060  0.00  0.00    +0.000 C 
ATOM      7  C   UNL     1       7.209   5.647  17.178  0.00  0.00    +0.000 C 
BRANCH   2   9
ATOM      8  C   UNL     1       5.979   4.223  13.964  0.00  0.00    +0.000 C 
ATOM      9  C   UNL     1       7.033   4.696  14.959  0.00  0.00    +0.000 C 
ENDBRANCH   2   9
ENDBRANCH   1   5
BRANCH   1  10
ATOM     10  C   UNL     1       3.306   5.809  19.459  0.00  0.00    +0.000 C 
ATOM     11  O   UNL     1       2.708   4.782  19.786  0.00  0.00    +0.000 OA
BRANCH  10  12
ATOM     12  C   UNL     1       2.539   7.078  19.320  0.00  0.00    +0.000 A 
ATOM     13  C   UNL     1       2.520   7.700  18.065  0.00  0.00    +0.000 A 
ATOM     14  C   UNL     1       1.803   8.882  17.872  0.00  0.00    +0.000 A 
ATOM     15  C   UNL     1       1.084   9.451  18.927  0.00  0.00    +0.000 A 
ATOM     16  C   UNL     1       0.280  10.700  18.726  0.00  0.00    +0.000 C 
ATOM     17  C   UNL     1       1.106   8.828  20.183  0.00  0.00    +0.000 A 
ATOM     18  C   UNL     1       1.836   7.652  20.383  0.00  0.00    +0.000 A 
ENDBRANCH  10  12
ENDBRANCH   1  10
TORSDOF 4
ENDMDL
MODEL 6
REMARK VINA RESULT:      -6.2      2.305      3.675
REMARK  Name = 
REMARK  6 active torsions:
REMARK  status: ('A' for Active; 'I' for Inactive)
REMARK    1  A    between atoms: C_1  and  C_2
REMARK    2  A    between atoms: C_2  and  N_3
REMARK    3  A    between atoms: N_6  and  C_7
REMARK    4  A    between atoms: C_7  and  C_8
REMARK    5  A    between atoms: C_8  and  C_10
REMARK    6  A    between atoms: C_13  and  C_14
REMARK                            x       y       z     vdW  Elec       q    Type
REMARK                         _______ _______ _______ _____ _____    ______ ____
ROOT
ATOM      1  C   UNL     1       4.565   6.091  17.379  0.00  0.00    +0.000 C 
ENDROOT
BRANCH   1   5
ATOM      2  N   UNL     1       2.776   3.345  19.182  0.00  0.00    +0.000 NA
ATOM      3  C   UNL     1       2.357   4.762  19.173  0.00  0.00    +0.000 C 
ATOM      4  C   UNL     1       3.463   5.791  19.529  0.00  0.00    +0.000 C 
ATOM      5  N   UNL     1       4.731   5.639  18.778  0.00  0.00    +0.000 NA
ATOM      6  C   UNL     1       5.141   4.216  18.860  0.00  0.00    +0.000 C 
ATOM      7  C   UNL     1       4.046   3.209  18.433  0.00  0.00    +0.000 C 
BRANCH   2   9
ATOM      8  C   UNL     1       1.656   2.885  21.380  0.00  0.00    +0.000 C 
ATOM      9  C   UNL     1       2.915   2.770  20.528  0.00  0.00    +0.000 C 
ENDBRANCH   2   9
ENDBRANCH   1   5
BRANCH   1  10
ATOM     10  C   UNL     1       5.902   6.152  16.649  0.00  0.00    +0.000 C 
ATOM     11  O   UNL     1       6.807   6.893  17.039  0.00  0.00    +0.000 OA
BRANCH  10  12
ATOM     12  C   UNL     1       6.109   5.352  15.409  0.00  0.00    +0.000 A 
ATOM     13  C   UNL     1       5.115   4.434  15.047  0.00  0.00    +0.000 A 
ATOM     14  C   UNL     1       5.247   3.670  13.886  0.00  0.00    +0.000 A 
ATOM     15  C   UNL     1       6.368   3.823  13.065  0.00  0.00    +0.000 A 
ATOM     16  C   UNL     1       6.507   3.035  11.797  0.00  0.00    +0.000 C 
ATOM     17  C   UNL     1       7.362   4.740  13.431  0.00  0.00    +0.000 A 
ATOM     18  C   UNL     1       7.240   5.496  14.601  0.00  0.00    +0.000 A 
ENDBRANCH  10  12
ENDBRANCH   1  10
TORSDOF 4
ENDMDL
MODEL 7
REMARK VINA RESULT:      -6.2      2.384      3.711
REMARK  Name = 
REMARK  6 active torsions:
REMARK  status: ('A' for Active; 'I' for Inactive)
REMARK    1  A    between atoms: C_1  and  C_2
REMARK    2  A    between atoms: C_2  and  N_3
REMARK    3  A    between atoms: N_6  and  C_7
REMARK    4  A    between atoms: C_7  and  C_8
REMARK    5  A    between atoms: C_8  and  C_10
REMARK    6  A    between atoms: C_13  and  C_14
REMARK                            x       y       z     vdW  Elec       q    Type
REMARK                         _______ _______ _______ _____ _____    ______ ____
ROOT
ATOM      1  C   UNL     1       4.445   5.947  17.232  0.00  0.00    +0.000 C 
ENDROOT
BRANCH   1   5
ATOM      2  N   UNL     1       2.749   3.314  19.277  0.00  0.00    +0.000 NA
ATOM      3  C   UNL     1       2.367   4.741  19.254  0.00  0.00    +0.000 C 
ATOM      4  C   UNL     1       3.525   5.751  19.477  0.00  0.00    +0.000 C 
ATOM      5  N   UNL     1       4.719   5.538  18.627  0.00  0.00    +0.000 NA
ATOM      6  C   UNL     1       5.099   4.107  18.725  0.00  0.00    +0.000 C 
ATOM      7  C   UNL     1       3.947   3.118  18.429  0.00  0.00    +0.000 C 
BRANCH   2   9
ATOM      8  C   UNL     1       1.767   2.832  21.536  0.00  0.00    +0.000 C 
ATOM      9  C   UNL     1       2.990   2.780  20.626  0.00  0.00    +0.000 C 
ENDBRANCH   2   9
ENDBRANCH   1   5
BRANCH   1  10
ATOM     10  C   UNL     1       5.733   6.100  16.430  0.00  0.00    +0.000 C 
ATOM     11  O   UNL     1       6.595   6.918  16.761  0.00  0.00    +0.000 OA
BRANCH  10  12
ATOM     12  C   UNL     1       5.938   5.295  15.194  0.00  0.00    +0.000 A 
ATOM     13  C   UNL     1       7.179   5.384  14.550  0.00  0.00    +0.000 A 
ATOM     14  C   UNL     1       7.433   4.639  13.397  0.00  0.00    +0.000 A 
ATOM     15  C   UNL     1       6.454   3.783  12.881  0.00  0.00    +0.000 A 
ATOM     16  C   UNL     1       6.725   2.950  11.665  0.00  0.00    +0.000 C 
ATOM     17  C   UNL     1       5.213   3.698  13.526  0.00  0.00    +0.000 A 
ATOM     18  C   UNL     1       4.950   4.454  14.672  0.00  0.00    +0.000 A 
ENDBRANCH  10  12
ENDBRANCH   1  10
TORSDOF 4
ENDMDL
MODEL 8
REMARK VINA RESULT:      -6.2      3.143      5.744
REMARK  Name = 
REMARK  6 active torsions:
REMARK  status: ('A' for Active; 'I' for Inactive)
REMARK    1  A    between atoms: C_1  and  C_2
REMARK    2  A    between atoms: C_2  and  N_3
REMARK    3  A    between atoms: N_6  and  C_7
REMARK    4  A    between atoms: C_7  and  C_8
REMARK    5  A    between atoms: C_8  and  C_10
REMARK    6  A    between atoms: C_13  and  C_14
REMARK                            x       y       z     vdW  Elec       q    Type
REMARK                         _______ _______ _______ _____ _____    ______ ____
ROOT
ATOM      1  C   UNL     1       5.267   5.662  19.056  0.00  0.00    +0.000 C 
ENDROOT
BRANCH   1   5
ATOM      2  N   UNL     1       6.445   5.674  15.507  0.00  0.00    +0.000 NA
ATOM      3  C   UNL     1       5.043   5.480  15.929  0.00  0.00    +0.000 C 
ATOM      4  C   UNL     1       4.814   4.403  17.022  0.00  0.00    +0.000 C 
ATOM      5  N   UNL     1       5.685   4.519  18.214  0.00  0.00    +0.000 NA
ATOM      6  C   UNL     1       7.085   4.656  17.744  0.00  0.00    +0.000 C 
ATOM      7  C   UNL     1       7.305   5.783  16.707  0.00  0.00    +0.000 C 
BRANCH   2   9
ATOM      8  C   UNL     1       5.897   4.056  13.667  0.00  0.00    +0.000 C 
ATOM      9  C   UNL     1       6.952   4.622  14.612  0.00  0.00    +0.000 C 
ENDBRANCH   2   9
ENDBRANCH   1   5
BRANCH   1  10
ATOM     10  C   UNL     1       3.769   5.624  19.346  0.00  0.00    +0.000 C 
ATOM     11  O   UNL     1       3.222   4.589  19.730  0.00  0.00    +0.000 OA
BRANCH  10  12
ATOM     12  C   UNL     1       2.937   6.837  19.108  0.00  0.00    +0.000 A 
ATOM     13  C   UNL     1       2.145   7.307  20.163  0.00  0.00    +0.000 A 
ATOM     14  C   UNL     1       1.358   8.449  20.003  0.00  0.00    +0.000 A 
ATOM     15  C   UNL     1       1.364   9.144  18.790  0.00  0.00    +0.000 A 
ATOM     16  C   UNL     1       0.552  10.392  18.614  0.00  0.00    +0.000 C 
ATOM     17  C   UNL     1       2.156   8.670  17.735  0.00  0.00    +0.000 A 
ATOM     18  C   UNL     1       2.933   7.518  17.887  0.00  0.00    +0.000 A 
ENDBRANCH  10  12
ENDBRANCH   1  10
TORSDOF 4
ENDMDL
MODEL 9
REMARK VINA RESULT:      -6.2      3.284      5.961
REMARK  Name = 
REMARK  6 active torsions:
REMARK  status: ('A' for Active; 'I' for Inactive)
REMARK    1  A    between atoms: C_1  and  C_2
REMARK    2  A    between atoms: C_2  and  N_3
REMARK    3  A    between atoms: N_6  and  C_7
REMARK    4  A    between atoms: C_7  and  C_8
REMARK    5  A    between atoms: C_8  and  C_10
REMARK    6  A    between atoms: C_13  and  C_14
REMARK                            x       y       z     vdW  Elec       q    Type
REMARK                         _______ _______ _______ _____ _____    ______ ____
ROOT
ATOM      1  C   UNL     1       4.601   5.559  19.066  0.00  0.00    +0.000 C 
ENDROOT
BRANCH   1   5
ATOM      2  N   UNL     1       6.562   4.054  16.260  0.00  0.00    +0.000 NA
ATOM      3  C   UNL     1       7.152   4.680  17.461  0.00  0.00    +0.000 C 
ATOM      4  C   UNL     1       6.618   6.094  17.813  0.00  0.00    +0.000 C 
ATOM      5  N   UNL     1       5.142   6.217  17.857  0.00  0.00    +0.000 NA
ATOM      6  C   UNL     1       4.598   5.627  16.609  0.00  0.00    +0.000 C 
ATOM      7  C   UNL     1       5.089   4.190  16.314  0.00  0.00    +0.000 C 
BRANCH   2   9
ATOM      8  C   UNL     1       6.340   4.074  13.760  0.00  0.00    +0.000 C 
ATOM      9  C   UNL     1       7.075   4.593  14.991  0.00  0.00    +0.000 C 
ENDBRANCH   2   9
ENDBRANCH   1   5
BRANCH   1  10
ATOM     10  C   UNL     1       3.078   5.630  19.108  0.00  0.00    +0.000 C 
ATOM     11  O   UNL     1       2.389   4.622  18.942  0.00  0.00    +0.000 OA
BRANCH  10  12
ATOM     12  C   UNL     1       2.401   6.944  19.293  0.00  0.00    +0.000 A 
ATOM     13  C   UNL     1       2.289   7.788  18.181  0.00  0.00    +0.000 A 
ATOM     14  C   UNL     1       1.649   9.024  18.291  0.00  0.00    +0.000 A 
ATOM     15  C   UNL     1       1.100   9.426  19.513  0.00  0.00    +0.000 A 
ATOM     16  C   UNL     1       0.379  10.734  19.639  0.00  0.00    +0.000 C 
ATOM     17  C   UNL     1       1.216   8.581  20.625  0.00  0.00    +0.000 A 
ATOM     18  C   UNL     1       1.869   7.350  20.521  0.00  0.00    +0.000 A 
ENDBRANCH  10  12
ENDBRANCH   1  10
TORSDOF 4
ENDMDL
