MODEL 1
REMARK VINA RESULT:      -7.9      0.000      0.000
REMARK  Name = 
REMARK  9 active torsions:
REMARK  status: ('A' for Active; 'I' for Inactive)
REMARK    1  A    between atoms: C_1  and  C_2
REMARK    2  A    between atoms: C_2  and  C_3
REMARK    3  A    between atoms: C_2  and  C_4
REMARK    4  A    between atoms: C_7  and  C_8
REMARK    5  A    between atoms: C_8  and  N_9
REMARK    6  A    between atoms: N_9  and  C_10
REMARK    7  A    between atoms: N_9  and  C_11
REMARK    8  A    between atoms: C_11  and  C_12
REMARK    9  A    between atoms: C_17  and  C_18
REMARK                            x       y       z     vdW  Elec       q    Type
REMARK                         _______ _______ _______ _____ _____    ______ ____
ROOT
ATOM      1  C   UNL     1       5.179   4.897  19.424  0.00  0.00    +0.000 C 
ENDROOT
BRANCH   1   2
ATOM      2  C   UNL     1       3.975   4.098  18.934  0.00  0.00    +0.000 A 
ATOM      3  C   UNL     1       4.136   2.740  18.581  0.00  0.00    +0.000 A 
ATOM      4  C   UNL     1       3.071   1.978  18.099  0.00  0.00    +0.000 A 
ATOM      5  C   UNL     1       1.805   2.538  18.006  0.00  0.00    +0.000 A 
ATOM      6  C   UNL     1       1.608   3.860  18.402  0.00  0.00    +0.000 A 
ATOM      7  C   UNL     1       2.674   4.660  18.866  0.00  0.00    +0.000 A 
BRANCH   7   8
ATOM      8  C   UNL     1       2.363   6.053  19.199  0.00  0.00    +0.000 A 
ATOM      9  C   UNL     1       1.928   6.673  20.357  0.00  0.00    +0.000 A 
ATOM     10  C   UNL     1       1.764   8.044  20.051  0.00  0.00    +0.000 A 
ATOM     11  C   UNL     1       2.154   8.190  18.742  0.00  0.00    +0.000 A 
ATOM     12  O   UNL     1       2.534   6.992  18.222  0.00  0.00    +0.000 OA
ENDBRANCH   7   8
ENDBRANCH   1   2
BRANCH   1  13
ATOM     13  N   UNL     1       6.277   5.096  18.440  0.00  0.00    +0.000 NA
ATOM     14  C   UNL     1       7.412   5.739  19.120  0.00  0.00    +0.000 C 
BRANCH  13  15
ATOM     15  C   UNL     1       5.829   5.940  17.301  0.00  0.00    +0.000 C 
BRANCH  15  19
ATOM     16  C   UNL     1       6.500   4.469  14.102  0.00  0.00    +0.000 A 
ATOM     17  N   UNL     1       7.584   5.249  14.210  0.00  0.00    +0.000 NA
ATOM     18  O   UNL     1       7.400   5.891  15.433  0.00  0.00    +0.000 OA
ATOM     19  C   UNL     1       6.226   5.419  15.950  0.00  0.00    +0.000 A 
ATOM     20  N   UNL     1       5.629   4.544  15.166  0.00  0.00    +0.000 NA
BRANCH  16  22
ATOM     21  C   UNL     1       4.831   3.591  12.444  0.00  0.00    +0.000 C 
ATOM     22  C   UNL     1       6.286   3.580  12.916  0.00  0.00    +0.000 C 
ATOM     23  C   UNL     1       7.224   3.935  11.761  0.00  0.00    +0.000 C 
ENDBRANCH  16  22
ENDBRANCH  15  19
ENDBRANCH  13  15
ENDBRANCH   1  13
TORSDOF 6
ENDMDL
MODEL 2
REMARK VINA RESULT:      -7.7      1.190      1.565
REMARK  Name = 
REMARK  9 active torsions:
REMARK  status: ('A' for Active; 'I' for Inactive)
REMARK    1  A    between atoms: C_1  and  C_2
REMARK    2  A    between atoms: C_2  and  C_3
REMARK    3  A    between atoms: C_2  and  C_4
REMARK    4  A    between atoms: C_7  and  C_8
REMARK    5  A    between atoms: C_8  and  N_9
REMARK    6  A    between atoms: N_9  and  C_10
REMARK    7  A    between atoms: N_9  and  C_11
REMARK    8  A    between atoms: C_11  and  C_12
REMARK    9  A    between atoms: C_17  and  C_18
REMARK                            x       y       z     vdW  Elec       q    Type
REMARK                         _______ _______ _______ _____ _____    ______ ____
ROOT
ATOM      1  C   UNL     1       4.696   5.463  16.863  0.00  0.00    +0.000 C 
ENDROOT
BRANCH   1   2
ATOM      2  C   UNL     1       3.630   4.536  17.440  0.00  0.00    +0.000 A 
ATOM      3  C   UNL     1       3.739   3.142  17.246  0.00  0.00    +0.000 A 
ATOM      4  C   UNL     1       2.774   2.257  17.729  0.00  0.00    +0.000 A 
ATOM      5  C   UNL     1       1.700   2.739  18.463  0.00  0.00    +0.000 A 
ATOM      6  C   UNL     1       1.599   4.106  18.717  0.00  0.00    +0.000 A 
ATOM      7  C   UNL     1       2.547   5.023  18.217  0.00  0.00    +0.000 A 
BRANCH   7   8
ATOM      8  C   UNL     1       2.310   6.443  18.496  0.00  0.00    +0.000 A 
ATOM      9  C   UNL     1       2.253   7.566  17.691  0.00  0.00    +0.000 A 
ATOM     10  C   UNL     1       2.029   8.671  18.545  0.00  0.00    +0.000 A 
ATOM     11  C   UNL     1       1.914   8.153  19.813  0.00  0.00    +0.000 A 
ATOM     12  O   UNL     1       2.066   6.802  19.791  0.00  0.00    +0.000 OA
ENDBRANCH   7   8
ENDBRANCH   1   2
BRANCH   1  13
ATOM     13  N   UNL     1       6.010   5.462  17.560  0.00  0.00    +0.000 NA
ATOM     14  C   UNL     1       6.563   6.825  17.529  0.00  0.00    +0.000 C 
BRANCH  13  15
ATOM     15  C   UNL     1       6.960   4.519  16.911  0.00  0.00    +0.000 C 
BRANCH  15  19
ATOM     16  C   UNL     1       6.636   4.213  13.354  0.00  0.00    +0.000 A 
ATOM     17  N   UNL     1       7.480   5.252  13.403  0.00  0.00    +0.000 NA
ATOM     18  O   UNL     1       7.653   5.465  14.769  0.00  0.00    +0.000 OA
ATOM     19  C   UNL     1       6.903   4.518  15.410  0.00  0.00    +0.000 A 
ATOM     20  N   UNL     1       6.253   3.725  14.584  0.00  0.00    +0.000 NA
BRANCH  16  22
ATOM     21  C   UNL     1       6.930   2.355  11.692  0.00  0.00    +0.000 C 
ATOM     22  C   UNL     1       6.175   3.635  12.052  0.00  0.00    +0.000 C 
ATOM     23  C   UNL     1       4.666   3.386  12.042  0.00  0.00    +0.000 C 
ENDBRANCH  16  22
ENDBRANCH  15  19
ENDBRANCH  13  15
ENDBRANCH   1  13
TORSDOF 6
ENDMDL
MODEL 3
REMARK VINA RESULT:      -7.4      1.472      3.421
REMARK  Name = 
REMARK  9 active torsions:
REMARK  status: ('A' for Active; 'I' for Inactive)
REMARK    1  A    between atoms: C_1  and  C_2
REMARK    2  A    between atoms: C_2  and  C_3
REMARK    3  A    between atoms: C_2  and  C_4
REMARK    4  A    between atoms: C_7  and  C_8
REMARK    5  A    between atoms: C_8  and  N_9
REMARK    6  A    between atoms: N_9  and  C_10
REMARK    7  A    between atoms: N_9  and  C_11
REMARK    8  A    between atoms: C_11  and  C_12
REMARK    9  A    between atoms: C_17  and  C_18
REMARK                            x       y       z     vdW  Elec       q    Type
REMARK                         _______ _______ _______ _____ _____    ______ ____
ROOT
ATOM      1  C   UNL     1       4.373   5.856  17.274  0.00  0.00    +0.000 C 
ENDROOT
BRANCH   1   2
ATOM      2  C   UNL     1       3.371   6.087  18.401  0.00  0.00    +0.000 A 
ATOM      3  C   UNL     1       2.904   7.395  18.662  0.00  0.00    +0.000 A 
ATOM      4  C   UNL     1       2.011   7.660  19.701  0.00  0.00    +0.000 A 
ATOM      5  C   UNL     1       1.521   6.617  20.474  0.00  0.00    +0.000 A 
ATOM      6  C   UNL     1       1.922   5.311  20.200  0.00  0.00    +0.000 A 
ATOM      7  C   UNL     1       2.845   5.020  19.173  0.00  0.00    +0.000 A 
BRANCH   7   8
ATOM      8  C   UNL     1       3.240   3.618  19.013  0.00  0.00    +0.000 A 
ATOM      9  C   UNL     1       2.834   2.615  18.150  0.00  0.00    +0.000 A 
ATOM     10  C   UNL     1       3.555   1.452  18.507  0.00  0.00    +0.000 A 
ATOM     11  C   UNL     1       4.391   1.823  19.532  0.00  0.00    +0.000 A 
ATOM     12  O   UNL     1       4.220   3.137  19.834  0.00  0.00    +0.000 OA
ENDBRANCH   7   8
ENDBRANCH   1   2
BRANCH   1  13
ATOM     13  N   UNL     1       5.805   5.803  17.672  0.00  0.00    +0.000 NA
ATOM     14  C   UNL     1       6.482   7.008  17.167  0.00  0.00    +0.000 C 
BRANCH  13  15
ATOM     15  C   UNL     1       6.468   4.589  17.128  0.00  0.00    +0.000 C 
BRANCH  15  19
ATOM     16  C   UNL     1       6.619   4.329  13.556  0.00  0.00    +0.000 A 
ATOM     17  N   UNL     1       7.627   5.190  13.750  0.00  0.00    +0.000 NA
ATOM     18  O   UNL     1       7.633   5.375  15.131  0.00  0.00    +0.000 OA
ATOM     19  C   UNL     1       6.634   4.590  15.635  0.00  0.00    +0.000 A 
ATOM     20  N   UNL     1       5.975   3.929  14.705  0.00  0.00    +0.000 NA
BRANCH  16  22
ATOM     21  C   UNL     1       7.193   2.733  11.704  0.00  0.00    +0.000 C 
ATOM     22  C   UNL     1       6.255   3.841  12.188  0.00  0.00    +0.000 C 
ATOM     23  C   UNL     1       4.799   3.377  12.117  0.00  0.00    +0.000 C 
ENDBRANCH  16  22
ENDBRANCH  15  19
ENDBRANCH  13  15
ENDBRANCH   1  13
TORSDOF 6
ENDMDL
MODEL 4
REMARK VINA RESULT:      -7.3      0.916      1.341
REMARK  Name = 
REMARK  9 active torsions:
REMARK  status: ('A' for Active; 'I' for Inactive)
REMARK    1  A    between atoms: C_1  and  C_2
REMARK    2  A    between atoms: C_2  and  C_3
REMARK    3  A    between atoms: C_2  and  C_4
REMARK    4  A    between atoms: C_7  and  C_8
REMARK    5  A    between atoms: C_8  and  N_9
REMARK    6  A    between atoms: N_9  and  C_10
REMARK    7  A    between atoms: N_9  and  C_11
REMARK    8  A    between atoms: C_11  and  C_12
REMARK    9  A    between atoms: C_17  and  C_18
REMARK                            x       y       z     vdW  Elec       q    Type
REMARK                         _______ _______ _______ _____ _____    ______ ____
ROOT
ATOM      1  C   UNL     1       5.254   5.480  18.596  0.00  0.00    +0.000 C 
ENDROOT
BRANCH   1   2
ATOM      2  C   UNL     1       4.042   4.577  18.385  0.00  0.00    +0.000 A 
ATOM      3  C   UNL     1       4.235   3.219  18.050  0.00  0.00    +0.000 A 
ATOM      4  C   UNL     1       3.158   2.362  17.817  0.00  0.00    +0.000 A 
ATOM      5  C   UNL     1       1.860   2.827  17.964  0.00  0.00    +0.000 A 
ATOM      6  C   UNL     1       1.643   4.149  18.350  0.00  0.00    +0.000 A 
ATOM      7  C   UNL     1       2.714   5.043  18.564  0.00  0.00    +0.000 A 
BRANCH   7   8
ATOM      8  C   UNL     1       2.368   6.424  18.909  0.00  0.00    +0.000 A 
ATOM      9  C   UNL     1       2.084   7.056  20.106  0.00  0.00    +0.000 A 
ATOM     10  C   UNL     1       1.782   8.402  19.797  0.00  0.00    +0.000 A 
ATOM     11  C   UNL     1       1.945   8.526  18.439  0.00  0.00    +0.000 A 
ATOM     12  O   UNL     1       2.316   7.337  17.894  0.00  0.00    +0.000 OA
ENDBRANCH   7   8
ENDBRANCH   1   2
BRANCH   1  13
ATOM     13  N   UNL     1       6.038   5.818  17.378  0.00  0.00    +0.000 NA
ATOM     14  C   UNL     1       5.127   6.376  16.367  0.00  0.00    +0.000 C 
BRANCH  13  15
ATOM     15  C   UNL     1       6.721   4.616  16.829  0.00  0.00    +0.000 C 
BRANCH  15  19
ATOM     16  C   UNL     1       6.654   4.209  13.269  0.00  0.00    +0.000 A 
ATOM     17  N   UNL     1       7.550   5.201  13.354  0.00  0.00    +0.000 NA
ATOM     18  O   UNL     1       7.629   5.449  14.722  0.00  0.00    +0.000 OA
ATOM     19  C   UNL     1       6.780   4.567  15.330  0.00  0.00    +0.000 A 
ATOM     20  N   UNL     1       6.150   3.785  14.478  0.00  0.00    +0.000 NA
BRANCH  16  22
ATOM     21  C   UNL     1       7.109   2.391  11.598  0.00  0.00    +0.000 C 
ATOM     22  C   UNL     1       6.262   3.614  11.952  0.00  0.00    +0.000 C 
ATOM     23  C   UNL     1       4.773   3.264  11.905  0.00  0.00    +0.000 C 
ENDBRANCH  16  22
ENDBRANCH  15  19
ENDBRANCH  13  15
ENDBRANCH   1  13
TORSDOF 6
ENDMDL
MODEL 5
REMARK VINA RESULT:      -7.3      1.415      1.962
REMARK  Name = 
REMARK  9 active torsions:
REMARK  status: ('A' for Active; 'I' for Inactive)
REMARK    1  A    between atoms: C_1  and  C_2
REMARK    2  A    between atoms: C_2  and  C_3
REMARK    3  A    between atoms: C_2  and  C_4
REMARK    4  A    between atoms: C_7  and  C_8
REMARK    5  A    between atoms: C_8  and  N_9
REMARK    6  A    between atoms: N_9  and  C_10
REMARK    7  A    between atoms: N_9  and  C_11
REMARK    8  A    between atoms: C_11  and  C_12
REMARK    9  A    between atoms: C_17  and  C_18
REMARK                            x       y       z     vdW  Elec       q    Type
REMARK                         _______ _______ _______ _____ _____    ______ ____
ROOT
ATOM      1  C   UNL     1       4.909   4.951  18.947  0.00  0.00    +0.000 C 
ENDROOT
BRANCH   1   2
ATOM      2  C   UNL     1       3.671   4.447  19.683  0.00  0.00    +0.000 A 
ATOM      3  C   UNL     1       3.697   3.176  20.300  0.00  0.00    +0.000 A 
ATOM      4  C   UNL     1       2.580   2.660  20.958  0.00  0.00    +0.000 A 
ATOM      5  C   UNL     1       1.425   3.421  21.062  0.00  0.00    +0.000 A 
ATOM      6  C   UNL     1       1.393   4.701  20.511  0.00  0.00    +0.000 A 
ATOM      7  C   UNL     1       2.499   5.235  19.816  0.00  0.00    +0.000 A 
BRANCH   7   8
ATOM      8  C   UNL     1       2.334   6.567  19.228  0.00  0.00    +0.000 A 
ATOM      9  C   UNL     1       2.511   7.062  17.948  0.00  0.00    +0.000 A 
ATOM     10  C   UNL     1       2.233   8.448  18.003  0.00  0.00    +0.000 A 
ATOM     11  C   UNL     1       1.857   8.708  19.299  0.00  0.00    +0.000 A 
ATOM     12  O   UNL     1       1.900   7.572  20.044  0.00  0.00    +0.000 OA
ENDBRANCH   7   8
ENDBRANCH   1   2
BRANCH   1  13
ATOM     13  N   UNL     1       4.955   4.685  17.485  0.00  0.00    +0.000 NA
ATOM     14  C   UNL     1       4.106   3.521  17.188  0.00  0.00    +0.000 C 
BRANCH  13  15
ATOM     15  C   UNL     1       6.346   4.420  17.031  0.00  0.00    +0.000 C 
BRANCH  15  19
ATOM     16  C   UNL     1       6.583   4.247  13.459  0.00  0.00    +0.000 A 
ATOM     17  N   UNL     1       7.464   5.232  13.684  0.00  0.00    +0.000 NA
ATOM     18  O   UNL     1       7.425   5.390  15.067  0.00  0.00    +0.000 OA
ATOM     19  C   UNL     1       6.532   4.470  15.542  0.00  0.00    +0.000 A 
ATOM     20  N   UNL     1       5.982   3.744  14.590  0.00  0.00    +0.000 NA
BRANCH  16  22
ATOM     21  C   UNL     1       7.261   2.611  11.678  0.00  0.00    +0.000 C 
ATOM     22  C   UNL     1       6.308   3.739  12.077  0.00  0.00    +0.000 C 
ATOM     23  C   UNL     1       4.854   3.293  11.913  0.00  0.00    +0.000 C 
ENDBRANCH  16  22
ENDBRANCH  15  19
ENDBRANCH  13  15
ENDBRANCH   1  13
TORSDOF 6
ENDMDL
MODEL 6
REMARK VINA RESULT:      -7.2      1.309      1.573
REMARK  Name = 
REMARK  9 active torsions:
REMARK  status: ('A' for Active; 'I' for Inactive)
REMARK    1  A    between atoms: C_1  and  C_2
REMARK    2  A    between atoms: C_2  and  C_3
REMARK    3  A    between atoms: C_2  and  C_4
REMARK    4  A    between atoms: C_7  and  C_8
REMARK    5  A    between atoms: C_8  and  N_9
REMARK    6  A    between atoms: N_9  and  C_10
REMARK    7  A    between atoms: N_9  and  C_11
REMARK    8  A    between atoms: C_11  and  C_12
REMARK    9  A    between atoms: C_17  and  C_18
REMARK                            x       y       z     vdW  Elec       q    Type
REMARK                         _______ _______ _______ _____ _____    ______ ____
ROOT
ATOM      1  C   UNL     1       4.624   5.475  19.354  0.00  0.00    +0.000 C 
ENDROOT
BRANCH   1   2
ATOM      2  C   UNL     1       3.428   4.668  19.851  0.00  0.00    +0.000 A 
ATOM      3  C   UNL     1       3.554   3.273  20.027  0.00  0.00    +0.000 A 
ATOM      4  C   UNL     1       2.479   2.488  20.450  0.00  0.00    +0.000 A 
ATOM      5  C   UNL     1       1.265   3.086  20.757  0.00  0.00    +0.000 A 
ATOM      6  C   UNL     1       1.132   4.469  20.646  0.00  0.00    +0.000 A 
ATOM      7  C   UNL     1       2.195   5.281  20.194  0.00  0.00    +0.000 A 
BRANCH   7   8
ATOM      8  C   UNL     1       1.925   6.715  20.059  0.00  0.00    +0.000 A 
ATOM      9  C   UNL     1       1.463   7.675  20.940  0.00  0.00    +0.000 A 
ATOM     10  C   UNL     1       1.368   8.885  20.215  0.00  0.00    +0.000 A 
ATOM     11  C   UNL     1       1.821   8.605  18.948  0.00  0.00    +0.000 A 
ATOM     12  O   UNL     1       2.176   7.296  18.849  0.00  0.00    +0.000 OA
ENDBRANCH   7   8
ENDBRANCH   1   2
BRANCH   1  13
ATOM     13  N   UNL     1       4.872   5.442  17.888  0.00  0.00    +0.000 NA
ATOM     14  C   UNL     1       3.725   4.801  17.227  0.00  0.00    +0.000 C 
BRANCH  13  15
ATOM     15  C   UNL     1       6.117   4.691  17.572  0.00  0.00    +0.000 C 
BRANCH  15  19
ATOM     16  C   UNL     1       6.810   4.359  14.071  0.00  0.00    +0.000 A 
ATOM     17  N   UNL     1       7.570   5.429  14.339  0.00  0.00    +0.000 NA
ATOM     18  O   UNL     1       7.346   5.654  15.695  0.00  0.00    +0.000 OA
ATOM     19  C   UNL     1       6.482   4.682  16.116  0.00  0.00    +0.000 A 
ATOM     20  N   UNL     1       6.116   3.862  15.152  0.00  0.00    +0.000 NA
BRANCH  16  22
ATOM     21  C   UNL     1       5.327   3.367  12.304  0.00  0.00    +0.000 C 
ATOM     22  C   UNL     1       6.752   3.759  12.701  0.00  0.00    +0.000 C 
ATOM     23  C   UNL     1       7.364   4.684  11.647  0.00  0.00    +0.000 C 
ENDBRANCH  16  22
ENDBRANCH  15  19
ENDBRANCH  13  15
ENDBRANCH   1  13
TORSDOF 6
ENDMDL
MODEL 7
REMARK VINA RESULT:      -7.2      1.403      1.803
REMARK  Name = 
REMARK  9 active torsions:
REMARK  status: ('A' for Active; 'I' for Inactive)
REMARK    1  A    between atoms: C_1  and  C_2
REMARK    2  A    between atoms: C_2  and  C_3
REMARK    3  A    between atoms: C_2  and  C_4
REMARK    4  A    between atoms: C_7  and  C_8
REMARK    5  A    between atoms: C_8  and  N_9
REMARK    6  A    between atoms: N_9  and  C_10
REMARK    7  A    between atoms: N_9  and  C_11
REMARK    8  A    between atoms: C_11  and  C_12
REMARK    9  A    between atoms: C_17  and  C_18
REMARK                            x       y       z     vdW  Elec       q    Type
REMARK                         _______ _______ _______ _____ _____    ______ ____
ROOT
ATOM      1  C   UNL     1       4.727   5.378  17.484  0.00  0.00    +0.000 C 
ENDROOT
BRANCH   1   2
ATOM      2  C   UNL     1       3.890   4.848  18.645  0.00  0.00    +0.000 A 
ATOM      3  C   UNL     1       4.143   3.554  19.152  0.00  0.00    +0.000 A 
ATOM      4  C   UNL     1       3.385   3.015  20.193  0.00  0.00    +0.000 A 
ATOM      5  C   UNL     1       2.387   3.774  20.787  0.00  0.00    +0.000 A 
ATOM      6  C   UNL     1       2.156   5.075  20.343  0.00  0.00    +0.000 A 
ATOM      7  C   UNL     1       2.890   5.633  19.275  0.00  0.00    +0.000 A 
BRANCH   7   8
ATOM      8  C   UNL     1       2.523   6.987  18.852  0.00  0.00    +0.000 A 
ATOM      9  C   UNL     1       2.649   7.670  17.656  0.00  0.00    +0.000 A 
ATOM     10  C   UNL     1       2.144   8.973  17.872  0.00  0.00    +0.000 A 
ATOM     11  C   UNL     1       1.696   8.995  19.171  0.00  0.00    +0.000 A 
ATOM     12  O   UNL     1       1.906   7.792  19.767  0.00  0.00    +0.000 OA
ENDBRANCH   7   8
ENDBRANCH   1   2
BRANCH   1  13
ATOM     13  N   UNL     1       6.174   5.580  17.760  0.00  0.00    +0.000 NA
ATOM     14  C   UNL     1       6.567   6.912  17.274  0.00  0.00    +0.000 C 
BRANCH  13  15
ATOM     15  C   UNL     1       6.998   4.538  17.091  0.00  0.00    +0.000 C 
BRANCH  15  19
ATOM     16  C   UNL     1       6.617   4.299  13.535  0.00  0.00    +0.000 A 
ATOM     17  N   UNL     1       7.528   5.280  13.587  0.00  0.00    +0.000 NA
ATOM     18  O   UNL     1       7.729   5.464  14.953  0.00  0.00    +0.000 OA
ATOM     19  C   UNL     1       6.926   4.560  15.591  0.00  0.00    +0.000 A 
ATOM     20  N   UNL     1       6.216   3.822  14.762  0.00  0.00    +0.000 NA
BRANCH  16  22
ATOM     21  C   UNL     1       6.911   2.563  11.744  0.00  0.00    +0.000 C 
ATOM     22  C   UNL     1       6.106   3.770  12.231  0.00  0.00    +0.000 C 
ATOM     23  C   UNL     1       4.617   3.425  12.301  0.00  0.00    +0.000 C 
ENDBRANCH  16  22
ENDBRANCH  15  19
ENDBRANCH  13  15
ENDBRANCH   1  13
TORSDOF 6
ENDMDL
MODEL 8
REMARK VINA RESULT:      -7.1      0.947      1.149
REMARK  Name = 
REMARK  9 active torsions:
REMARK  status: ('A' for Active; 'I' for Inactive)
REMARK    1  A    between atoms: C_1  and  C_2
REMARK    2  A    between atoms: C_2  and  C_3
REMARK    3  A    between atoms: C_2  and  C_4
REMARK    4  A    between atoms: C_7  and  C_8
REMARK    5  A    between atoms: C_8  and  N_9
REMARK    6  A    between atoms: N_9  and  C_10
REMARK    7  A    between atoms: N_9  and  C_11
REMARK    8  A    between atoms: C_11  and  C_12
REMARK    9  A    between atoms: C_17  and  C_18
REMARK                            x       y       z     vdW  Elec       q    Type
REMARK                         _______ _______ _______ _____ _____    ______ ____
ROOT
ATOM      1  C   UNL     1       5.488   5.596  19.345  0.00  0.00    +0.000 C 
ENDROOT
BRANCH   1   2
ATOM      2  C   UNL     1       4.326   4.616  19.210  0.00  0.00    +0.000 A 
ATOM      3  C   UNL     1       4.572   3.228  19.292  0.00  0.00    +0.000 A 
ATOM      4  C   UNL     1       3.546   2.293  19.144  0.00  0.00    +0.000 A 
ATOM      5  C   UNL     1       2.240   2.722  18.962  0.00  0.00    +0.000 A 
ATOM      6  C   UNL     1       1.963   4.088  18.935  0.00  0.00    +0.000 A 
ATOM      7  C   UNL     1       2.985   5.053  19.054  0.00  0.00    +0.000 A 
BRANCH   7   8
ATOM      8  C   UNL     1       2.586   6.460  18.953  0.00  0.00    +0.000 A 
ATOM      9  C   UNL     1       2.071   7.363  19.864  0.00  0.00    +0.000 A 
ATOM     10  C   UNL     1       1.847   8.571  19.163  0.00  0.00    +0.000 A 
ATOM     11  C   UNL     1       2.283   8.350  17.879  0.00  0.00    +0.000 A 
ATOM     12  O   UNL     1       2.748   7.079  17.746  0.00  0.00    +0.000 OA
ENDBRANCH   7   8
ENDBRANCH   1   2
BRANCH   1  13
ATOM     13  N   UNL     1       6.753   5.208  18.666  0.00  0.00    +0.000 NA
ATOM     14  C   UNL     1       7.881   5.489  19.568  0.00  0.00    +0.000 C 
BRANCH  13  15
ATOM     15  C   UNL     1       6.930   5.957  17.393  0.00  0.00    +0.000 C 
BRANCH  15  19
ATOM     16  C   UNL     1       6.625   4.216  14.275  0.00  0.00    +0.000 A 
ATOM     17  N   UNL     1       5.663   3.589  14.964  0.00  0.00    +0.000 NA
ATOM     18  O   UNL     1       5.720   4.191  16.219  0.00  0.00    +0.000 OA
ATOM     19  C   UNL     1       6.705   5.136  16.155  0.00  0.00    +0.000 A 
ATOM     20  N   UNL     1       7.298   5.187  14.980  0.00  0.00    +0.000 NA
BRANCH  16  22
ATOM     21  C   UNL     1       5.683   3.326  12.124  0.00  0.00    +0.000 C 
ATOM     22  C   UNL     1       6.914   3.879  12.845  0.00  0.00    +0.000 C 
ATOM     23  C   UNL     1       7.487   5.075  12.082  0.00  0.00    +0.000 C 
ENDBRANCH  16  22
ENDBRANCH  15  19
ENDBRANCH  13  15
ENDBRANCH   1  13
TORSDOF 6
ENDMDL
MODEL 9
REMARK VINA RESULT:      -7.1      0.913      1.368
REMARK  Name = 
REMARK  9 active torsions:
REMARK  status: ('A' for Active; 'I' for Inactive)
REMARK    1  A    between atoms: C_1  and  C_2
REMARK    2  A    between atoms: C_2  and  C_3
REMARK    3  A    between atoms: C_2  and  C_4
REMARK    4  A    between atoms: C_7  and  C_8
REMARK    5  A    between atoms: C_8  and  N_9
REMARK    6  A    between atoms: N_9  and  C_10
REMARK    7  A    between atoms: N_9  and  C_11
REMARK    8  A    between atoms: C_11  and  C_12
REMARK    9  A    between atoms: C_17  and  C_18
REMARK                            x       y       z     vdW  Elec       q    Type
REMARK                         _______ _______ _______ _____ _____    ______ ____
ROOT
ATOM      1  C   UNL     1       5.228   5.356  19.333  0.00  0.00    +0.000 C 
ENDROOT
BRANCH   1   2
ATOM      2  C   UNL     1       4.063   4.482  18.879  0.00  0.00    +0.000 A 
ATOM      3  C   UNL     1       4.254   3.092  18.719  0.00  0.00    +0.000 A 
ATOM      4  C   UNL     1       3.227   2.258  18.276  0.00  0.00    +0.000 A 
ATOM      5  C   UNL     1       1.966   2.783  18.031  0.00  0.00    +0.000 A 
ATOM      6  C   UNL     1       1.736   4.142  18.237  0.00  0.00    +0.000 A 
ATOM      7  C   UNL     1       2.765   5.012  18.657  0.00  0.00    +0.000 A 
BRANCH   7   8
ATOM      8  C   UNL     1       2.425   6.432  18.784  0.00  0.00    +0.000 A 
ATOM      9  C   UNL     1       2.388   7.478  17.880  0.00  0.00    +0.000 A 
ATOM     10  C   UNL     1       2.021   8.634  18.607  0.00  0.00    +0.000 A 
ATOM     11  C   UNL     1       1.809   8.219  19.899  0.00  0.00    +0.000 A 
ATOM     12  O   UNL     1       2.035   6.883  20.012  0.00  0.00    +0.000 OA
ENDBRANCH   7   8
ENDBRANCH   1   2
BRANCH   1  13
ATOM     13  N   UNL     1       6.476   5.251  18.530  0.00  0.00    +0.000 NA
ATOM     14  C   UNL     1       7.605   5.725  19.346  0.00  0.00    +0.000 C 
BRANCH  13  15
ATOM     15  C   UNL     1       6.382   6.059  17.285  0.00  0.00    +0.000 C 
BRANCH  15  19
ATOM     16  C   UNL     1       6.167   4.430  14.100  0.00  0.00    +0.000 A 
ATOM     17  N   UNL     1       6.199   3.349  14.891  0.00  0.00    +0.000 NA
ATOM     18  O   UNL     1       6.306   3.888  16.171  0.00  0.00    +0.000 OA
ATOM     19  C   UNL     1       6.313   5.247  16.024  0.00  0.00    +0.000 A 
ATOM     20  N   UNL     1       6.235   5.632  14.767  0.00  0.00    +0.000 NA
BRANCH  16  22
ATOM     21  C   UNL     1       7.407   4.101  11.942  0.00  0.00    +0.000 C 
ATOM     22  C   UNL     1       6.048   4.311  12.612  0.00  0.00    +0.000 C 
ATOM     23  C   UNL     1       5.075   3.204  12.204  0.00  0.00    +0.000 C 
ENDBRANCH  16  22
ENDBRANCH  15  19
ENDBRANCH  13  15
ENDBRANCH   1  13
TORSDOF 6
ENDMDL
