MODEL 1
REMARK VINA RESULT:      -7.6      0.000      0.000
REMARK  Name = 
REMARK  4 active torsions:
REMARK  status: ('A' for Active; 'I' for Inactive)
REMARK    1  A    between atoms: C_1  and  C_2
REMARK    2  A    between atoms: N_4  and  C_5
REMARK    3  A    between atoms: C_9  and  C_11
REMARK    4  A    between atoms: C_11  and  N_12
REMARK                            x       y       z     vdW  Elec       q    Type
REMARK                         _______ _______ _______ _____ _____    ______ ____
ROOT
ATOM      1  C   UNL     1       1.170   9.884  19.239  0.00  0.00    +0.000 C 
ATOM      2  C   UNL     1       1.555   9.259  20.596  0.00  0.00    +0.000 C 
ATOM      3  C   UNL     1       1.425   7.738  20.664  0.00  0.00    +0.000 C 
ATOM      4  N   UNL     1       2.025   7.048  19.523  0.00  0.00    +0.000 N 
ATOM      5  C   UNL     1       2.288   5.680  19.698  0.00  0.00    +0.000 C 
ATOM      6  O   UNL     1       2.078   5.110  20.769  0.00  0.00    +0.000 OA
ATOM      7  C   UNL     1       1.719   7.591  18.199  0.00  0.00    +0.000 C 
ATOM      8  C   UNL     1       1.898   9.099  18.130  0.00  0.00    +0.000 C 
ENDROOT
BRANCH   1  12
ATOM      9  C   UNL     1      -2.641  10.091  16.050  0.00  0.00    +0.000 C 
ATOM     10  C   UNL     1      -2.302  10.267  17.530  0.00  0.00    +0.000 C 
ATOM     11  C   UNL     1      -0.828   9.876  17.737  0.00  0.00    +0.000 C 
ATOM     12  N   UNL     1      -0.281  10.160  19.067  0.00  0.00    +0.000 NA
ATOM     13  C   UNL     1      -0.647  11.537  19.467  0.00  0.00    +0.000 C 
ATOM     14  C   UNL     1      -2.137  11.847  19.254  0.00  0.00    +0.000 C 
ATOM     15  O   UNL     1      -2.519  11.637  17.889  0.00  0.00    +0.000 OA
ENDBRANCH   1  12
BRANCH   5  16
ATOM     16  C   UNL     1       2.910   4.918  18.538  0.00  0.00    +0.000 C 
BRANCH  16  17
ATOM     17  N   UNL     1       4.361   5.030  18.446  0.00  0.00    +0.000 N 
ATOM     18  C   UNL     1       5.202   5.428  19.455  0.00  0.00    +0.000 A 
ATOM     19  C   UNL     1       6.493   5.351  18.993  0.00  0.00    +0.000 A 
ATOM     20  C   UNL     1       6.443   4.963  17.629  0.00  0.00    +0.000 A 
ATOM     21  C   UNL     1       7.423   4.764  16.638  0.00  0.00    +0.000 A 
ATOM     22  C   UNL     1       7.034   4.431  15.338  0.00  0.00    +0.000 A 
ATOM     23  C   UNL     1       5.687   4.287  15.019  0.00  0.00    +0.000 A 
ATOM     24  C   UNL     1       4.694   4.452  15.991  0.00  0.00    +0.000 A 
ATOM     25  C   UNL     1       5.091   4.791  17.296  0.00  0.00    +0.000 A 
ENDBRANCH  16  17
ENDBRANCH   5  16
TORSDOF 3
ENDMDL
MODEL 2
REMARK VINA RESULT:      -7.4      1.890      2.617
REMARK  Name = 
REMARK  4 active torsions:
REMARK  status: ('A' for Active; 'I' for Inactive)
REMARK    1  A    between atoms: C_1  and  C_2
REMARK    2  A    between atoms: N_4  and  C_5
REMARK    3  A    between atoms: C_9  and  C_11
REMARK    4  A    between atoms: C_11  and  N_12
REMARK                            x       y       z     vdW  Elec       q    Type
REMARK                         _______ _______ _______ _____ _____    ______ ____
ROOT
ATOM      1  C   UNL     1      -0.159  11.128  19.242  0.00  0.00    +0.000 C 
ATOM      2  C   UNL     1       0.263  10.522  20.597  0.00  0.00    +0.000 C 
ATOM      3  C   UNL     1       0.617   9.036  20.555  0.00  0.00    +0.000 C 
ATOM      4  N   UNL     1       1.519   8.680  19.460  0.00  0.00    +0.000 N 
ATOM      5  C   UNL     1       2.184   7.450  19.584  0.00  0.00    +0.000 C 
ATOM      6  O   UNL     1       2.057   6.741  20.583  0.00  0.00    +0.000 OA
ATOM      7  C   UNL     1       1.194   9.229  18.144  0.00  0.00    +0.000 C 
ATOM      8  C   UNL     1       0.890  10.719  18.190  0.00  0.00    +0.000 C 
ENDROOT
BRANCH   1  12
ATOM      9  C   UNL     1      -3.494  10.506  15.605  0.00  0.00    +0.000 C 
ATOM     10  C   UNL     1      -3.380  10.608  17.126  0.00  0.00    +0.000 C 
ATOM     11  C   UNL     1      -1.887  10.672  17.494  0.00  0.00    +0.000 C 
ATOM     12  N   UNL     1      -1.597  10.959  18.903  0.00  0.00    +0.000 NA
ATOM     13  C   UNL     1      -2.424  12.100  19.355  0.00  0.00    +0.000 C 
ATOM     14  C   UNL     1      -3.905  11.955  18.972  0.00  0.00    +0.000 C 
ATOM     15  O   UNL     1      -4.061  11.794  17.557  0.00  0.00    +0.000 OA
ENDBRANCH   1  12
BRANCH   5  16
ATOM     16  C   UNL     1       3.131   7.035  18.469  0.00  0.00    +0.000 C 
BRANCH  16  17
ATOM     17  N   UNL     1       3.769   5.738  18.666  0.00  0.00    +0.000 N 
ATOM     18  C   UNL     1       5.098   5.530  18.939  0.00  0.00    +0.000 A 
ATOM     19  C   UNL     1       5.295   4.182  19.108  0.00  0.00    +0.000 A 
ATOM     20  C   UNL     1       4.061   3.528  18.857  0.00  0.00    +0.000 A 
ATOM     21  C   UNL     1       3.662   2.178  18.836  0.00  0.00    +0.000 A 
ATOM     22  C   UNL     1       2.349   1.851  18.486  0.00  0.00    +0.000 A 
ATOM     23  C   UNL     1       1.434   2.849  18.167  0.00  0.00    +0.000 A 
ATOM     24  C   UNL     1       1.797   4.200  18.207  0.00  0.00    +0.000 A 
ATOM     25  C   UNL     1       3.118   4.523  18.555  0.00  0.00    +0.000 A 
ENDBRANCH  16  17
ENDBRANCH   5  16
TORSDOF 3
ENDMDL
MODEL 3
REMARK VINA RESULT:      -7.4      1.816      8.349
REMARK  Name = 
REMARK  4 active torsions:
REMARK  status: ('A' for Active; 'I' for Inactive)
REMARK    1  A    between atoms: C_1  and  C_2
REMARK    2  A    between atoms: N_4  and  C_5
REMARK    3  A    between atoms: C_9  and  C_11
REMARK    4  A    between atoms: C_11  and  N_12
REMARK                            x       y       z     vdW  Elec       q    Type
REMARK                         _______ _______ _______ _____ _____    ______ ____
ROOT
ATOM      1  C   UNL     1       2.648   6.471  18.222  0.00  0.00    +0.000 C 
ATOM      2  C   UNL     1       1.884   6.413  19.562  0.00  0.00    +0.000 C 
ATOM      3  C   UNL     1       1.864   7.724  20.348  0.00  0.00    +0.000 C 
ATOM      4  N   UNL     1       1.512   8.888  19.535  0.00  0.00    +0.000 N 
ATOM      5  C   UNL     1       1.099  10.030  20.240  0.00  0.00    +0.000 C 
ATOM      6  O   UNL     1       0.985  10.030  21.466  0.00  0.00    +0.000 OA
ATOM      7  C   UNL     1       2.185   9.006  18.242  0.00  0.00    +0.000 C 
ATOM      8  C   UNL     1       2.157   7.709  17.447  0.00  0.00    +0.000 C 
ENDROOT
BRANCH   1  12
ATOM      9  C   UNL     1       6.774   4.987  15.876  0.00  0.00    +0.000 C 
ATOM     10  C   UNL     1       6.286   5.535  17.216  0.00  0.00    +0.000 C 
ATOM     11  C   UNL     1       4.791   5.877  17.081  0.00  0.00    +0.000 C 
ATOM     12  N   UNL     1       4.114   6.244  18.329  0.00  0.00    +0.000 NA
ATOM     13  C   UNL     1       4.461   5.267  19.384  0.00  0.00    +0.000 C 
ATOM     14  C   UNL     1       5.970   4.993  19.476  0.00  0.00    +0.000 C 
ATOM     15  O   UNL     1       6.489   4.534  18.221  0.00  0.00    +0.000 OA
ENDBRANCH   1  12
BRANCH   5  16
ATOM     16  C   UNL     1       0.725  11.267  19.439  0.00  0.00    +0.000 C 
BRANCH  16  17
ATOM     17  N   UNL     1      -0.703  11.564  19.411  0.00  0.00    +0.000 N 
ATOM     18  C   UNL     1      -1.378  12.342  20.317  0.00  0.00    +0.000 A 
ATOM     19  C   UNL     1      -2.690  12.424  19.918  0.00  0.00    +0.000 A 
ATOM     20  C   UNL     1      -2.844  11.609  18.767  0.00  0.00    +0.000 A 
ATOM     21  C   UNL     1      -3.944  11.271  17.955  0.00  0.00    +0.000 A 
ATOM     22  C   UNL     1      -3.773  10.370  16.901  0.00  0.00    +0.000 A 
ATOM     23  C   UNL     1      -2.525   9.813  16.643  0.00  0.00    +0.000 A 
ATOM     24  C   UNL     1      -1.410  10.152  17.417  0.00  0.00    +0.000 A 
ATOM     25  C   UNL     1      -1.588  11.055  18.478  0.00  0.00    +0.000 A 
ENDBRANCH  16  17
ENDBRANCH   5  16
TORSDOF 3
ENDMDL
MODEL 4
REMARK VINA RESULT:      -7.4      2.581      4.364
REMARK  Name = 
REMARK  4 active torsions:
REMARK  status: ('A' for Active; 'I' for Inactive)
REMARK    1  A    between atoms: C_1  and  C_2
REMARK    2  A    between atoms: N_4  and  C_5
REMARK    3  A    between atoms: C_9  and  C_11
REMARK    4  A    between atoms: C_11  and  N_12
REMARK                            x       y       z     vdW  Elec       q    Type
REMARK                         _______ _______ _______ _____ _____    ______ ____
ROOT
ATOM      1  C   UNL     1      -0.822  10.752  20.168  0.00  0.00    +0.000 C 
ATOM      2  C   UNL     1      -0.690  10.484  18.654  0.00  0.00    +0.000 C 
ATOM      3  C   UNL     1       0.686   9.996  18.204  0.00  0.00    +0.000 C 
ATOM      4  N   UNL     1       1.221   8.912  19.028  0.00  0.00    +0.000 N 
ATOM      5  C   UNL     1       2.266   8.166  18.462  0.00  0.00    +0.000 C 
ATOM      6  O   UNL     1       2.669   8.376  17.318  0.00  0.00    +0.000 OA
ATOM      7  C   UNL     1       1.120   9.085  20.477  0.00  0.00    +0.000 C 
ATOM      8  C   UNL     1      -0.268   9.525  20.918  0.00  0.00    +0.000 C 
ENDROOT
BRANCH   1  12
ATOM      9  C   UNL     1      -1.149  14.272  23.666  0.00  0.00    +0.000 C 
ATOM     10  C   UNL     1      -0.447  13.952  22.346  0.00  0.00    +0.000 C 
ATOM     11  C   UNL     1      -0.815  12.512  21.942  0.00  0.00    +0.000 C 
ATOM     12  N   UNL     1      -0.377  12.102  20.605  0.00  0.00    +0.000 NA
ATOM     13  C   UNL     1      -0.724  13.157  19.627  0.00  0.00    +0.000 C 
ATOM     14  C   UNL     1      -0.306  14.562  20.087  0.00  0.00    +0.000 C 
ATOM     15  O   UNL     1      -0.891  14.886  21.355  0.00  0.00    +0.000 OA
ENDBRANCH   1  12
BRANCH   5  16
ATOM     16  C   UNL     1       2.857   7.029  19.282  0.00  0.00    +0.000 C 
BRANCH  16  17
ATOM     17  N   UNL     1       3.055   5.787  18.544  0.00  0.00    +0.000 N 
ATOM     18  C   UNL     1       3.908   5.609  17.484  0.00  0.00    +0.000 A 
ATOM     19  C   UNL     1       3.848   4.292  17.101  0.00  0.00    +0.000 A 
ATOM     20  C   UNL     1       2.869   3.652  17.904  0.00  0.00    +0.000 A 
ATOM     21  C   UNL     1       2.348   2.344  17.944  0.00  0.00    +0.000 A 
ATOM     22  C   UNL     1       1.319   2.037  18.838  0.00  0.00    +0.000 A 
ATOM     23  C   UNL     1       0.813   3.011  19.693  0.00  0.00    +0.000 A 
ATOM     24  C   UNL     1       1.330   4.311  19.692  0.00  0.00    +0.000 A 
ATOM     25  C   UNL     1       2.362   4.615  18.788  0.00  0.00    +0.000 A 
ENDBRANCH  16  17
ENDBRANCH   5  16
TORSDOF 3
ENDMDL
MODEL 5
REMARK VINA RESULT:      -7.3      2.643      4.407
REMARK  Name = 
REMARK  4 active torsions:
REMARK  status: ('A' for Active; 'I' for Inactive)
REMARK    1  A    between atoms: C_1  and  C_2
REMARK    2  A    between atoms: N_4  and  C_5
REMARK    3  A    between atoms: C_9  and  C_11
REMARK    4  A    between atoms: C_11  and  N_12
REMARK                            x       y       z     vdW  Elec       q    Type
REMARK                         _______ _______ _______ _____ _____    ______ ____
ROOT
ATOM      1  C   UNL     1      -0.777  10.648  20.204  0.00  0.00    +0.000 C 
ATOM      2  C   UNL     1      -0.735  10.326  18.695  0.00  0.00    +0.000 C 
ATOM      3  C   UNL     1       0.630   9.885  18.169  0.00  0.00    +0.000 C 
ATOM      4  N   UNL     1       1.272   8.861  18.993  0.00  0.00    +0.000 N 
ATOM      5  C   UNL     1       2.313   8.143  18.384  0.00  0.00    +0.000 C 
ATOM      6  O   UNL     1       2.627   8.326  17.208  0.00  0.00    +0.000 OA
ATOM      7  C   UNL     1       1.260   9.087  20.438  0.00  0.00    +0.000 C 
ATOM      8  C   UNL     1      -0.114   9.478  20.958  0.00  0.00    +0.000 C 
ENDROOT
BRANCH   1  12
ATOM      9  C   UNL     1       3.012  13.816  20.779  0.00  0.00    +0.000 C 
ATOM     10  C   UNL     1       1.488  13.741  20.852  0.00  0.00    +0.000 C 
ATOM     11  C   UNL     1       1.050  12.343  20.379  0.00  0.00    +0.000 C 
ATOM     12  N   UNL     1      -0.371  12.033  20.559  0.00  0.00    +0.000 NA
ATOM     13  C   UNL     1      -0.790  12.413  21.926  0.00  0.00    +0.000 C 
ATOM     14  C   UNL     1      -0.339  13.829  22.320  0.00  0.00    +0.000 C 
ATOM     15  O   UNL     1       1.083  13.968  22.208  0.00  0.00    +0.000 OA
ENDBRANCH   1  12
BRANCH   5  16
ATOM     16  C   UNL     1       3.013   7.069  19.202  0.00  0.00    +0.000 C 
BRANCH  16  17
ATOM     17  N   UNL     1       3.114   5.772  18.542  0.00  0.00    +0.000 N 
ATOM     18  C   UNL     1       3.920   5.477  17.472  0.00  0.00    +0.000 A 
ATOM     19  C   UNL     1       3.772   4.144  17.178  0.00  0.00    +0.000 A 
ATOM     20  C   UNL     1       2.785   3.615  18.050  0.00  0.00    +0.000 A 
ATOM     21  C   UNL     1       2.193   2.346  18.192  0.00  0.00    +0.000 A 
ATOM     22  C   UNL     1       1.178   2.158  19.134  0.00  0.00    +0.000 A 
ATOM     23  C   UNL     1       0.757   3.213  19.938  0.00  0.00    +0.000 A 
ATOM     24  C   UNL     1       1.348   4.478  19.836  0.00  0.00    +0.000 A 
ATOM     25  C   UNL     1       2.364   4.662  18.884  0.00  0.00    +0.000 A 
ENDBRANCH  16  17
ENDBRANCH   5  16
TORSDOF 3
ENDMDL
MODEL 6
REMARK VINA RESULT:      -7.3      2.535      4.115
REMARK  Name = 
REMARK  4 active torsions:
REMARK  status: ('A' for Active; 'I' for Inactive)
REMARK    1  A    between atoms: C_1  and  C_2
REMARK    2  A    between atoms: N_4  and  C_5
REMARK    3  A    between atoms: C_9  and  C_11
REMARK    4  A    between atoms: C_11  and  N_12
REMARK                            x       y       z     vdW  Elec       q    Type
REMARK                         _______ _______ _______ _____ _____    ______ ____
ROOT
ATOM      1  C   UNL     1      -0.656  10.632  19.730  0.00  0.00    +0.000 C 
ATOM      2  C   UNL     1      -0.447  10.123  18.288  0.00  0.00    +0.000 C 
ATOM      3  C   UNL     1       0.951   9.579  17.993  0.00  0.00    +0.000 C 
ATOM      4  N   UNL     1       1.442   8.648  19.009  0.00  0.00    +0.000 N 
ATOM      5  C   UNL     1       2.515   7.828  18.626  0.00  0.00    +0.000 C 
ATOM      6  O   UNL     1       2.976   7.853  17.484  0.00  0.00    +0.000 OA
ATOM      7  C   UNL     1       1.266   9.053  20.403  0.00  0.00    +0.000 C 
ATOM      8  C   UNL     1      -0.142   9.547  20.696  0.00  0.00    +0.000 C 
ENDROOT
BRANCH   1  12
ATOM      9  C   UNL     1      -0.635  14.461  22.903  0.00  0.00    +0.000 C 
ATOM     10  C   UNL     1      -0.138  14.046  21.519  0.00  0.00    +0.000 C 
ATOM     11  C   UNL     1      -0.474  12.557  21.313  0.00  0.00    +0.000 C 
ATOM     12  N   UNL     1      -0.233  12.039  19.963  0.00  0.00    +0.000 NA
ATOM     13  C   UNL     1      -0.801  12.973  18.966  0.00  0.00    +0.000 C 
ATOM     14  C   UNL     1      -0.405  14.436  19.222  0.00  0.00    +0.000 C 
ATOM     15  O   UNL     1      -0.796  14.855  20.536  0.00  0.00    +0.000 OA
ENDBRANCH   1  12
BRANCH   5  16
ATOM     16  C   UNL     1       3.062   6.844  19.648  0.00  0.00    +0.000 C 
BRANCH  16  17
ATOM     17  N   UNL     1       2.331   5.585  19.732  0.00  0.00    +0.000 N 
ATOM     18  C   UNL     1       1.357   5.282  20.649  0.00  0.00    +0.000 A 
ATOM     19  C   UNL     1       0.876   4.028  20.366  0.00  0.00    +0.000 A 
ATOM     20  C   UNL     1       1.631   3.509  19.282  0.00  0.00    +0.000 A 
ATOM     21  C   UNL     1       1.626   2.280  18.594  0.00  0.00    +0.000 A 
ATOM     22  C   UNL     1       2.562   2.052  17.582  0.00  0.00    +0.000 A 
ATOM     23  C   UNL     1       3.490   3.032  17.245  0.00  0.00    +0.000 A 
ATOM     24  C   UNL     1       3.499   4.271  17.894  0.00  0.00    +0.000 A 
ATOM     25  C   UNL     1       2.559   4.494  18.914  0.00  0.00    +0.000 A 
ENDBRANCH  16  17
ENDBRANCH   5  16
TORSDOF 3
ENDMDL
MODEL 7
REMARK VINA RESULT:      -7.3      1.331      1.914
REMARK  Name = 
REMARK  4 active torsions:
REMARK  status: ('A' for Active; 'I' for Inactive)
REMARK    1  A    between atoms: C_1  and  C_2
REMARK    2  A    between atoms: N_4  and  C_5
REMARK    3  A    between atoms: C_9  and  C_11
REMARK    4  A    between atoms: C_11  and  N_12
REMARK                            x       y       z     vdW  Elec       q    Type
REMARK                         _______ _______ _______ _____ _____    ______ ____
ROOT
ATOM      1  C   UNL     1      -0.231  10.899  19.325  0.00  0.00    +0.000 C 
ATOM      2  C   UNL     1       0.118  10.090  20.591  0.00  0.00    +0.000 C 
ATOM      3  C   UNL     1       0.620   8.670  20.329  0.00  0.00    +0.000 C 
ATOM      4  N   UNL     1       1.652   8.595  19.297  0.00  0.00    +0.000 N 
ATOM      5  C   UNL     1       2.420   7.420  19.276  0.00  0.00    +0.000 C 
ATOM      6  O   UNL     1       2.270   6.531  20.114  0.00  0.00    +0.000 OA
ATOM      7  C   UNL     1       1.401   9.350  18.069  0.00  0.00    +0.000 C 
ATOM      8  C   UNL     1       0.949  10.776  18.341  0.00  0.00    +0.000 C 
ENDROOT
BRANCH   1  12
ATOM      9  C   UNL     1      -3.019   9.920  15.325  0.00  0.00    +0.000 C 
ATOM     10  C   UNL     1      -3.121  10.154  16.832  0.00  0.00    +0.000 C 
ATOM     11  C   UNL     1      -1.694  10.270  17.399  0.00  0.00    +0.000 C 
ATOM     12  N   UNL     1      -1.606  10.681  18.804  0.00  0.00    +0.000 NA
ATOM     13  C   UNL     1      -2.491  11.845  19.034  0.00  0.00    +0.000 C 
ATOM     14  C   UNL     1      -3.903  11.647  18.462  0.00  0.00    +0.000 C 
ATOM     15  O   UNL     1      -3.857  11.362  17.058  0.00  0.00    +0.000 OA
ENDBRANCH   1  12
BRANCH   5  16
ATOM     16  C   UNL     1       3.505   7.295  18.218  0.00  0.00    +0.000 C 
BRANCH  16  17
ATOM     17  N   UNL     1       3.672   5.952  17.674  0.00  0.00    +0.000 N 
ATOM     18  C   UNL     1       2.787   4.913  17.817  0.00  0.00    +0.000 A 
ATOM     19  C   UNL     1       3.274   3.836  17.119  0.00  0.00    +0.000 A 
ATOM     20  C   UNL     1       4.539   4.200  16.587  0.00  0.00    +0.000 A 
ATOM     21  C   UNL     1       5.511   3.514  15.834  0.00  0.00    +0.000 A 
ATOM     22  C   UNL     1       6.710   4.153  15.509  0.00  0.00    +0.000 A 
ATOM     23  C   UNL     1       6.946   5.463  15.916  0.00  0.00    +0.000 A 
ATOM     24  C   UNL     1       5.985   6.176  16.642  0.00  0.00    +0.000 A 
ATOM     25  C   UNL     1       4.783   5.527  16.969  0.00  0.00    +0.000 A 
ENDBRANCH  16  17
ENDBRANCH   5  16
TORSDOF 3
ENDMDL
MODEL 8
REMARK VINA RESULT:      -7.3      2.787      3.865
REMARK  Name = 
REMARK  4 active torsions:
REMARK  status: ('A' for Active; 'I' for Inactive)
REMARK    1  A    between atoms: C_1  and  C_2
REMARK    2  A    between atoms: N_4  and  C_5
REMARK    3  A    between atoms: C_9  and  C_11
REMARK    4  A    between atoms: C_11  and  N_12
REMARK                            x       y       z     vdW  Elec       q    Type
REMARK                         _______ _______ _______ _____ _____    ______ ____
ROOT
ATOM      1  C   UNL     1      -0.758  11.143  18.522  0.00  0.00    +0.000 C 
ATOM      2  C   UNL     1      -0.618  11.047  20.056  0.00  0.00    +0.000 C 
ATOM      3  C   UNL     1      -0.247   9.661  20.583  0.00  0.00    +0.000 C 
ATOM      4  N   UNL     1       0.866   9.041  19.865  0.00  0.00    +0.000 N 
ATOM      5  C   UNL     1       1.505   7.975  20.518  0.00  0.00    +0.000 C 
ATOM      6  O   UNL     1       1.181   7.622  21.653  0.00  0.00    +0.000 OA
ATOM      7  C   UNL     1       0.815   9.104  18.404  0.00  0.00    +0.000 C 
ATOM      8  C   UNL     1       0.492  10.498  17.889  0.00  0.00    +0.000 C 
ENDROOT
BRANCH   1  12
ATOM      9  C   UNL     1      -3.462  10.196  14.457  0.00  0.00    +0.000 C 
ATOM     10  C   UNL     1      -3.556  10.224  15.982  0.00  0.00    +0.000 C 
ATOM     11  C   UNL     1      -2.152  10.513  16.546  0.00  0.00    +0.000 C 
ATOM     12  N   UNL     1      -2.092  10.758  17.990  0.00  0.00    +0.000 NA
ATOM     13  C   UNL     1      -3.152  11.717  18.373  0.00  0.00    +0.000 C 
ATOM     14  C   UNL     1      -4.528  11.353  17.794  0.00  0.00    +0.000 C 
ATOM     15  O   UNL     1      -4.478  11.253  16.365  0.00  0.00    +0.000 OA
ENDBRANCH   1  12
BRANCH   5  16
ATOM     16  C   UNL     1       2.667   7.297  19.811  0.00  0.00    +0.000 C 
BRANCH  16  17
ATOM     17  N   UNL     1       2.336   6.021  19.186  0.00  0.00    +0.000 N 
ATOM     18  C   UNL     1       2.112   5.816  17.849  0.00  0.00    +0.000 A 
ATOM     19  C   UNL     1       1.885   4.476  17.652  0.00  0.00    +0.000 A 
ATOM     20  C   UNL     1       1.897   3.843  18.923  0.00  0.00    +0.000 A 
ATOM     21  C   UNL     1       1.687   2.519  19.351  0.00  0.00    +0.000 A 
ATOM     22  C   UNL     1       1.709   2.223  20.717  0.00  0.00    +0.000 A 
ATOM     23  C   UNL     1       1.946   3.224  21.652  0.00  0.00    +0.000 A 
ATOM     24  C   UNL     1       2.185   4.544  21.252  0.00  0.00    +0.000 A 
ATOM     25  C   UNL     1       2.157   4.837  19.878  0.00  0.00    +0.000 A 
ENDBRANCH  16  17
ENDBRANCH   5  16
TORSDOF 3
ENDMDL
MODEL 9
REMARK VINA RESULT:      -7.2      2.435      3.711
REMARK  Name = 
REMARK  4 active torsions:
REMARK  status: ('A' for Active; 'I' for Inactive)
REMARK    1  A    between atoms: C_1  and  C_2
REMARK    2  A    between atoms: N_4  and  C_5
REMARK    3  A    between atoms: C_9  and  C_11
REMARK    4  A    between atoms: C_11  and  N_12
REMARK                            x       y       z     vdW  Elec       q    Type
REMARK                         _______ _______ _______ _____ _____    ______ ____
ROOT
ATOM      1  C   UNL     1      -0.787  10.722  20.402  0.00  0.00    +0.000 C 
ATOM      2  C   UNL     1      -0.758  10.496  18.876  0.00  0.00    +0.000 C 
ATOM      3  C   UNL     1       0.587  10.026  18.321  0.00  0.00    +0.000 C 
ATOM      4  N   UNL     1       1.179   8.924  19.077  0.00  0.00    +0.000 N 
ATOM      5  C   UNL     1       2.186   8.197  18.422  0.00  0.00    +0.000 C 
ATOM      6  O   UNL     1       2.510   8.441  17.259  0.00  0.00    +0.000 OA
ATOM      7  C   UNL     1       1.175   9.057  20.533  0.00  0.00    +0.000 C 
ATOM      8  C   UNL     1      -0.180   9.477  21.079  0.00  0.00    +0.000 C 
ENDROOT
BRANCH   1  12
ATOM      9  C   UNL     1      -1.239  14.343  23.781  0.00  0.00    +0.000 C 
ATOM     10  C   UNL     1      -0.446  13.957  22.533  0.00  0.00    +0.000 C 
ATOM     11  C   UNL     1      -0.846  12.526  22.131  0.00  0.00    +0.000 C 
ATOM     12  N   UNL     1      -0.318  12.062  20.845  0.00  0.00    +0.000 NA
ATOM     13  C   UNL     1      -0.533  13.105  19.818  0.00  0.00    +0.000 C 
ATOM     14  C   UNL     1      -0.090  14.502  20.280  0.00  0.00    +0.000 C 
ATOM     15  O   UNL     1      -0.762  14.885  21.486  0.00  0.00    +0.000 OA
ENDBRANCH   1  12
BRANCH   5  16
ATOM     16  C   UNL     1       2.834   7.042  19.168  0.00  0.00    +0.000 C 
BRANCH  16  17
ATOM     17  N   UNL     1       3.103   5.865  18.350  0.00  0.00    +0.000 N 
ATOM     18  C   UNL     1       2.278   4.777  18.213  0.00  0.00    +0.000 A 
ATOM     19  C   UNL     1       2.857   3.909  17.320  0.00  0.00    +0.000 A 
ATOM     20  C   UNL     1       4.118   4.446  16.949  0.00  0.00    +0.000 A 
ATOM     21  C   UNL     1       5.159   3.996  16.115  0.00  0.00    +0.000 A 
ATOM     22  C   UNL     1       6.329   4.751  16.003  0.00  0.00    +0.000 A 
ATOM     23  C   UNL     1       6.468   5.946  16.701  0.00  0.00    +0.000 A 
ATOM     24  C   UNL     1       5.438   6.430  17.515  0.00  0.00    +0.000 A 
ATOM     25  C   UNL     1       4.265   5.665  17.628  0.00  0.00    +0.000 A 
ENDBRANCH  16  17
ENDBRANCH   5  16
TORSDOF 3
ENDMDL
