MODEL 1
REMARK VINA RESULT:      -7.2      0.000      0.000
REMARK  Name = 
REMARK  6 active torsions:
REMARK  status: ('A' for Active; 'I' for Inactive)
REMARK    1  A    between atoms: C_1  and  C_2
REMARK    2  A    between atoms: C_2  and  O_3
REMARK    3  A    between atoms: C_2  and  C_4
REMARK    4  A    between atoms: C_4  and  N_5
REMARK    5  A    between atoms: C_9  and  C_11
REMARK    6  A    between atoms: C_11  and  C_12
REMARK                            x       y       z     vdW  Elec       q    Type
REMARK                         _______ _______ _______ _____ _____    ______ ____
ROOT
ATOM      1  N   UNL     1       5.909   6.376  16.267  0.00  0.00    +0.000 NA
ATOM      2  C   UNL     1       5.474   5.108  15.617  0.00  0.00    +0.000 C 
ATOM      3  C   UNL     1       4.926   4.030  16.583  0.00  0.00    +0.000 C 
ATOM      4  N   UNL     1       3.930   4.582  17.508  0.00  0.00    +0.000 N 
ATOM      5  C   UNL     1       2.660   4.032  17.567  0.00  0.00    +0.000 C 
ATOM      6  O   UNL     1       2.322   3.086  16.849  0.00  0.00    +0.000 OA
ATOM      7  C   UNL     1       4.337   5.826  18.169  0.00  0.00    +0.000 C 
ATOM      8  C   UNL     1       4.800   6.854  17.121  0.00  0.00    +0.000 C 
ENDROOT
BRANCH   1   9
ATOM      9  C   UNL     1       7.175   6.179  17.000  0.00  0.00    +0.000 C 
BRANCH   9  11
ATOM     10  C   UNL     1       8.120   8.473  17.683  0.00  0.00    +0.000 C 
ATOM     11  C   UNL     1       7.478   7.172  18.148  0.00  0.00    +0.000 C 
BRANCH  11  12
ATOM     12  O   UNL     1       8.351   6.542  19.092  0.00  0.00    +0.000 OA
ATOM     13  H   UNL     1       8.989   6.003  18.593  0.00  0.00    +0.000 HD
ENDBRANCH  11  12
ENDBRANCH   9  11
ENDBRANCH   1   9
BRANCH   5  14
ATOM     14  C   UNL     1       1.672   4.602  18.580  0.00  0.00    +0.000 C 
BRANCH  14  15
ATOM     15  C   UNL     1       1.761   3.959  19.920  0.00  0.00    +0.000 A 
ATOM     16  C   UNL     1       1.142   2.734  20.325  0.00  0.00    +0.000 A 
ATOM     17  C   UNL     1       1.467   2.538  21.648  0.00  0.00    +0.000 A 
ATOM     18  O   UNL     1       2.251   3.555  22.093  0.00  0.00    +0.000 OA
ATOM     19  C   UNL     1       2.419   4.413  21.050  0.00  0.00    +0.000 A 
ENDBRANCH  14  15
ENDBRANCH   5  14
TORSDOF 5
ENDMDL
MODEL 2
REMARK VINA RESULT:      -6.8      2.704      6.769
REMARK  Name = 
REMARK  6 active torsions:
REMARK  status: ('A' for Active; 'I' for Inactive)
REMARK    1  A    between atoms: C_1  and  C_2
REMARK    2  A    between atoms: C_2  and  O_3
REMARK    3  A    between atoms: C_2  and  C_4
REMARK    4  A    between atoms: C_4  and  N_5
REMARK    5  A    between atoms: C_9  and  C_11
REMARK    6  A    between atoms: C_11  and  C_12
REMARK                            x       y       z     vdW  Elec       q    Type
REMARK                         _______ _______ _______ _____ _____    ______ ____
ROOT
ATOM      1  N   UNL     1       2.774   4.178  18.704  0.00  0.00    +0.000 NA
ATOM      2  C   UNL     1       2.518   5.393  17.881  0.00  0.00    +0.000 C 
ATOM      3  C   UNL     1       3.747   6.308  17.663  0.00  0.00    +0.000 C 
ATOM      4  N   UNL     1       4.924   5.547  17.228  0.00  0.00    +0.000 N 
ATOM      5  C   UNL     1       5.562   5.878  16.043  0.00  0.00    +0.000 C 
ATOM      6  O   UNL     1       5.166   6.796  15.319  0.00  0.00    +0.000 OA
ATOM      7  C   UNL     1       5.203   4.351  18.027  0.00  0.00    +0.000 C 
ATOM      8  C   UNL     1       3.941   3.476  18.128  0.00  0.00    +0.000 C 
ENDROOT
BRANCH   1   9
ATOM      9  C   UNL     1       2.944   4.537  20.126  0.00  0.00    +0.000 C 
BRANCH   9  11
ATOM     10  C   UNL     1       2.172   2.609  21.645  0.00  0.00    +0.000 C 
ATOM     11  C   UNL     1       1.877   4.005  21.112  0.00  0.00    +0.000 C 
BRANCH  11  12
ATOM     12  O   UNL     1       0.604   3.986  20.457  0.00  0.00    +0.000 OA
ATOM     13  H   UNL     1       0.455   3.082  20.126  0.00  0.00    +0.000 HD
ENDBRANCH  11  12
ENDBRANCH   9  11
ENDBRANCH   1   9
BRANCH   5  14
ATOM     14  C   UNL     1       6.813   5.096  15.654  0.00  0.00    +0.000 C 
BRANCH  14  15
ATOM     15  C   UNL     1       6.818   4.657  14.231  0.00  0.00    +0.000 A 
ATOM     16  C   UNL     1       5.986   3.654  13.642  0.00  0.00    +0.000 A 
ATOM     17  C   UNL     1       6.351   3.557  12.318  0.00  0.00    +0.000 A 
ATOM     18  O   UNL     1       7.351   4.435  12.043  0.00  0.00    +0.000 OA
ATOM     19  C   UNL     1       7.635   5.090  13.201  0.00  0.00    +0.000 A 
ENDBRANCH  14  15
ENDBRANCH   5  14
TORSDOF 5
ENDMDL
MODEL 3
REMARK VINA RESULT:      -6.5      2.122      2.897
REMARK  Name = 
REMARK  6 active torsions:
REMARK  status: ('A' for Active; 'I' for Inactive)
REMARK    1  A    between atoms: C_1  and  C_2
REMARK    2  A    between atoms: C_2  and  O_3
REMARK    3  A    between atoms: C_2  and  C_4
REMARK    4  A    between atoms: C_4  and  N_5
REMARK    5  A    between atoms: C_9  and  C_11
REMARK    6  A    between atoms: C_11  and  C_12
REMARK                            x       y       z     vdW  Elec       q    Type
REMARK                         _______ _______ _______ _____ _____    ______ ____
ROOT
ATOM      1  N   UNL     1       6.860   5.876  17.513  0.00  0.00    +0.000 NA
ATOM      2  C   UNL     1       5.865   6.863  17.008  0.00  0.00    +0.000 C 
ATOM      3  C   UNL     1       4.390   6.400  17.077  0.00  0.00    +0.000 C 
ATOM      4  N   UNL     1       4.050   5.852  18.395  0.00  0.00    +0.000 N 
ATOM      5  C   UNL     1       3.002   6.394  19.120  0.00  0.00    +0.000 C 
ATOM      6  O   UNL     1       2.336   7.346  18.700  0.00  0.00    +0.000 OA
ATOM      7  C   UNL     1       5.010   4.871  18.911  0.00  0.00    +0.000 C 
ATOM      8  C   UNL     1       6.435   5.450  18.863  0.00  0.00    +0.000 C 
ENDROOT
BRANCH   1   9
ATOM      9  C   UNL     1       7.014   4.757  16.563  0.00  0.00    +0.000 C 
BRANCH   9  11
ATOM     10  C   UNL     1       6.209   3.879  14.281  0.00  0.00    +0.000 C 
ATOM     11  C   UNL     1       6.746   5.067  15.070  0.00  0.00    +0.000 C 
BRANCH  11  12
ATOM     12  O   UNL     1       7.963   5.509  14.459  0.00  0.00    +0.000 OA
ATOM     13  H   UNL     1       8.006   6.477  14.552  0.00  0.00    +0.000 HD
ENDBRANCH  11  12
ENDBRANCH   9  11
ENDBRANCH   1   9
BRANCH   5  14
ATOM     14  C   UNL     1       2.649   5.761  20.463  0.00  0.00    +0.000 C 
BRANCH  14  15
ATOM     15  C   UNL     1       1.974   4.439  20.335  0.00  0.00    +0.000 A 
ATOM     16  C   UNL     1       1.300   3.932  19.179  0.00  0.00    +0.000 A 
ATOM     17  C   UNL     1       0.803   2.693  19.517  0.00  0.00    +0.000 A 
ATOM     18  O   UNL     1       1.125   2.394  20.803  0.00  0.00    +0.000 OA
ATOM     19  C   UNL     1       1.824   3.453  21.294  0.00  0.00    +0.000 A 
ENDBRANCH  14  15
ENDBRANCH   5  14
TORSDOF 5
ENDMDL
MODEL 4
REMARK VINA RESULT:      -6.3      1.674      6.088
REMARK  Name = 
REMARK  6 active torsions:
REMARK  status: ('A' for Active; 'I' for Inactive)
REMARK    1  A    between atoms: C_1  and  C_2
REMARK    2  A    between atoms: C_2  and  O_3
REMARK    3  A    between atoms: C_2  and  C_4
REMARK    4  A    between atoms: C_4  and  N_5
REMARK    5  A    between atoms: C_9  and  C_11
REMARK    6  A    between atoms: C_11  and  C_12
REMARK                            x       y       z     vdW  Elec       q    Type
REMARK                         _______ _______ _______ _____ _____    ______ ____
ROOT
ATOM      1  N   UNL     1       3.148   3.906  19.520  0.00  0.00    +0.000 NA
ATOM      2  C   UNL     1       3.623   2.833  18.602  0.00  0.00    +0.000 C 
ATOM      3  C   UNL     1       3.726   3.243  17.113  0.00  0.00    +0.000 C 
ATOM      4  N   UNL     1       4.441   4.513  16.945  0.00  0.00    +0.000 N 
ATOM      5  C   UNL     1       5.563   4.573  16.135  0.00  0.00    +0.000 C 
ATOM      6  O   UNL     1       6.003   3.580  15.548  0.00  0.00    +0.000 OA
ATOM      7  C   UNL     1       3.986   5.589  17.831  0.00  0.00    +0.000 C 
ATOM      8  C   UNL     1       3.983   5.105  19.291  0.00  0.00    +0.000 C 
ENDROOT
BRANCH   1   9
ATOM      9  C   UNL     1       1.704   4.149  19.335  0.00  0.00    +0.000 C 
BRANCH   9  11
ATOM     10  C   UNL     1       1.458   2.789  21.506  0.00  0.00    +0.000 C 
ATOM     11  C   UNL     1       0.747   3.465  20.340  0.00  0.00    +0.000 C 
BRANCH  11  12
ATOM     12  O   UNL     1      -0.034   2.484  19.649  0.00  0.00    +0.000 OA
ATOM     13  H   UNL     1      -0.822   2.931  19.293  0.00  0.00    +0.000 HD
ENDBRANCH  11  12
ENDBRANCH   9  11
ENDBRANCH   1   9
BRANCH   5  14
ATOM     14  C   UNL     1       6.245   5.925  15.945  0.00  0.00    +0.000 C 
BRANCH  14  15
ATOM     15  C   UNL     1       7.078   6.337  17.109  0.00  0.00    +0.000 A 
ATOM     16  C   UNL     1       7.516   5.501  18.185  0.00  0.00    +0.000 A 
ATOM     17  C   UNL     1       8.231   6.301  19.048  0.00  0.00    +0.000 A 
ATOM     18  O   UNL     1       8.271   7.577  18.580  0.00  0.00    +0.000 OA
ATOM     19  C   UNL     1       7.568   7.594  17.415  0.00  0.00    +0.000 A 
ENDBRANCH  14  15
ENDBRANCH   5  14
TORSDOF 5
ENDMDL
MODEL 5
REMARK VINA RESULT:      -6.3      2.594      6.688
REMARK  Name = 
REMARK  6 active torsions:
REMARK  status: ('A' for Active; 'I' for Inactive)
REMARK    1  A    between atoms: C_1  and  C_2
REMARK    2  A    between atoms: C_2  and  O_3
REMARK    3  A    between atoms: C_2  and  C_4
REMARK    4  A    between atoms: C_4  and  N_5
REMARK    5  A    between atoms: C_9  and  C_11
REMARK    6  A    between atoms: C_11  and  C_12
REMARK                            x       y       z     vdW  Elec       q    Type
REMARK                         _______ _______ _______ _____ _____    ______ ____
ROOT
ATOM      1  N   UNL     1       3.083   3.912  18.599  0.00  0.00    +0.000 NA
ATOM      2  C   UNL     1       2.761   5.183  17.894  0.00  0.00    +0.000 C 
ATOM      3  C   UNL     1       3.958   6.145  17.698  0.00  0.00    +0.000 C 
ATOM      4  N   UNL     1       5.130   5.454  17.148  0.00  0.00    +0.000 N 
ATOM      5  C   UNL     1       5.704   5.899  15.968  0.00  0.00    +0.000 C 
ATOM      6  O   UNL     1       5.254   6.863  15.342  0.00  0.00    +0.000 OA
ATOM      7  C   UNL     1       5.473   4.203  17.829  0.00  0.00    +0.000 C 
ATOM      8  C   UNL     1       4.237   3.290  17.914  0.00  0.00    +0.000 C 
ENDROOT
BRANCH   1   9
ATOM      9  C   UNL     1       3.313   4.155  20.037  0.00  0.00    +0.000 C 
BRANCH   9  11
ATOM     10  C   UNL     1       0.786   3.794  20.368  0.00  0.00    +0.000 C 
ATOM     11  C   UNL     1       2.062   4.430  20.906  0.00  0.00    +0.000 C 
BRANCH  11  12
ATOM     12  O   UNL     1       1.863   5.844  21.004  0.00  0.00    +0.000 OA
ATOM     13  H   UNL     1       0.936   6.030  20.770  0.00  0.00    +0.000 HD
ENDBRANCH  11  12
ENDBRANCH   9  11
ENDBRANCH   1   9
BRANCH   5  14
ATOM     14  C   UNL     1       6.952   5.184  15.458  0.00  0.00    +0.000 C 
BRANCH  14  15
ATOM     15  C   UNL     1       6.790   4.612  14.092  0.00  0.00    +0.000 A 
ATOM     16  C   UNL     1       7.578   4.919  12.938  0.00  0.00    +0.000 A 
ATOM     17  C   UNL     1       7.060   4.187  11.893  0.00  0.00    +0.000 A 
ATOM     18  O   UNL     1       6.006   3.442  12.320  0.00  0.00    +0.000 OA
ATOM     19  C   UNL     1       5.843   3.708  13.645  0.00  0.00    +0.000 A 
ENDBRANCH  14  15
ENDBRANCH   5  14
TORSDOF 5
ENDMDL
MODEL 6
REMARK VINA RESULT:      -6.2      1.802      6.354
REMARK  Name = 
REMARK  6 active torsions:
REMARK  status: ('A' for Active; 'I' for Inactive)
REMARK    1  A    between atoms: C_1  and  C_2
REMARK    2  A    between atoms: C_2  and  O_3
REMARK    3  A    between atoms: C_2  and  C_4
REMARK    4  A    between atoms: C_4  and  N_5
REMARK    5  A    between atoms: C_9  and  C_11
REMARK    6  A    between atoms: C_11  and  C_12
REMARK                            x       y       z     vdW  Elec       q    Type
REMARK                         _______ _______ _______ _____ _____    ______ ____
ROOT
ATOM      1  N   UNL     1       2.990   2.863  19.207  0.00  0.00    +0.000 NA
ATOM      2  C   UNL     1       2.898   2.845  17.720  0.00  0.00    +0.000 C 
ATOM      3  C   UNL     1       3.594   4.030  17.006  0.00  0.00    +0.000 C 
ATOM      4  N   UNL     1       4.957   4.243  17.504  0.00  0.00    +0.000 N 
ATOM      5  C   UNL     1       6.026   4.220  16.623  0.00  0.00    +0.000 C 
ATOM      6  O   UNL     1       5.877   4.013  15.415  0.00  0.00    +0.000 OA
ATOM      7  C   UNL     1       5.074   4.273  18.965  0.00  0.00    +0.000 C 
ATOM      8  C   UNL     1       4.413   3.024  19.574  0.00  0.00    +0.000 C 
ENDROOT
BRANCH   1   9
ATOM      9  C   UNL     1       2.114   3.909  19.771  0.00  0.00    +0.000 C 
BRANCH   9  11
ATOM     10  C   UNL     1       1.336   2.569  21.827  0.00  0.00    +0.000 C 
ATOM     11  C   UNL     1       0.925   3.430  20.638  0.00  0.00    +0.000 C 
BRANCH  11  12
ATOM     12  O   UNL     1       0.022   2.678  19.819  0.00  0.00    +0.000 OA
ATOM     13  H   UNL     1      -0.070   3.147  18.972  0.00  0.00    +0.000 HD
ENDBRANCH  11  12
ENDBRANCH   9  11
ENDBRANCH   1   9
BRANCH   5  14
ATOM     14  C   UNL     1       7.422   4.499  17.174  0.00  0.00    +0.000 C 
BRANCH  14  15
ATOM     15  C   UNL     1       7.622   5.915  17.591  0.00  0.00    +0.000 A 
ATOM     16  C   UNL     1       7.323   7.083  16.822  0.00  0.00    +0.000 A 
ATOM     17  C   UNL     1       7.693   8.169  17.584  0.00  0.00    +0.000 A 
ATOM     18  O   UNL     1       8.198   7.755  18.776  0.00  0.00    +0.000 OA
ATOM     19  C   UNL     1       8.160   6.395  18.772  0.00  0.00    +0.000 A 
ENDBRANCH  14  15
ENDBRANCH   5  14
TORSDOF 5
ENDMDL
MODEL 7
REMARK VINA RESULT:      -6.1      1.142      1.399
REMARK  Name = 
REMARK  6 active torsions:
REMARK  status: ('A' for Active; 'I' for Inactive)
REMARK    1  A    between atoms: C_1  and  C_2
REMARK    2  A    between atoms: C_2  and  O_3
REMARK    3  A    between atoms: C_2  and  C_4
REMARK    4  A    between atoms: C_4  and  N_5
REMARK    5  A    between atoms: C_9  and  C_11
REMARK    6  A    between atoms: C_11  and  C_12
REMARK                            x       y       z     vdW  Elec       q    Type
REMARK                         _______ _______ _______ _____ _____    ______ ____
ROOT
ATOM      1  N   UNL     1       5.972   6.383  16.083  0.00  0.00    +0.000 NA
ATOM      2  C   UNL     1       5.533   5.113  15.440  0.00  0.00    +0.000 C 
ATOM      3  C   UNL     1       5.005   4.034  16.417  0.00  0.00    +0.000 C 
ATOM      4  N   UNL     1       4.023   4.582  17.358  0.00  0.00    +0.000 N 
ATOM      5  C   UNL     1       2.756   4.025  17.437  0.00  0.00    +0.000 C 
ATOM      6  O   UNL     1       2.410   3.077  16.726  0.00  0.00    +0.000 OA
ATOM      7  C   UNL     1       4.435   5.828  18.011  0.00  0.00    +0.000 C 
ATOM      8  C   UNL     1       4.876   6.857  16.955  0.00  0.00    +0.000 C 
ENDROOT
BRANCH   1   9
ATOM      9  C   UNL     1       7.251   6.193  16.795  0.00  0.00    +0.000 C 
BRANCH   9  11
ATOM     10  C   UNL     1       7.694   5.734  19.289  0.00  0.00    +0.000 C 
ATOM     11  C   UNL     1       7.262   5.158  17.946  0.00  0.00    +0.000 C 
BRANCH  11  12
ATOM     12  O   UNL     1       8.146   4.085  17.602  0.00  0.00    +0.000 OA
ATOM     13  H   UNL     1       7.708   3.548  16.918  0.00  0.00    +0.000 HD
ENDBRANCH  11  12
ENDBRANCH   9  11
ENDBRANCH   1   9
BRANCH   5  14
ATOM     14  C   UNL     1       1.782   4.591  18.467  0.00  0.00    +0.000 C 
BRANCH  14  15
ATOM     15  C   UNL     1       1.770   3.834  19.749  0.00  0.00    +0.000 A 
ATOM     16  C   UNL     1       2.897   3.538  20.578  0.00  0.00    +0.000 A 
ATOM     17  C   UNL     1       2.430   2.797  21.640  0.00  0.00    +0.000 A 
ATOM     18  O   UNL     1       1.088   2.614  21.529  0.00  0.00    +0.000 OA
ATOM     19  C   UNL     1       0.696   3.234  20.383  0.00  0.00    +0.000 A 
ENDBRANCH  14  15
ENDBRANCH   5  14
TORSDOF 5
ENDMDL
MODEL 8
REMARK VINA RESULT:      -6.1      2.592      6.666
REMARK  Name = 
REMARK  6 active torsions:
REMARK  status: ('A' for Active; 'I' for Inactive)
REMARK    1  A    between atoms: C_1  and  C_2
REMARK    2  A    between atoms: C_2  and  O_3
REMARK    3  A    between atoms: C_2  and  C_4
REMARK    4  A    between atoms: C_4  and  N_5
REMARK    5  A    between atoms: C_9  and  C_11
REMARK    6  A    between atoms: C_11  and  C_12
REMARK                            x       y       z     vdW  Elec       q    Type
REMARK                         _______ _______ _______ _____ _____    ______ ____
ROOT
ATOM      1  N   UNL     1       3.838   5.559  19.200  0.00  0.00    +0.000 NA
ATOM      2  C   UNL     1       5.023   4.707  19.498  0.00  0.00    +0.000 C 
ATOM      3  C   UNL     1       5.564   3.895  18.296  0.00  0.00    +0.000 C 
ATOM      4  N   UNL     1       5.733   4.732  17.103  0.00  0.00    +0.000 N 
ATOM      5  C   UNL     1       6.971   4.814  16.485  0.00  0.00    +0.000 C 
ATOM      6  O   UNL     1       7.958   4.209  16.913  0.00  0.00    +0.000 OA
ATOM      7  C   UNL     1       4.577   5.575  16.783  0.00  0.00    +0.000 C 
ATOM      8  C   UNL     1       4.159   6.390  18.020  0.00  0.00    +0.000 C 
ENDROOT
BRANCH   1   9
ATOM      9  C   UNL     1       2.629   4.731  19.027  0.00  0.00    +0.000 C 
BRANCH   9  11
ATOM     10  C   UNL     1       0.862   3.167  20.054  0.00  0.00    +0.000 C 
ATOM     11  C   UNL     1       2.227   3.826  20.216  0.00  0.00    +0.000 C 
BRANCH  11  12
ATOM     12  O   UNL     1       2.219   4.607  21.416  0.00  0.00    +0.000 OA
ATOM     13  H   UNL     1       2.868   5.323  21.308  0.00  0.00    +0.000 HD
ENDBRANCH  11  12
ENDBRANCH   9  11
ENDBRANCH   1   9
BRANCH   5  14
ATOM     14  C   UNL     1       7.090   5.654  15.217  0.00  0.00    +0.000 C 
BRANCH  14  15
ATOM     15  C   UNL     1       6.910   4.866  13.966  0.00  0.00    +0.000 A 
ATOM     16  C   UNL     1       5.963   3.816  13.745  0.00  0.00    +0.000 A 
ATOM     17  C   UNL     1       6.169   3.353  12.465  0.00  0.00    +0.000 A 
ATOM     18  O   UNL     1       7.177   4.046  11.874  0.00  0.00    +0.000 OA
ATOM     19  C   UNL     1       7.626   4.951  12.785  0.00  0.00    +0.000 A 
ENDBRANCH  14  15
ENDBRANCH   5  14
TORSDOF 5
ENDMDL
MODEL 9
REMARK VINA RESULT:      -6.1      1.885      2.570
REMARK  Name = 
REMARK  6 active torsions:
REMARK  status: ('A' for Active; 'I' for Inactive)
REMARK    1  A    between atoms: C_1  and  C_2
REMARK    2  A    between atoms: C_2  and  O_3
REMARK    3  A    between atoms: C_2  and  C_4
REMARK    4  A    between atoms: C_4  and  N_5
REMARK    5  A    between atoms: C_9  and  C_11
REMARK    6  A    between atoms: C_11  and  C_12
REMARK                            x       y       z     vdW  Elec       q    Type
REMARK                         _______ _______ _______ _____ _____    ______ ____
ROOT
ATOM      1  N   UNL     1       6.572   4.778  17.973  0.00  0.00    +0.000 NA
ATOM      2  C   UNL     1       5.956   6.127  17.845  0.00  0.00    +0.000 C 
ATOM      3  C   UNL     1       4.615   6.165  17.073  0.00  0.00    +0.000 C 
ATOM      4  N   UNL     1       3.680   5.141  17.552  0.00  0.00    +0.000 N 
ATOM      5  C   UNL     1       2.424   5.509  18.007  0.00  0.00    +0.000 C 
ATOM      6  O   UNL     1       2.057   6.687  18.038  0.00  0.00    +0.000 OA
ATOM      7  C   UNL     1       4.259   3.800  17.679  0.00  0.00    +0.000 C 
ATOM      8  C   UNL     1       5.548   3.859  18.517  0.00  0.00    +0.000 C 
ENDROOT
BRANCH   1   9
ATOM      9  C   UNL     1       7.134   4.335  16.682  0.00  0.00    +0.000 C 
BRANCH   9  11
ATOM     10  C   UNL     1       5.967   4.267  14.389  0.00  0.00    +0.000 C 
ATOM     11  C   UNL     1       6.692   5.120  15.424  0.00  0.00    +0.000 C 
BRANCH  11  12
ATOM     12  O   UNL     1       7.845   5.704  14.808  0.00  0.00    +0.000 OA
ATOM     13  H   UNL     1       8.553   5.037  14.812  0.00  0.00    +0.000 HD
ENDBRANCH  11  12
ENDBRANCH   9  11
ENDBRANCH   1   9
BRANCH   5  14
ATOM     14  C   UNL     1       1.464   4.407  18.447  0.00  0.00    +0.000 C 
BRANCH  14  15
ATOM     15  C   UNL     1       1.716   3.920  19.831  0.00  0.00    +0.000 A 
ATOM     16  C   UNL     1       1.427   2.617  20.345  0.00  0.00    +0.000 A 
ATOM     17  C   UNL     1       1.794   2.618  21.672  0.00  0.00    +0.000 A 
ATOM     18  O   UNL     1       2.296   3.833  22.017  0.00  0.00    +0.000 OA
ATOM     19  C   UNL     1       2.240   4.617  20.906  0.00  0.00    +0.000 A 
ENDBRANCH  14  15
ENDBRANCH   5  14
TORSDOF 5
ENDMDL
