MODEL 1
REMARK VINA RESULT:      -9.3      0.000      0.000
REMARK  Name = 
REMARK  4 active torsions:
REMARK  status: ('A' for Active; 'I' for Inactive)
REMARK    1  A    between atoms: C_1  and  C_2
REMARK    2  A    between atoms: C_2  and  C_3
REMARK    3  A    between atoms: C_5  and  N_6
REMARK    4  A    between atoms: N_9  and  C_10
REMARK                            x       y       z     vdW  Elec       q    Type
REMARK                         _______ _______ _______ _____ _____    ______ ____
ROOT
ATOM      1  N   UNL     1       1.096   9.768  19.314  0.00  0.00    +0.000 N 
ATOM      2  C   UNL     1       1.595   8.831  18.441  0.00  0.00    +0.000 C 
ATOM      3  O   UNL     1       1.544   9.004  17.229  0.00  0.00    +0.000 OA
ATOM      4  N   UNL     1       2.150   7.735  19.073  0.00  0.00    +0.000 N 
ATOM      5  H   UNL     1       1.374   9.727  20.283  0.00  0.00    +0.000 HD
ATOM      6  H   UNL     1       1.766   7.512  19.978  0.00  0.00    +0.000 HD
ENDROOT
BRANCH   1  11
ATOM      7  C   UNL     1       0.465  13.643  21.633  0.00  0.00    +0.000 C 
ATOM      8  C   UNL     1       0.024  12.409  20.829  0.00  0.00    +0.000 C 
ATOM      9  C   UNL     1      -0.014  11.214  21.795  0.00  0.00    +0.000 C 
ATOM     10  C   UNL     1       0.977  12.250  19.641  0.00  0.00    +0.000 C 
ATOM     11  C   UNL     1       0.606  11.039  18.778  0.00  0.00    +0.000 C 
ATOM     12  C   UNL     1      -0.887  11.030  18.559  0.00  0.00    +0.000 A 
ATOM     13  C   UNL     1      -1.444  10.237  17.543  0.00  0.00    +0.000 A 
ATOM     14  C   UNL     1      -2.817  10.270  17.294  0.00  0.00    +0.000 A 
ATOM     15  C   UNL     1      -3.640  11.099  18.053  0.00  0.00    +0.000 A 
ATOM     16 CL   UNL     1      -5.331  11.143  17.741  0.00  0.00    +0.000 Cl
ATOM     17  C   UNL     1      -3.104  11.892  19.064  0.00  0.00    +0.000 A 
ATOM     18  C   UNL     1      -1.735  11.847  19.327  0.00  0.00    +0.000 A 
ATOM     19  O   UNL     1      -1.308  12.657  20.349  0.00  0.00    +0.000 OA
ENDBRANCH   1  11
BRANCH   4  20
ATOM     20  C   UNL     1       2.826   6.704  18.371  0.00  0.00    +0.000 A 
ATOM     21  C   UNL     1       2.529   5.350  18.580  0.00  0.00    +0.000 A 
ATOM     22  C   UNL     1       3.294   4.344  17.986  0.00  0.00    +0.000 A 
ATOM     23  C   UNL     1       4.353   4.680  17.160  0.00  0.00    +0.000 A 
ATOM     24  C   UNL     1       4.641   6.027  16.915  0.00  0.00    +0.000 A 
ATOM     25  C   UNL     1       3.857   7.042  17.480  0.00  0.00    +0.000 A 
ATOM     26  N   UNL     1       5.790   6.360  16.191  0.00  0.00    +0.000 N 
ATOM     27  C   UNL     1       6.612   5.386  15.685  0.00  0.00    +0.000 C 
ATOM     28  O   UNL     1       7.720   5.650  15.227  0.00  0.00    +0.000 OA
ATOM     29  C   UNL     1       5.991   3.993  15.648  0.00  0.00    +0.000 C 
ATOM     30  O   UNL     1       5.103   3.636  16.693  0.00  0.00    +0.000 OA
ATOM     31  H   UNL     1       6.128   7.311  16.154  0.00  0.00    +0.000 HD
ENDBRANCH   4  20
TORSDOF 2
ENDMDL
MODEL 2
REMARK VINA RESULT:      -9.2      6.585      9.468
REMARK  Name = 
REMARK  4 active torsions:
REMARK  status: ('A' for Active; 'I' for Inactive)
REMARK    1  A    between atoms: C_1  and  C_2
REMARK    2  A    between atoms: C_2  and  C_3
REMARK    3  A    between atoms: C_5  and  N_6
REMARK    4  A    between atoms: N_9  and  C_10
REMARK                            x       y       z     vdW  Elec       q    Type
REMARK                         _______ _______ _______ _____ _____    ______ ____
ROOT
ATOM      1  N   UNL     1       6.770   7.102  17.256  0.00  0.00    +0.000 N 
ATOM      2  C   UNL     1       7.672   7.850  17.974  0.00  0.00    +0.000 C 
ATOM      3  O   UNL     1       8.404   7.330  18.808  0.00  0.00    +0.000 OA
ATOM      4  N   UNL     1       7.663   9.190  17.638  0.00  0.00    +0.000 N 
ATOM      5  H   UNL     1       6.372   7.494  16.416  0.00  0.00    +0.000 HD
ATOM      6  H   UNL     1       6.786   9.548  17.292  0.00  0.00    +0.000 HD
ENDROOT
BRANCH   1  11
ATOM      7  C   UNL     1       6.337   3.993  13.949  0.00  0.00    +0.000 C 
ATOM      8  C   UNL     1       5.905   4.763  15.207  0.00  0.00    +0.000 C 
ATOM      9  C   UNL     1       5.293   6.097  14.749  0.00  0.00    +0.000 C 
ATOM     10  C   UNL     1       7.121   4.891  16.128  0.00  0.00    +0.000 C 
ATOM     11  C   UNL     1       6.776   5.647  17.416  0.00  0.00    +0.000 C 
ATOM     12  C   UNL     1       5.468   5.126  17.957  0.00  0.00    +0.000 A 
ATOM     13  C   UNL     1       5.094   5.401  19.282  0.00  0.00    +0.000 A 
ATOM     14  C   UNL     1       3.915   4.872  19.809  0.00  0.00    +0.000 A 
ATOM     15  C   UNL     1       3.105   4.060  19.017  0.00  0.00    +0.000 A 
ATOM     16 CL   UNL     1       1.655   3.403  19.669  0.00  0.00    +0.000 Cl
ATOM     17  C   UNL     1       3.461   3.776  17.702  0.00  0.00    +0.000 A 
ATOM     18  C   UNL     1       4.629   4.319  17.167  0.00  0.00    +0.000 A 
ATOM     19  O   UNL     1       4.884   3.988  15.860  0.00  0.00    +0.000 OA
ENDBRANCH   1  11
BRANCH   4  20
ATOM     20  C   UNL     1       8.591  10.122  18.170  0.00  0.00    +0.000 A 
ATOM     21  C   UNL     1       9.210   9.921  19.411  0.00  0.00    +0.000 A 
ATOM     22  C   UNL     1      10.014  10.909  19.984  0.00  0.00    +0.000 A 
ATOM     23  C   UNL     1      10.224  12.101  19.314  0.00  0.00    +0.000 A 
ATOM     24  C   UNL     1       9.639  12.304  18.058  0.00  0.00    +0.000 A 
ATOM     25  C   UNL     1       8.860  11.304  17.462  0.00  0.00    +0.000 A 
ATOM     26  N   UNL     1       9.745  13.558  17.450  0.00  0.00    +0.000 N 
ATOM     27  C   UNL     1      10.445  14.575  18.044  0.00  0.00    +0.000 C 
ATOM     28  O   UNL     1      10.382  15.730  17.633  0.00  0.00    +0.000 OA
ATOM     29  C   UNL     1      11.370  14.129  19.173  0.00  0.00    +0.000 C 
ATOM     30  O   UNL     1      10.948  13.047  19.986  0.00  0.00    +0.000 OA
ATOM     31  H   UNL     1       9.187  13.796  16.642  0.00  0.00    +0.000 HD
ENDBRANCH   4  20
TORSDOF 2
ENDMDL
MODEL 3
REMARK VINA RESULT:      -8.6      3.703      9.352
REMARK  Name = 
REMARK  4 active torsions:
REMARK  status: ('A' for Active; 'I' for Inactive)
REMARK    1  A    between atoms: C_1  and  C_2
REMARK    2  A    between atoms: C_2  and  C_3
REMARK    3  A    between atoms: C_5  and  N_6
REMARK    4  A    between atoms: N_9  and  C_10
REMARK                            x       y       z     vdW  Elec       q    Type
REMARK                         _______ _______ _______ _____ _____    ______ ____
ROOT
ATOM      1  N   UNL     1       4.224   6.658  17.058  0.00  0.00    +0.000 N 
ATOM      2  C   UNL     1       3.162   6.955  17.877  0.00  0.00    +0.000 C 
ATOM      3  O   UNL     1       2.653   6.098  18.591  0.00  0.00    +0.000 OA
ATOM      4  N   UNL     1       2.772   8.279  17.810  0.00  0.00    +0.000 N 
ATOM      5  H   UNL     1       4.777   7.415  16.684  0.00  0.00    +0.000 HD
ATOM      6  H   UNL     1       2.954   8.744  16.934  0.00  0.00    +0.000 HD
ENDROOT
BRANCH   1  11
ATOM      7  C   UNL     1       8.197   5.564  19.009  0.00  0.00    +0.000 C 
ATOM      8  C   UNL     1       7.222   5.747  17.835  0.00  0.00    +0.000 C 
ATOM      9  C   UNL     1       7.221   7.238  17.460  0.00  0.00    +0.000 C 
ATOM     10  C   UNL     1       5.861   5.185  18.255  0.00  0.00    +0.000 C 
ATOM     11  C   UNL     1       4.823   5.324  17.136  0.00  0.00    +0.000 C 
ATOM     12  C   UNL     1       5.448   4.900  15.830  0.00  0.00    +0.000 A 
ATOM     13  C   UNL     1       4.636   4.613  14.722  0.00  0.00    +0.000 A 
ATOM     14  C   UNL     1       5.202   4.161  13.528  0.00  0.00    +0.000 A 
ATOM     15  C   UNL     1       6.581   3.988  13.437  0.00  0.00    +0.000 A 
ATOM     16 CL   UNL     1       7.278   3.425  11.968  0.00  0.00    +0.000 Cl
ATOM     17  C   UNL     1       7.402   4.267  14.527  0.00  0.00    +0.000 A 
ATOM     18  C   UNL     1       6.840   4.736  15.714  0.00  0.00    +0.000 A 
ATOM     19  O   UNL     1       7.734   4.993  16.724  0.00  0.00    +0.000 OA
ENDBRANCH   1  11
BRANCH   4  20
ATOM     20  C   UNL     1       1.774   8.829  18.655  0.00  0.00    +0.000 A 
ATOM     21  C   UNL     1       0.858   9.783  18.190  0.00  0.00    +0.000 A 
ATOM     22  C   UNL     1      -0.029  10.416  19.065  0.00  0.00    +0.000 A 
ATOM     23  C   UNL     1      -0.022  10.089  20.410  0.00  0.00    +0.000 A 
ATOM     24  C   UNL     1       0.865   9.115  20.882  0.00  0.00    +0.000 A 
ATOM     25  C   UNL     1       1.732   8.451  20.006  0.00  0.00    +0.000 A 
ATOM     26  N   UNL     1       0.959   8.887  22.258  0.00  0.00    +0.000 N 
ATOM     27  C   UNL     1       0.169   9.572  23.144  0.00  0.00    +0.000 C 
ATOM     28  O   UNL     1       0.373   9.538  24.354  0.00  0.00    +0.000 OA
ATOM     29  C   UNL     1      -1.025  10.280  22.508  0.00  0.00    +0.000 C 
ATOM     30  O   UNL     1      -0.858  10.820  21.209  0.00  0.00    +0.000 OA
ATOM     31  H   UNL     1       1.709   8.333  22.646  0.00  0.00    +0.000 HD
ENDBRANCH   4  20
TORSDOF 2
ENDMDL
MODEL 4
REMARK VINA RESULT:      -8.5      3.614      9.001
REMARK  Name = 
REMARK  4 active torsions:
REMARK  status: ('A' for Active; 'I' for Inactive)
REMARK    1  A    between atoms: C_1  and  C_2
REMARK    2  A    between atoms: C_2  and  C_3
REMARK    3  A    between atoms: C_5  and  N_6
REMARK    4  A    between atoms: N_9  and  C_10
REMARK                            x       y       z     vdW  Elec       q    Type
REMARK                         _______ _______ _______ _____ _____    ______ ____
ROOT
ATOM      1  N   UNL     1       2.114   7.231  18.953  0.00  0.00    +0.000 N 
ATOM      2  C   UNL     1       1.766   8.504  18.573  0.00  0.00    +0.000 C 
ATOM      3  O   UNL     1       1.811   8.848  17.397  0.00  0.00    +0.000 OA
ATOM      4  N   UNL     1       1.363   9.301  19.628  0.00  0.00    +0.000 N 
ATOM      5  H   UNL     1       1.830   6.901  19.864  0.00  0.00    +0.000 HD
ATOM      6  H   UNL     1       1.762   9.072  20.525  0.00  0.00    +0.000 HD
ENDROOT
BRANCH   1  11
ATOM      7  C   UNL     1       1.011   2.807  18.973  0.00  0.00    +0.000 C 
ATOM      8  C   UNL     1       1.971   4.006  19.011  0.00  0.00    +0.000 C 
ATOM      9  C   UNL     1       1.986   4.544  20.451  0.00  0.00    +0.000 C 
ATOM     10  C   UNL     1       1.516   5.013  17.950  0.00  0.00    +0.000 C 
ATOM     11  C   UNL     1       2.426   6.246  17.916  0.00  0.00    +0.000 C 
ATOM     12  C   UNL     1       3.866   5.798  17.969  0.00  0.00    +0.000 A 
ATOM     13  C   UNL     1       4.893   6.687  17.617  0.00  0.00    +0.000 A 
ATOM     14  C   UNL     1       6.223   6.261  17.604  0.00  0.00    +0.000 A 
ATOM     15  C   UNL     1       6.533   4.944  17.936  0.00  0.00    +0.000 A 
ATOM     16 CL   UNL     1       8.171   4.419  17.913  0.00  0.00    +0.000 Cl
ATOM     17  C   UNL     1       5.526   4.049  18.286  0.00  0.00    +0.000 A 
ATOM     18  C   UNL     1       4.199   4.476  18.318  0.00  0.00    +0.000 A 
ATOM     19  O   UNL     1       3.285   3.522  18.686  0.00  0.00    +0.000 OA
ENDBRANCH   1  11
BRANCH   4  20
ATOM     20  C   UNL     1       0.852  10.612  19.449  0.00  0.00    +0.000 A 
ATOM     21  C   UNL     1      -0.484  10.841  19.090  0.00  0.00    +0.000 A 
ATOM     22  C   UNL     1      -0.938  12.126  18.784  0.00  0.00    +0.000 A 
ATOM     23  C   UNL     1      -0.066  13.199  18.851  0.00  0.00    +0.000 A 
ATOM     24  C   UNL     1       1.262  12.990  19.239  0.00  0.00    +0.000 A 
ATOM     25  C   UNL     1       1.716  11.710  19.581  0.00  0.00    +0.000 A 
ATOM     26  N   UNL     1       2.168  14.054  19.174  0.00  0.00    +0.000 N 
ATOM     27  C   UNL     1       1.764  15.302  18.777  0.00  0.00    +0.000 C 
ATOM     28  O   UNL     1       2.571  16.191  18.520  0.00  0.00    +0.000 OA
ATOM     29  C   UNL     1       0.252  15.510  18.786  0.00  0.00    +0.000 C 
ATOM     30  O   UNL     1      -0.569  14.406  18.447  0.00  0.00    +0.000 OA
ATOM     31  H   UNL     1       3.162  13.901  19.266  0.00  0.00    +0.000 HD
ENDBRANCH   4  20
TORSDOF 2
ENDMDL
MODEL 5
REMARK VINA RESULT:      -8.5      3.808      9.228
REMARK  Name = 
REMARK  4 active torsions:
REMARK  status: ('A' for Active; 'I' for Inactive)
REMARK    1  A    between atoms: C_1  and  C_2
REMARK    2  A    between atoms: C_2  and  C_3
REMARK    3  A    between atoms: C_5  and  N_6
REMARK    4  A    between atoms: N_9  and  C_10
REMARK                            x       y       z     vdW  Elec       q    Type
REMARK                         _______ _______ _______ _____ _____    ______ ____
ROOT
ATOM      1  N   UNL     1       2.407   6.679  19.615  0.00  0.00    +0.000 N 
ATOM      2  C   UNL     1       1.686   7.822  19.864  0.00  0.00    +0.000 C 
ATOM      3  O   UNL     1       1.035   8.366  18.979  0.00  0.00    +0.000 OA
ATOM      4  N   UNL     1       1.768   8.246  21.177  0.00  0.00    +0.000 N 
ATOM      5  H   UNL     1       2.716   6.119  20.395  0.00  0.00    +0.000 HD
ATOM      6  H   UNL     1       2.616   8.000  21.663  0.00  0.00    +0.000 HD
ENDROOT
BRANCH   1  11
ATOM      7  C   UNL     1       1.443   2.304  18.765  0.00  0.00    +0.000 C 
ATOM      8  C   UNL     1       2.328   3.560  18.785  0.00  0.00    +0.000 C 
ATOM      9  C   UNL     1       2.907   3.699  20.203  0.00  0.00    +0.000 C 
ATOM     10  C   UNL     1       1.483   4.746  18.314  0.00  0.00    +0.000 C 
ATOM     11  C   UNL     1       2.293   6.047  18.299  0.00  0.00    +0.000 C 
ATOM     12  C   UNL     1       3.640   5.781  17.674  0.00  0.00    +0.000 A 
ATOM     13  C   UNL     1       4.437   6.850  17.237  0.00  0.00    +0.000 A 
ATOM     14  C   UNL     1       5.657   6.610  16.602  0.00  0.00    +0.000 A 
ATOM     15  C   UNL     1       6.085   5.300  16.396  0.00  0.00    +0.000 A 
ATOM     16 CL   UNL     1       7.586   5.005  15.609  0.00  0.00    +0.000 Cl
ATOM     17  C   UNL     1       5.307   4.228  16.823  0.00  0.00    +0.000 A 
ATOM     18  C   UNL     1       4.097   4.466  17.474  0.00  0.00    +0.000 A 
ATOM     19  O   UNL     1       3.411   3.343  17.865  0.00  0.00    +0.000 OA
ENDBRANCH   1  11
BRANCH   4  20
ATOM     20  C   UNL     1       1.012   9.335  21.681  0.00  0.00    +0.000 A 
ATOM     21  C   UNL     1       0.152   9.192  22.779  0.00  0.00    +0.000 A 
ATOM     22  C   UNL     1      -0.687  10.234  23.178  0.00  0.00    +0.000 A 
ATOM     23  C   UNL     1      -0.664  11.438  22.495  0.00  0.00    +0.000 A 
ATOM     24  C   UNL     1       0.212  11.607  21.417  0.00  0.00    +0.000 A 
ATOM     25  C   UNL     1       1.082  10.578  21.033  0.00  0.00    +0.000 A 
ATOM     26  N   UNL     1       0.135  12.774  20.651  0.00  0.00    +0.000 N 
ATOM     27  C   UNL     1      -0.756  13.768  20.965  0.00  0.00    +0.000 C 
ATOM     28  O   UNL     1      -0.981  14.700  20.198  0.00  0.00    +0.000 OA
ATOM     29  C   UNL     1      -1.346  13.666  22.368  0.00  0.00    +0.000 C 
ATOM     30  O   UNL     1      -1.582  12.371  22.894  0.00  0.00    +0.000 OA
ATOM     31  H   UNL     1       0.615  12.851  19.766  0.00  0.00    +0.000 HD
ENDBRANCH   4  20
TORSDOF 2
ENDMDL
MODEL 6
REMARK VINA RESULT:      -8.1      3.996      9.679
REMARK  Name = 
REMARK  4 active torsions:
REMARK  status: ('A' for Active; 'I' for Inactive)
REMARK    1  A    between atoms: C_1  and  C_2
REMARK    2  A    between atoms: C_2  and  C_3
REMARK    3  A    between atoms: C_5  and  N_6
REMARK    4  A    between atoms: N_9  and  C_10
REMARK                            x       y       z     vdW  Elec       q    Type
REMARK                         _______ _______ _______ _____ _____    ______ ____
ROOT
ATOM      1  N   UNL     1       2.216   7.079  20.086  0.00  0.00    +0.000 N 
ATOM      2  C   UNL     1       1.604   8.301  19.951  0.00  0.00    +0.000 C 
ATOM      3  O   UNL     1       1.217   8.699  18.858  0.00  0.00    +0.000 OA
ATOM      4  N   UNL     1       1.469   8.982  21.146  0.00  0.00    +0.000 N 
ATOM      5  H   UNL     1       2.291   6.670  21.005  0.00  0.00    +0.000 HD
ATOM      6  H   UNL     1       2.165   8.776  21.846  0.00  0.00    +0.000 HD
ENDROOT
BRANCH   1  11
ATOM      7  C   UNL     1       1.086   2.665  19.918  0.00  0.00    +0.000 C 
ATOM      8  C   UNL     1       2.048   3.862  19.869  0.00  0.00    +0.000 C 
ATOM      9  C   UNL     1       2.367   4.262  21.319  0.00  0.00    +0.000 C 
ATOM     10  C   UNL     1       1.397   4.961  19.024  0.00  0.00    +0.000 C 
ATOM     11  C   UNL     1       2.296   6.198  18.919  0.00  0.00    +0.000 C 
ATOM     12  C   UNL     1       3.710   5.757  18.630  0.00  0.00    +0.000 A 
ATOM     13  C   UNL     1       4.654   6.683  18.159  0.00  0.00    +0.000 A 
ATOM     14  C   UNL     1       5.947   6.270  17.832  0.00  0.00    +0.000 A 
ATOM     15  C   UNL     1       6.301   4.930  17.968  0.00  0.00    +0.000 A 
ATOM     16 CL   UNL     1       7.893   4.421  17.558  0.00  0.00    +0.000 Cl
ATOM     17  C   UNL     1       5.377   3.998  18.433  0.00  0.00    +0.000 A 
ATOM     18  C   UNL     1       4.091   4.411  18.778  0.00  0.00    +0.000 A 
ATOM     19  O   UNL     1       3.260   3.420  19.236  0.00  0.00    +0.000 OA
ENDBRANCH   1  11
BRANCH   4  20
ATOM     20  C   UNL     1       0.764  10.207  21.258  0.00  0.00    +0.000 A 
ATOM     21  C   UNL     1       1.260  11.397  20.705  0.00  0.00    +0.000 A 
ATOM     22  C   UNL     1       0.626  12.619  20.940  0.00  0.00    +0.000 A 
ATOM     23  C   UNL     1      -0.521  12.663  21.713  0.00  0.00    +0.000 A 
ATOM     24  C   UNL     1      -1.046  11.480  22.243  0.00  0.00    +0.000 A 
ATOM     25  C   UNL     1      -0.436  10.246  21.984  0.00  0.00    +0.000 A 
ATOM     26  N   UNL     1      -2.125  11.548  23.131  0.00  0.00    +0.000 N 
ATOM     27  C   UNL     1      -2.698  12.751  23.455  0.00  0.00    +0.000 C 
ATOM     28  O   UNL     1      -3.502  12.856  24.376  0.00  0.00    +0.000 OA
ATOM     29  C   UNL     1      -2.331  13.898  22.518  0.00  0.00    +0.000 C 
ATOM     30  O   UNL     1      -1.025  13.910  21.967  0.00  0.00    +0.000 OA
ATOM     31  H   UNL     1      -2.408  10.744  23.672  0.00  0.00    +0.000 HD
ENDBRANCH   4  20
TORSDOF 2
ENDMDL
MODEL 7
REMARK VINA RESULT:      -8.1      1.514      2.166
REMARK  Name = 
REMARK  4 active torsions:
REMARK  status: ('A' for Active; 'I' for Inactive)
REMARK    1  A    between atoms: C_1  and  C_2
REMARK    2  A    between atoms: C_2  and  C_3
REMARK    3  A    between atoms: C_5  and  N_6
REMARK    4  A    between atoms: N_9  and  C_10
REMARK                            x       y       z     vdW  Elec       q    Type
REMARK                         _______ _______ _______ _____ _____    ______ ____
ROOT
ATOM      1  N   UNL     1       0.483  10.215  19.820  0.00  0.00    +0.000 N 
ATOM      2  C   UNL     1       1.177   9.398  18.960  0.00  0.00    +0.000 C 
ATOM      3  O   UNL     1       1.300   9.685  17.774  0.00  0.00    +0.000 OA
ATOM      4  N   UNL     1       1.709   8.280  19.575  0.00  0.00    +0.000 N 
ATOM      5  H   UNL     1       0.612  10.096  20.814  0.00  0.00    +0.000 HD
ATOM      6  H   UNL     1       1.208   7.948  20.384  0.00  0.00    +0.000 HD
ENDROOT
BRANCH   1  11
ATOM      7  C   UNL     1      -0.420  13.928  22.307  0.00  0.00    +0.000 C 
ATOM      8  C   UNL     1      -0.768  12.732  21.407  0.00  0.00    +0.000 C 
ATOM      9  C   UNL     1      -0.831  11.481  22.299  0.00  0.00    +0.000 C 
ATOM     10  C   UNL     1       0.264  12.670  20.278  0.00  0.00    +0.000 C 
ATOM     11  C   UNL     1      -0.011  11.501  19.325  0.00  0.00    +0.000 C 
ATOM     12  C   UNL     1      -1.485  11.462  19.007  0.00  0.00    +0.000 A 
ATOM     13  C   UNL     1      -1.950  10.715  17.914  0.00  0.00    +0.000 A 
ATOM     14  C   UNL     1      -3.305  10.723  17.576  0.00  0.00    +0.000 A 
ATOM     15  C   UNL     1      -4.201  11.483  18.324  0.00  0.00    +0.000 A 
ATOM     16 CL   UNL     1      -5.869  11.497  17.903  0.00  0.00    +0.000 Cl
ATOM     17  C   UNL     1      -3.757  12.231  19.411  0.00  0.00    +0.000 A 
ATOM     18  C   UNL     1      -2.408  12.209  19.762  0.00  0.00    +0.000 A 
ATOM     19  O   UNL     1      -2.074  12.970  20.854  0.00  0.00    +0.000 OA
ENDBRANCH   1  11
BRANCH   4  20
ATOM     20  C   UNL     1       2.558   7.365  18.902  0.00  0.00    +0.000 A 
ATOM     21  C   UNL     1       3.414   7.773  17.870  0.00  0.00    +0.000 A 
ATOM     22  C   UNL     1       4.141   6.841  17.126  0.00  0.00    +0.000 A 
ATOM     23  C   UNL     1       4.035   5.492  17.418  0.00  0.00    +0.000 A 
ATOM     24  C   UNL     1       3.210   5.072  18.467  0.00  0.00    +0.000 A 
ATOM     25  C   UNL     1       2.504   6.003  19.240  0.00  0.00    +0.000 A 
ATOM     26  N   UNL     1       3.004   3.704  18.669  0.00  0.00    +0.000 N 
ATOM     27  C   UNL     1       3.629   2.772  17.882  0.00  0.00    +0.000 C 
ATOM     28  O   UNL     1       3.311   1.586  17.908  0.00  0.00    +0.000 OA
ATOM     29  C   UNL     1       4.802   3.315  17.071  0.00  0.00    +0.000 C 
ATOM     30  O   UNL     1       4.709   4.643  16.584  0.00  0.00    +0.000 OA
ATOM     31  H   UNL     1       2.279   3.370  19.288  0.00  0.00    +0.000 HD
ENDBRANCH   4  20
TORSDOF 2
ENDMDL
MODEL 8
REMARK VINA RESULT:      -8.1      3.731      9.308
REMARK  Name = 
REMARK  4 active torsions:
REMARK  status: ('A' for Active; 'I' for Inactive)
REMARK    1  A    between atoms: C_1  and  C_2
REMARK    2  A    between atoms: C_2  and  C_3
REMARK    3  A    between atoms: C_5  and  N_6
REMARK    4  A    between atoms: N_9  and  C_10
REMARK                            x       y       z     vdW  Elec       q    Type
REMARK                         _______ _______ _______ _____ _____    ______ ____
ROOT
ATOM      1  N   UNL     1       2.058   7.326  18.893  0.00  0.00    +0.000 N 
ATOM      2  C   UNL     1       1.950   8.620  18.445  0.00  0.00    +0.000 C 
ATOM      3  O   UNL     1       2.186   8.909  17.277  0.00  0.00    +0.000 OA
ATOM      4  N   UNL     1       1.541   9.507  19.424  0.00  0.00    +0.000 N 
ATOM      5  H   UNL     1       1.621   7.075  19.767  0.00  0.00    +0.000 HD
ATOM      6  H   UNL     1       1.789   9.258  20.368  0.00  0.00    +0.000 HD
ENDROOT
BRANCH   1  11
ATOM      7  C   UNL     1       0.969   2.915  19.268  0.00  0.00    +0.000 C 
ATOM      8  C   UNL     1       1.926   4.115  19.193  0.00  0.00    +0.000 C 
ATOM      9  C   UNL     1       1.975   4.758  20.588  0.00  0.00    +0.000 C 
ATOM     10  C   UNL     1       1.443   5.039  18.072  0.00  0.00    +0.000 C 
ATOM     11  C   UNL     1       2.348   6.267  17.924  0.00  0.00    +0.000 C 
ATOM     12  C   UNL     1       3.789   5.826  17.974  0.00  0.00    +0.000 A 
ATOM     13  C   UNL     1       4.806   6.687  17.532  0.00  0.00    +0.000 A 
ATOM     14  C   UNL     1       6.136   6.264  17.518  0.00  0.00    +0.000 A 
ATOM     15  C   UNL     1       6.457   4.975  17.938  0.00  0.00    +0.000 A 
ATOM     16 CL   UNL     1       8.096   4.452  17.914  0.00  0.00    +0.000 Cl
ATOM     17  C   UNL     1       5.462   4.107  18.379  0.00  0.00    +0.000 A 
ATOM     18  C   UNL     1       4.135   4.534  18.412  0.00  0.00    +0.000 A 
ATOM     19  O   UNL     1       3.233   3.608  18.872  0.00  0.00    +0.000 OA
ENDBRANCH   1  11
BRANCH   4  20
ATOM     20  C   UNL     1       1.252  10.869  19.154  0.00  0.00    +0.000 A 
ATOM     21  C   UNL     1       2.128  11.678  18.417  0.00  0.00    +0.000 A 
ATOM     22  C   UNL     1       1.898  13.048  18.277  0.00  0.00    +0.000 A 
ATOM     23  C   UNL     1       0.779  13.622  18.856  0.00  0.00    +0.000 A 
ATOM     24  C   UNL     1      -0.122  12.822  19.567  0.00  0.00    +0.000 A 
ATOM     25  C   UNL     1       0.084  11.441  19.682  0.00  0.00    +0.000 A 
ATOM     26  N   UNL     1      -1.174  13.427  20.260  0.00  0.00    +0.000 N 
ATOM     27  C   UNL     1      -1.358  14.785  20.219  0.00  0.00    +0.000 C 
ATOM     28  O   UNL     1      -2.142  15.354  20.973  0.00  0.00    +0.000 OA
ATOM     29  C   UNL     1      -0.595  15.492  19.103  0.00  0.00    +0.000 C 
ATOM     30  O   UNL     1       0.679  14.982  18.747  0.00  0.00    +0.000 OA
ATOM     31  H   UNL     1      -1.728  12.909  20.927  0.00  0.00    +0.000 HD
ENDBRANCH   4  20
TORSDOF 2
ENDMDL
MODEL 9
REMARK VINA RESULT:      -8.0      3.679      9.510
REMARK  Name = 
REMARK  4 active torsions:
REMARK  status: ('A' for Active; 'I' for Inactive)
REMARK    1  A    between atoms: C_1  and  C_2
REMARK    2  A    between atoms: C_2  and  C_3
REMARK    3  A    between atoms: C_5  and  N_6
REMARK    4  A    between atoms: N_9  and  C_10
REMARK                            x       y       z     vdW  Elec       q    Type
REMARK                         _______ _______ _______ _____ _____    ______ ____
ROOT
ATOM      1  N   UNL     1       2.165   7.243  19.203  0.00  0.00    +0.000 N 
ATOM      2  C   UNL     1       1.645   8.479  18.900  0.00  0.00    +0.000 C 
ATOM      3  O   UNL     1       1.464   8.821  17.737  0.00  0.00    +0.000 OA
ATOM      4  N   UNL     1       1.349   9.238  20.016  0.00  0.00    +0.000 N 
ATOM      5  H   UNL     1       2.067   6.892  20.144  0.00  0.00    +0.000 HD
ATOM      6  H   UNL     1       1.909   9.049  20.833  0.00  0.00    +0.000 HD
ENDROOT
BRANCH   1  11
ATOM      7  C   UNL     1       0.984   2.840  19.154  0.00  0.00    +0.000 C 
ATOM      8  C   UNL     1       1.966   4.022  19.168  0.00  0.00    +0.000 C 
ATOM      9  C   UNL     1       2.085   4.512  20.620  0.00  0.00    +0.000 C 
ATOM     10  C   UNL     1       1.464   5.070  18.171  0.00  0.00    +0.000 C 
ATOM     11  C   UNL     1       2.392   6.288  18.117  0.00  0.00    +0.000 C 
ATOM     12  C   UNL     1       3.823   5.815  18.062  0.00  0.00    +0.000 A 
ATOM     13  C   UNL     1       4.842   6.698  17.673  0.00  0.00    +0.000 A 
ATOM     14  C   UNL     1       6.160   6.251  17.560  0.00  0.00    +0.000 A 
ATOM     15  C   UNL     1       6.466   4.919  17.829  0.00  0.00    +0.000 A 
ATOM     16 CL   UNL     1       8.090   4.368  17.683  0.00  0.00    +0.000 Cl
ATOM     17  C   UNL     1       5.468   4.029  18.215  0.00  0.00    +0.000 A 
ATOM     18  C   UNL     1       4.154   4.477  18.346  0.00  0.00    +0.000 A 
ATOM     19  O   UNL     1       3.247   3.526  18.742  0.00  0.00    +0.000 OA
ENDBRANCH   1  11
BRANCH   4  20
ATOM     20  C   UNL     1       0.698  10.495  19.939  0.00  0.00    +0.000 A 
ATOM     21  C   UNL     1       1.241  11.565  19.214  0.00  0.00    +0.000 A 
ATOM     22  C   UNL     1       0.660  12.835  19.259  0.00  0.00    +0.000 A 
ATOM     23  C   UNL     1      -0.480  13.045  20.015  0.00  0.00    +0.000 A 
ATOM     24  C   UNL     1      -1.053  11.979  20.717  0.00  0.00    +0.000 A 
ATOM     25  C   UNL     1      -0.496  10.695  20.649  0.00  0.00    +0.000 A 
ATOM     26  N   UNL     1      -2.123  12.227  21.583  0.00  0.00    +0.000 N 
ATOM     27  C   UNL     1      -2.643  13.488  21.720  0.00  0.00    +0.000 C 
ATOM     28  O   UNL     1      -3.438  13.765  22.613  0.00  0.00    +0.000 OA
ATOM     29  C   UNL     1      -2.232  14.463  20.620  0.00  0.00    +0.000 C 
ATOM     30  O   UNL     1      -0.930  14.336  20.076  0.00  0.00    +0.000 OA
ATOM     31  H   UNL     1      -2.438  11.527  22.239  0.00  0.00    +0.000 HD
ENDBRANCH   4  20
TORSDOF 2
ENDMDL
