MODEL 1
REMARK VINA RESULT:      -7.8      0.000      0.000
REMARK  Name = 
REMARK  13 active torsions:
REMARK  status: ('A' for Active; 'I' for Inactive)
REMARK    1  A    between atoms: C_1  and  C_2
REMARK    2  A    between atoms: C_2  and  C_3
REMARK    3  A    between atoms: C_4  and  C_5
REMARK    4  A    between atoms: C_5  and  C_6
REMARK    5  A    between atoms: C_11  and  S_12
REMARK    6  A    between atoms: S_12  and  C_13
REMARK    7  A    between atoms: C_13  and  C_14
REMARK    8  A    between atoms: C_14  and  C_15
REMARK    9  A    between atoms: C_15  and  C_16
REMARK   10  A    between atoms: C_16  and  O_18
REMARK   11  A    between atoms: C_19  and  C_20
REMARK   12  A    between atoms: N_23  and  C_24
REMARK   13  A    between atoms: C_24  and  C_25
REMARK                            x       y       z     vdW  Elec       q    Type
REMARK                         _______ _______ _______ _____ _____    ______ ____
ROOT
ATOM      1  C   UNL     1       3.483   4.558  19.275  0.00  0.00    +0.000 A 
ATOM      2  C   UNL     1       2.650   5.088  20.264  0.00  0.00    +0.000 A 
ATOM      3  C   UNL     1       2.315   6.430  19.862  0.00  0.00    +0.000 A 
ATOM      4  C   UNL     1       1.510   7.462  20.404  0.00  0.00    +0.000 A 
ATOM      5  C   UNL     1       1.353   8.696  19.729  0.00  0.00    +0.000 A 
ATOM      6  C   UNL     1       2.001   8.902  18.500  0.00  0.00    +0.000 A 
ATOM      7  C   UNL     1       2.025  10.199  17.737  0.00  0.00    +0.000 C 
ATOM      8  C   UNL     1       2.785   7.871  17.948  0.00  0.00    +0.000 A 
ATOM      9  C   UNL     1       2.958   6.675  18.657  0.00  0.00    +0.000 A 
ATOM     10  N   UNL     1       3.751   5.579  18.378  0.00  0.00    +0.000 N 
ENDROOT
BRANCH   1  12
ATOM     11  C   UNL     1       3.241   2.382  18.010  0.00  0.00    +0.000 C 
ATOM     12  C   UNL     1       3.995   3.161  19.071  0.00  0.00    +0.000 C 
ENDBRANCH   1  12
BRANCH   2  13
ATOM     13  C   UNL     1       2.106   4.372  21.469  0.00  0.00    +0.000 C 
BRANCH  13  14
ATOM     14  C   UNL     1       1.371   3.070  21.193  0.00  0.00    +0.000 C 
ATOM     15  N   UNL     1       1.513   2.049  22.089  0.00  0.00    +0.000 N 
ATOM     16  O   UNL     1       0.595   2.939  20.246  0.00  0.00    +0.000 OA
ATOM     17  H   UNL     1       2.230   2.050  22.799  0.00  0.00    +0.000 HD
ATOM     18  H   UNL     1       1.034   1.180  21.883  0.00  0.00    +0.000 HD
ENDBRANCH  13  14
ENDBRANCH   2  13
BRANCH   5  19
ATOM     19  S   UNL     1       0.415   9.960  20.597  0.00  0.00    +0.000 S 
BRANCH  19  20
ATOM     20  C   UNL     1      -1.035  10.170  19.495  0.00  0.00    +0.000 C 
BRANCH  20  21
ATOM     21  C   UNL     1      -1.481  11.634  19.384  0.00  0.00    +0.000 C 
BRANCH  21  22
ATOM     22  C   UNL     1      -2.845  11.836  18.716  0.00  0.00    +0.000 C 
BRANCH  22  23
ATOM     23  C   UNL     1      -2.901  11.225  17.334  0.00  0.00    +0.000 C 
ATOM     24  O   UNL     1      -3.600  10.281  17.003  0.00  0.00    +0.000 OA
BRANCH  23  25
ATOM     25  O   UNL     1      -2.060  11.840  16.469  0.00  0.00    +0.000 OA
ATOM     26  H   UNL     1      -2.493  12.151  15.652  0.00  0.00    +0.000 HD
ENDBRANCH  23  25
ENDBRANCH  22  23
ENDBRANCH  21  22
ENDBRANCH  20  21
ENDBRANCH  19  20
ENDBRANCH   5  19
BRANCH  10  27
ATOM     27  C   UNL     1       4.778   5.571  17.334  0.00  0.00    +0.000 C 
BRANCH  27  28
ATOM     28  C   UNL     1       6.102   6.186  17.714  0.00  0.00    +0.000 A 
ATOM     29  C   UNL     1       6.987   5.618  18.646  0.00  0.00    +0.000 A 
ATOM     30  C   UNL     1       8.142   6.298  19.030  0.00  0.00    +0.000 A 
ATOM     31  C   UNL     1       8.447   7.536  18.469  0.00  0.00    +0.000 A 
ATOM     32  C   UNL     1       7.612   8.085  17.501  0.00  0.00    +0.000 A 
ATOM     33  C   UNL     1       6.454   7.412  17.122  0.00  0.00    +0.000 A 
ENDBRANCH  27  28
ENDBRANCH  10  27
TORSDOF 11
ENDMDL
MODEL 2
REMARK VINA RESULT:      -7.8      1.973      2.266
REMARK  Name = 
REMARK  13 active torsions:
REMARK  status: ('A' for Active; 'I' for Inactive)
REMARK    1  A    between atoms: C_1  and  C_2
REMARK    2  A    between atoms: C_2  and  C_3
REMARK    3  A    between atoms: C_4  and  C_5
REMARK    4  A    between atoms: C_5  and  C_6
REMARK    5  A    between atoms: C_11  and  S_12
REMARK    6  A    between atoms: S_12  and  C_13
REMARK    7  A    between atoms: C_13  and  C_14
REMARK    8  A    between atoms: C_14  and  C_15
REMARK    9  A    between atoms: C_15  and  C_16
REMARK   10  A    between atoms: C_16  and  O_18
REMARK   11  A    between atoms: C_19  and  C_20
REMARK   12  A    between atoms: N_23  and  C_24
REMARK   13  A    between atoms: C_24  and  C_25
REMARK                            x       y       z     vdW  Elec       q    Type
REMARK                         _______ _______ _______ _____ _____    ______ ____
ROOT
ATOM      1  C   UNL     1       3.509   4.525  19.334  0.00  0.00    +0.000 A 
ATOM      2  C   UNL     1       2.674   5.058  20.319  0.00  0.00    +0.000 A 
ATOM      3  C   UNL     1       2.328   6.394  19.904  0.00  0.00    +0.000 A 
ATOM      4  C   UNL     1       1.516   7.425  20.437  0.00  0.00    +0.000 A 
ATOM      5  C   UNL     1       1.348   8.651  19.750  0.00  0.00    +0.000 A 
ATOM      6  C   UNL     1       1.992   8.850  18.518  0.00  0.00    +0.000 A 
ATOM      7  C   UNL     1       2.004  10.138  17.741  0.00  0.00    +0.000 C 
ATOM      8  C   UNL     1       2.782   7.819  17.974  0.00  0.00    +0.000 A 
ATOM      9  C   UNL     1       2.966   6.631  18.695  0.00  0.00    +0.000 A 
ATOM     10  N   UNL     1       3.767   5.539  18.426  0.00  0.00    +0.000 N 
ENDROOT
BRANCH   1  12
ATOM     11  C   UNL     1       3.257   2.322  18.118  0.00  0.00    +0.000 C 
ATOM     12  C   UNL     1       4.031   3.130  19.143  0.00  0.00    +0.000 C 
ENDBRANCH   1  12
BRANCH   2  13
ATOM     13  C   UNL     1       2.138   4.350  21.532  0.00  0.00    +0.000 C 
BRANCH  13  14
ATOM     14  C   UNL     1       1.322   3.096  21.263  0.00  0.00    +0.000 C 
ATOM     15  N   UNL     1       1.295   2.128  22.226  0.00  0.00    +0.000 N 
ATOM     16  O   UNL     1       0.624   2.967  20.258  0.00  0.00    +0.000 OA
ATOM     17  H   UNL     1       1.944   2.117  23.000  0.00  0.00    +0.000 HD
ATOM     18  H   UNL     1       0.764   1.289  22.027  0.00  0.00    +0.000 HD
ENDBRANCH  13  14
ENDBRANCH   2  13
BRANCH   5  19
ATOM     19  S   UNL     1       0.402   9.917  20.607  0.00  0.00    +0.000 S 
BRANCH  19  20
ATOM     20  C   UNL     1      -0.390   8.946  21.946  0.00  0.00    +0.000 C 
BRANCH  20  21
ATOM     21  C   UNL     1      -0.741   9.807  23.166  0.00  0.00    +0.000 C 
BRANCH  21  22
ATOM     22  C   UNL     1      -0.767  11.316  22.895  0.00  0.00    +0.000 C 
BRANCH  22  23
ATOM     23  C   UNL     1      -2.156  11.814  22.567  0.00  0.00    +0.000 C 
ATOM     24  O   UNL     1      -2.501  12.307  21.506  0.00  0.00    +0.000 OA
BRANCH  23  25
ATOM     25  O   UNL     1      -3.010  11.667  23.608  0.00  0.00    +0.000 OA
ATOM     26  H   UNL     1      -3.869  11.274  23.360  0.00  0.00    +0.000 HD
ENDBRANCH  23  25
ENDBRANCH  22  23
ENDBRANCH  21  22
ENDBRANCH  20  21
ENDBRANCH  19  20
ENDBRANCH   5  19
BRANCH  10  27
ATOM     27  C   UNL     1       4.792   5.528  17.379  0.00  0.00    +0.000 C 
BRANCH  27  28
ATOM     28  C   UNL     1       6.111   6.158  17.749  0.00  0.00    +0.000 A 
ATOM     29  C   UNL     1       6.982   5.634  18.718  0.00  0.00    +0.000 A 
ATOM     30  C   UNL     1       8.132   6.330  19.087  0.00  0.00    +0.000 A 
ATOM     31  C   UNL     1       8.447   7.540  18.474  0.00  0.00    +0.000 A 
ATOM     32  C   UNL     1       7.627   8.045  17.470  0.00  0.00    +0.000 A 
ATOM     33  C   UNL     1       6.472   7.356  17.106  0.00  0.00    +0.000 A 
ENDBRANCH  27  28
ENDBRANCH  10  27
TORSDOF 11
ENDMDL
MODEL 3
REMARK VINA RESULT:      -7.7      1.530      1.667
REMARK  Name = 
REMARK  13 active torsions:
REMARK  status: ('A' for Active; 'I' for Inactive)
REMARK    1  A    between atoms: C_1  and  C_2
REMARK    2  A    between atoms: C_2  and  C_3
REMARK    3  A    between atoms: C_4  and  C_5
REMARK    4  A    between atoms: C_5  and  C_6
REMARK    5  A    between atoms: C_11  and  S_12
REMARK    6  A    between atoms: S_12  and  C_13
REMARK    7  A    between atoms: C_13  and  C_14
REMARK    8  A    between atoms: C_14  and  C_15
REMARK    9  A    between atoms: C_15  and  C_16
REMARK   10  A    between atoms: C_16  and  O_18
REMARK   11  A    between atoms: C_19  and  C_20
REMARK   12  A    between atoms: N_23  and  C_24
REMARK   13  A    between atoms: C_24  and  C_25
REMARK                            x       y       z     vdW  Elec       q    Type
REMARK                         _______ _______ _______ _____ _____    ______ ____
ROOT
ATOM      1  C   UNL     1       3.521   4.400  19.418  0.00  0.00    +0.000 A 
ATOM      2  C   UNL     1       2.703   4.942  20.412  0.00  0.00    +0.000 A 
ATOM      3  C   UNL     1       2.349   6.274  19.992  0.00  0.00    +0.000 A 
ATOM      4  C   UNL     1       1.547   7.310  20.529  0.00  0.00    +0.000 A 
ATOM      5  C   UNL     1       1.367   8.530  19.834  0.00  0.00    +0.000 A 
ATOM      6  C   UNL     1       1.989   8.717  18.590  0.00  0.00    +0.000 A 
ATOM      7  C   UNL     1       1.988   9.999  17.802  0.00  0.00    +0.000 C 
ATOM      8  C   UNL     1       2.770   7.682  18.042  0.00  0.00    +0.000 A 
ATOM      9  C   UNL     1       2.966   6.500  18.769  0.00  0.00    +0.000 A 
ATOM     10  N   UNL     1       3.762   5.406  18.496  0.00  0.00    +0.000 N 
ENDROOT
BRANCH   1  12
ATOM     11  C   UNL     1       3.228   2.176  18.251  0.00  0.00    +0.000 C 
ATOM     12  C   UNL     1       4.039   3.003  19.230  0.00  0.00    +0.000 C 
ENDBRANCH   1  12
BRANCH   2  13
ATOM     13  C   UNL     1       2.188   4.245  21.641  0.00  0.00    +0.000 C 
BRANCH  13  14
ATOM     14  C   UNL     1       1.315   3.025  21.396  0.00  0.00    +0.000 C 
ATOM     15  N   UNL     1       0.452   3.053  20.338  0.00  0.00    +0.000 N 
ATOM     16  O   UNL     1       1.422   1.994  22.060  0.00  0.00    +0.000 OA
ATOM     17  H   UNL     1       0.226   3.907  19.849  0.00  0.00    +0.000 HD
ATOM     18  H   UNL     1      -0.138   2.242  20.197  0.00  0.00    +0.000 HD
ENDBRANCH  13  14
ENDBRANCH   2  13
BRANCH   5  19
ATOM     19  S   UNL     1       0.436   9.803  20.697  0.00  0.00    +0.000 S 
BRANCH  19  20
ATOM     20  C   UNL     1      -0.933  10.124  19.520  0.00  0.00    +0.000 C 
BRANCH  20  21
ATOM     21  C   UNL     1      -1.392  11.588  19.540  0.00  0.00    +0.000 C 
BRANCH  21  22
ATOM     22  C   UNL     1      -0.930  12.417  18.337  0.00  0.00    +0.000 C 
BRANCH  22  23
ATOM     23  C   UNL     1      -0.042  13.571  18.745  0.00  0.00    +0.000 C 
ATOM     24  O   UNL     1      -0.376  14.744  18.783  0.00  0.00    +0.000 OA
BRANCH  23  25
ATOM     25  O   UNL     1       1.210  13.164  19.062  0.00  0.00    +0.000 OA
ATOM     26  H   UNL     1       1.410  13.212  20.017  0.00  0.00    +0.000 HD
ENDBRANCH  23  25
ENDBRANCH  22  23
ENDBRANCH  21  22
ENDBRANCH  20  21
ENDBRANCH  19  20
ENDBRANCH   5  19
BRANCH  10  27
ATOM     27  C   UNL     1       4.769   5.386  17.433  0.00  0.00    +0.000 C 
BRANCH  27  28
ATOM     28  C   UNL     1       6.079   6.058  17.758  0.00  0.00    +0.000 A 
ATOM     29  C   UNL     1       7.005   5.554  18.687  0.00  0.00    +0.000 A 
ATOM     30  C   UNL     1       8.144   6.287  19.019  0.00  0.00    +0.000 A 
ATOM     31  C   UNL     1       8.392   7.514  18.409  0.00  0.00    +0.000 A 
ATOM     32  C   UNL     1       7.516   8.000  17.443  0.00  0.00    +0.000 A 
ATOM     33  C   UNL     1       6.373   7.274  17.116  0.00  0.00    +0.000 A 
ENDBRANCH  27  28
ENDBRANCH  10  27
TORSDOF 11
ENDMDL
MODEL 4
REMARK VINA RESULT:      -7.7      1.232      1.392
REMARK  Name = 
REMARK  13 active torsions:
REMARK  status: ('A' for Active; 'I' for Inactive)
REMARK    1  A    between atoms: C_1  and  C_2
REMARK    2  A    between atoms: C_2  and  C_3
REMARK    3  A    between atoms: C_4  and  C_5
REMARK    4  A    between atoms: C_5  and  C_6
REMARK    5  A    between atoms: C_11  and  S_12
REMARK    6  A    between atoms: S_12  and  C_13
REMARK    7  A    between atoms: C_13  and  C_14
REMARK    8  A    between atoms: C_14  and  C_15
REMARK    9  A    between atoms: C_15  and  C_16
REMARK   10  A    between atoms: C_16  and  O_18
REMARK   11  A    between atoms: C_19  and  C_20
REMARK   12  A    between atoms: N_23  and  C_24
REMARK   13  A    between atoms: C_24  and  C_25
REMARK                            x       y       z     vdW  Elec       q    Type
REMARK                         _______ _______ _______ _____ _____    ______ ____
ROOT
ATOM      1  C   UNL     1       3.512   4.564  19.372  0.00  0.00    +0.000 A 
ATOM      2  C   UNL     1       2.695   5.030  20.405  0.00  0.00    +0.000 A 
ATOM      3  C   UNL     1       2.239   6.343  20.025  0.00  0.00    +0.000 A 
ATOM      4  C   UNL     1       1.387   7.311  20.612  0.00  0.00    +0.000 A 
ATOM      5  C   UNL     1       1.103   8.530  19.949  0.00  0.00    +0.000 A 
ATOM      6  C   UNL     1       1.667   8.783  18.689  0.00  0.00    +0.000 A 
ATOM      7  C   UNL     1       1.553  10.077  17.930  0.00  0.00    +0.000 C 
ATOM      8  C   UNL     1       2.496   7.814  18.093  0.00  0.00    +0.000 A 
ATOM      9  C   UNL     1       2.796   6.634  18.788  0.00  0.00    +0.000 A 
ATOM     10  N   UNL     1       3.654   5.602  18.465  0.00  0.00    +0.000 N 
ENDROOT
BRANCH   1  12
ATOM     11  C   UNL     1       3.305   2.331  18.203  0.00  0.00    +0.000 C 
ATOM     12  C   UNL     1       4.117   3.210  19.137  0.00  0.00    +0.000 C 
ENDBRANCH   1  12
BRANCH   2  13
ATOM     13  C   UNL     1       2.271   4.276  21.635  0.00  0.00    +0.000 C 
BRANCH  13  14
ATOM     14  C   UNL     1       1.408   3.048  21.396  0.00  0.00    +0.000 C 
ATOM     15  N   UNL     1       0.489   3.093  20.387  0.00  0.00    +0.000 N 
ATOM     16  O   UNL     1       1.569   1.998  22.019  0.00  0.00    +0.000 OA
ATOM     17  H   UNL     1       0.222   3.958  19.939  0.00  0.00    +0.000 HD
ATOM     18  H   UNL     1      -0.093   2.276  20.251  0.00  0.00    +0.000 HD
ENDBRANCH  13  14
ENDBRANCH   2  13
BRANCH   5  19
ATOM     19  S   UNL     1       0.118   9.720  20.870  0.00  0.00    +0.000 S 
BRANCH  19  20
ATOM     20  C   UNL     1       1.135  11.238  20.720  0.00  0.00    +0.000 C 
BRANCH  20  21
ATOM     21  C   UNL     1       0.307  12.518  20.895  0.00  0.00    +0.000 C 
BRANCH  21  22
ATOM     22  C   UNL     1       0.031  13.281  19.595  0.00  0.00    +0.000 C 
BRANCH  22  23
ATOM     23  C   UNL     1      -1.147  12.713  18.837  0.00  0.00    +0.000 C 
ATOM     24  O   UNL     1      -2.111  12.157  19.337  0.00  0.00    +0.000 OA
BRANCH  23  25
ATOM     25  O   UNL     1      -1.019  12.874  17.498  0.00  0.00    +0.000 OA
ATOM     26  H   UNL     1      -0.127  13.154  17.218  0.00  0.00    +0.000 HD
ENDBRANCH  23  25
ENDBRANCH  22  23
ENDBRANCH  21  22
ENDBRANCH  20  21
ENDBRANCH  19  20
ENDBRANCH   5  19
BRANCH  10  27
ATOM     27  C   UNL     1       4.623   5.670  17.368  0.00  0.00    +0.000 C 
BRANCH  27  28
ATOM     28  C   UNL     1       5.984   6.210  17.729  0.00  0.00    +0.000 A 
ATOM     29  C   UNL     1       6.849   5.593  18.648  0.00  0.00    +0.000 A 
ATOM     30  C   UNL     1       8.045   6.208  19.016  0.00  0.00    +0.000 A 
ATOM     31  C   UNL     1       8.410   7.428  18.452  0.00  0.00    +0.000 A 
ATOM     32  C   UNL     1       7.593   8.024  17.497  0.00  0.00    +0.000 A 
ATOM     33  C   UNL     1       6.393   7.416  17.133  0.00  0.00    +0.000 A 
ENDBRANCH  27  28
ENDBRANCH  10  27
TORSDOF 11
ENDMDL
MODEL 5
REMARK VINA RESULT:      -7.7      0.916      1.118
REMARK  Name = 
REMARK  13 active torsions:
REMARK  status: ('A' for Active; 'I' for Inactive)
REMARK    1  A    between atoms: C_1  and  C_2
REMARK    2  A    between atoms: C_2  and  C_3
REMARK    3  A    between atoms: C_4  and  C_5
REMARK    4  A    between atoms: C_5  and  C_6
REMARK    5  A    between atoms: C_11  and  S_12
REMARK    6  A    between atoms: S_12  and  C_13
REMARK    7  A    between atoms: C_13  and  C_14
REMARK    8  A    between atoms: C_14  and  C_15
REMARK    9  A    between atoms: C_15  and  C_16
REMARK   10  A    between atoms: C_16  and  O_18
REMARK   11  A    between atoms: C_19  and  C_20
REMARK   12  A    between atoms: N_23  and  C_24
REMARK   13  A    between atoms: C_24  and  C_25
REMARK                            x       y       z     vdW  Elec       q    Type
REMARK                         _______ _______ _______ _____ _____    ______ ____
ROOT
ATOM      1  C   UNL     1       3.180   4.903  18.988  0.00  0.00    +0.000 A 
ATOM      2  C   UNL     1       2.369   5.407  20.007  0.00  0.00    +0.000 A 
ATOM      3  C   UNL     1       2.112   6.791  19.700  0.00  0.00    +0.000 A 
ATOM      4  C   UNL     1       1.360   7.825  20.310  0.00  0.00    +0.000 A 
ATOM      5  C   UNL     1       1.278   9.111  19.724  0.00  0.00    +0.000 A 
ATOM      6  C   UNL     1       1.947   9.367  18.517  0.00  0.00    +0.000 A 
ATOM      7  C   UNL     1       2.050  10.711  17.848  0.00  0.00    +0.000 C 
ATOM      8  C   UNL     1       2.678   8.336  17.897  0.00  0.00    +0.000 A 
ATOM      9  C   UNL     1       2.778   7.084  18.519  0.00  0.00    +0.000 A 
ATOM     10  N   UNL     1       3.512   5.969  18.167  0.00  0.00    +0.000 N 
ENDROOT
BRANCH   1  12
ATOM     11  C   UNL     1       2.868   2.859  17.532  0.00  0.00    +0.000 C 
ATOM     12  C   UNL     1       3.616   3.498  18.687  0.00  0.00    +0.000 C 
ENDBRANCH   1  12
BRANCH   2  13
ATOM     13  C   UNL     1       1.775   4.639  21.155  0.00  0.00    +0.000 C 
BRANCH  13  14
ATOM     14  C   UNL     1       1.210   3.268  20.816  0.00  0.00    +0.000 C 
ATOM     15  N   UNL     1       0.190   3.200  19.910  0.00  0.00    +0.000 N 
ATOM     16  O   UNL     1       1.693   2.228  21.260  0.00  0.00    +0.000 OA
ATOM     17  H   UNL     1      -0.330   4.015  19.619  0.00  0.00    +0.000 HD
ATOM     18  H   UNL     1      -0.191   2.283  19.707  0.00  0.00    +0.000 HD
ENDBRANCH  13  14
ENDBRANCH   2  13
BRANCH   5  19
ATOM     19  S   UNL     1       0.402  10.360  20.675  0.00  0.00    +0.000 S 
BRANCH  19  20
ATOM     20  C   UNL     1      -0.718  11.074  19.411  0.00  0.00    +0.000 C 
BRANCH  20  21
ATOM     21  C   UNL     1      -1.637  10.020  18.780  0.00  0.00    +0.000 C 
BRANCH  21  22
ATOM     22  C   UNL     1      -1.529   9.911  17.255  0.00  0.00    +0.000 C 
BRANCH  22  23
ATOM     23  C   UNL     1      -2.734  10.496  16.554  0.00  0.00    +0.000 C 
ATOM     24  O   UNL     1      -2.730  11.013  15.449  0.00  0.00    +0.000 OA
BRANCH  23  25
ATOM     25  O   UNL     1      -3.858  10.400  17.303  0.00  0.00    +0.000 OA
ATOM     26  H   UNL     1      -4.044  11.194  17.839  0.00  0.00    +0.000 HD
ENDBRANCH  23  25
ENDBRANCH  22  23
ENDBRANCH  21  22
ENDBRANCH  20  21
ENDBRANCH  19  20
ENDBRANCH   5  19
BRANCH  10  27
ATOM     27  C   UNL     1       4.547   5.978  17.131  0.00  0.00    +0.000 C 
BRANCH  27  28
ATOM     28  C   UNL     1       5.928   6.376  17.588  0.00  0.00    +0.000 A 
ATOM     29  C   UNL     1       6.695   5.628  18.496  0.00  0.00    +0.000 A 
ATOM     30  C   UNL     1       7.917   6.113  18.959  0.00  0.00    +0.000 A 
ATOM     31  C   UNL     1       8.407   7.333  18.500  0.00  0.00    +0.000 A 
ATOM     32  C   UNL     1       7.688   8.059  17.555  0.00  0.00    +0.000 A 
ATOM     33  C   UNL     1       6.463   7.581  17.098  0.00  0.00    +0.000 A 
ENDBRANCH  27  28
ENDBRANCH  10  27
TORSDOF 11
ENDMDL
MODEL 6
REMARK VINA RESULT:      -7.6      0.680      1.112
REMARK  Name = 
REMARK  13 active torsions:
REMARK  status: ('A' for Active; 'I' for Inactive)
REMARK    1  A    between atoms: C_1  and  C_2
REMARK    2  A    between atoms: C_2  and  C_3
REMARK    3  A    between atoms: C_4  and  C_5
REMARK    4  A    between atoms: C_5  and  C_6
REMARK    5  A    between atoms: C_11  and  S_12
REMARK    6  A    between atoms: S_12  and  C_13
REMARK    7  A    between atoms: C_13  and  C_14
REMARK    8  A    between atoms: C_14  and  C_15
REMARK    9  A    between atoms: C_15  and  C_16
REMARK   10  A    between atoms: C_16  and  O_18
REMARK   11  A    between atoms: C_19  and  C_20
REMARK   12  A    between atoms: N_23  and  C_24
REMARK   13  A    between atoms: C_24  and  C_25
REMARK                            x       y       z     vdW  Elec       q    Type
REMARK                         _______ _______ _______ _____ _____    ______ ____
ROOT
ATOM      1  C   UNL     1       3.474   4.386  19.493  0.00  0.00    +0.000 A 
ATOM      2  C   UNL     1       2.635   4.922  20.473  0.00  0.00    +0.000 A 
ATOM      3  C   UNL     1       2.290   6.256  20.053  0.00  0.00    +0.000 A 
ATOM      4  C   UNL     1       1.475   7.289  20.579  0.00  0.00    +0.000 A 
ATOM      5  C   UNL     1       1.310   8.512  19.887  0.00  0.00    +0.000 A 
ATOM      6  C   UNL     1       1.958   8.707  18.657  0.00  0.00    +0.000 A 
ATOM      7  C   UNL     1       1.973   9.993  17.876  0.00  0.00    +0.000 C 
ATOM      8  C   UNL     1       2.750   7.675  18.120  0.00  0.00    +0.000 A 
ATOM      9  C   UNL     1       2.932   6.489  18.845  0.00  0.00    +0.000 A 
ATOM     10  N   UNL     1       3.734   5.396  18.583  0.00  0.00    +0.000 N 
ENDROOT
BRANCH   1  12
ATOM     11  C   UNL     1       3.204   2.166  18.311  0.00  0.00    +0.000 C 
ATOM     12  C   UNL     1       3.997   2.990  19.309  0.00  0.00    +0.000 C 
ENDBRANCH   1  12
BRANCH   2  13
ATOM     13  C   UNL     1       2.095   4.218  21.687  0.00  0.00    +0.000 C 
BRANCH  13  14
ATOM     14  C   UNL     1       1.330   2.931  21.424  0.00  0.00    +0.000 C 
ATOM     15  N   UNL     1       0.445   2.910  20.383  0.00  0.00    +0.000 N 
ATOM     16  O   UNL     1       1.543   1.896  22.055  0.00  0.00    +0.000 OA
ATOM     17  H   UNL     1       0.133   3.753  19.923  0.00  0.00    +0.000 HD
ATOM     18  H   UNL     1      -0.072   2.053  20.230  0.00  0.00    +0.000 HD
ENDBRANCH  13  14
ENDBRANCH   2  13
BRANCH   5  19
ATOM     19  S   UNL     1       0.360   9.781  20.737  0.00  0.00    +0.000 S 
BRANCH  19  20
ATOM     20  C   UNL     1      -0.881  10.231  19.464  0.00  0.00    +0.000 C 
BRANCH  20  21
ATOM     21  C   UNL     1      -1.621  11.532  19.802  0.00  0.00    +0.000 C 
BRANCH  21  22
ATOM     22  C   UNL     1      -2.034  12.365  18.583  0.00  0.00    +0.000 C 
BRANCH  22  23
ATOM     23  C   UNL     1      -2.779  11.543  17.555  0.00  0.00    +0.000 C 
ATOM     24  O   UNL     1      -3.831  10.955  17.744  0.00  0.00    +0.000 OA
BRANCH  23  25
ATOM     25  O   UNL     1      -2.136  11.510  16.363  0.00  0.00    +0.000 OA
ATOM     26  H   UNL     1      -2.396  12.228  15.755  0.00  0.00    +0.000 HD
ENDBRANCH  23  25
ENDBRANCH  22  23
ENDBRANCH  21  22
ENDBRANCH  20  21
ENDBRANCH  19  20
ENDBRANCH   5  19
BRANCH  10  27
ATOM     27  C   UNL     1       4.763   5.382  17.540  0.00  0.00    +0.000 C 
BRANCH  27  28
ATOM     28  C   UNL     1       6.009   6.178  17.839  0.00  0.00    +0.000 A 
ATOM     29  C   UNL     1       6.354   7.366  17.173  0.00  0.00    +0.000 A 
ATOM     30  C   UNL     1       7.576   7.989  17.424  0.00  0.00    +0.000 A 
ATOM     31  C   UNL     1       8.456   7.455  18.362  0.00  0.00    +0.000 A 
ATOM     32  C   UNL     1       8.104   6.312  19.073  0.00  0.00    +0.000 A 
ATOM     33  C   UNL     1       6.888   5.683  18.818  0.00  0.00    +0.000 A 
ENDBRANCH  27  28
ENDBRANCH  10  27
TORSDOF 11
ENDMDL
MODEL 7
REMARK VINA RESULT:      -7.4      4.288      7.873
REMARK  Name = 
REMARK  13 active torsions:
REMARK  status: ('A' for Active; 'I' for Inactive)
REMARK    1  A    between atoms: C_1  and  C_2
REMARK    2  A    between atoms: C_2  and  C_3
REMARK    3  A    between atoms: C_4  and  C_5
REMARK    4  A    between atoms: C_5  and  C_6
REMARK    5  A    between atoms: C_11  and  S_12
REMARK    6  A    between atoms: S_12  and  C_13
REMARK    7  A    between atoms: C_13  and  C_14
REMARK    8  A    between atoms: C_14  and  C_15
REMARK    9  A    between atoms: C_15  and  C_16
REMARK   10  A    between atoms: C_16  and  O_18
REMARK   11  A    between atoms: C_19  and  C_20
REMARK   12  A    between atoms: N_23  and  C_24
REMARK   13  A    between atoms: C_24  and  C_25
REMARK                            x       y       z     vdW  Elec       q    Type
REMARK                         _______ _______ _______ _____ _____    ______ ____
ROOT
ATOM      1  C   UNL     1       2.239   4.946  19.162  0.00  0.00    +0.000 A 
ATOM      2  C   UNL     1       2.677   4.197  18.066  0.00  0.00    +0.000 A 
ATOM      3  C   UNL     1       3.892   4.809  17.592  0.00  0.00    +0.000 A 
ATOM      4  C   UNL     1       4.814   4.523  16.555  0.00  0.00    +0.000 A 
ATOM      5  C   UNL     1       5.966   5.323  16.362  0.00  0.00    +0.000 A 
ATOM      6  C   UNL     1       6.204   6.414  17.214  0.00  0.00    +0.000 A 
ATOM      7  C   UNL     1       7.313   7.417  17.051  0.00  0.00    +0.000 C 
ATOM      8  C   UNL     1       5.302   6.687  18.259  0.00  0.00    +0.000 A 
ATOM      9  C   UNL     1       4.147   5.906  18.403  0.00  0.00    +0.000 A 
ATOM     10  N   UNL     1       3.079   6.042  19.267  0.00  0.00    +0.000 N 
ENDROOT
BRANCH   1  12
ATOM     11  C   UNL     1       1.496   3.644  21.198  0.00  0.00    +0.000 C 
ATOM     12  C   UNL     1       1.141   4.683  20.151  0.00  0.00    +0.000 C 
ENDBRANCH   1  12
BRANCH   2  13
ATOM     13  C   UNL     1       2.070   2.927  17.537  0.00  0.00    +0.000 C 
BRANCH  13  14
ATOM     14  C   UNL     1       2.459   1.651  18.264  0.00  0.00    +0.000 C 
ATOM     15  N   UNL     1       3.720   1.161  18.075  0.00  0.00    +0.000 N 
ATOM     16  O   UNL     1       1.714   1.100  19.074  0.00  0.00    +0.000 OA
ATOM     17  H   UNL     1       4.319   1.487  17.331  0.00  0.00    +0.000 HD
ATOM     18  H   UNL     1       3.960   0.300  18.550  0.00  0.00    +0.000 HD
ENDBRANCH  13  14
ENDBRANCH   2  13
BRANCH   5  19
ATOM     19  S   UNL     1       6.973   4.927  14.926  0.00  0.00    +0.000 S 
BRANCH  19  20
ATOM     20  C   UNL     1       5.802   3.953  13.907  0.00  0.00    +0.000 C 
BRANCH  20  21
ATOM     21  C   UNL     1       6.303   3.747  12.472  0.00  0.00    +0.000 C 
BRANCH  21  22
ATOM     22  C   UNL     1       5.624   2.599  11.718  0.00  0.00    +0.000 C 
BRANCH  22  23
ATOM     23  C   UNL     1       6.608   1.533  11.293  0.00  0.00    +0.000 C 
ATOM     24  O   UNL     1       7.754   1.732  10.924  0.00  0.00    +0.000 OA
BRANCH  23  25
ATOM     25  O   UNL     1       6.072   0.291  11.349  0.00  0.00    +0.000 OA
ATOM     26  H   UNL     1       6.621  -0.354  11.834  0.00  0.00    +0.000 HD
ENDBRANCH  23  25
ENDBRANCH  22  23
ENDBRANCH  21  22
ENDBRANCH  20  21
ENDBRANCH  19  20
ENDBRANCH   5  19
BRANCH  10  27
ATOM     27  C   UNL     1       2.856   7.232  20.092  0.00  0.00    +0.000 C 
BRANCH  27  28
ATOM     28  C   UNL     1       1.856   8.224  19.554  0.00  0.00    +0.000 A 
ATOM     29  C   UNL     1       1.817   8.643  18.213  0.00  0.00    +0.000 A 
ATOM     30  C   UNL     1       0.936   9.646  17.811  0.00  0.00    +0.000 A 
ATOM     31  C   UNL     1       0.062  10.223  18.729  0.00  0.00    +0.000 A 
ATOM     32  C   UNL     1       0.046   9.778  20.047  0.00  0.00    +0.000 A 
ATOM     33  C   UNL     1       0.931   8.782  20.454  0.00  0.00    +0.000 A 
ENDBRANCH  27  28
ENDBRANCH  10  27
TORSDOF 11
ENDMDL
MODEL 8
REMARK VINA RESULT:      -7.2      4.280      7.833
REMARK  Name = 
REMARK  13 active torsions:
REMARK  status: ('A' for Active; 'I' for Inactive)
REMARK    1  A    between atoms: C_1  and  C_2
REMARK    2  A    between atoms: C_2  and  C_3
REMARK    3  A    between atoms: C_4  and  C_5
REMARK    4  A    between atoms: C_5  and  C_6
REMARK    5  A    between atoms: C_11  and  S_12
REMARK    6  A    between atoms: S_12  and  C_13
REMARK    7  A    between atoms: C_13  and  C_14
REMARK    8  A    between atoms: C_14  and  C_15
REMARK    9  A    between atoms: C_15  and  C_16
REMARK   10  A    between atoms: C_16  and  O_18
REMARK   11  A    between atoms: C_19  and  C_20
REMARK   12  A    between atoms: N_23  and  C_24
REMARK   13  A    between atoms: C_24  and  C_25
REMARK                            x       y       z     vdW  Elec       q    Type
REMARK                         _______ _______ _______ _____ _____    ______ ____
ROOT
ATOM      1  C   UNL     1       2.242   5.003  19.175  0.00  0.00    +0.000 A 
ATOM      2  C   UNL     1       2.683   4.272  18.070  0.00  0.00    +0.000 A 
ATOM      3  C   UNL     1       3.899   4.891  17.609  0.00  0.00    +0.000 A 
ATOM      4  C   UNL     1       4.824   4.623  16.570  0.00  0.00    +0.000 A 
ATOM      5  C   UNL     1       5.976   5.427  16.393  0.00  0.00    +0.000 A 
ATOM      6  C   UNL     1       6.211   6.504  17.262  0.00  0.00    +0.000 A 
ATOM      7  C   UNL     1       7.319   7.511  17.118  0.00  0.00    +0.000 C 
ATOM      8  C   UNL     1       5.305   6.761  18.309  0.00  0.00    +0.000 A 
ATOM      9  C   UNL     1       4.151   5.976  18.437  0.00  0.00    +0.000 A 
ATOM     10  N   UNL     1       3.080   6.098  19.300  0.00  0.00    +0.000 N 
ENDROOT
BRANCH   1  12
ATOM     11  C   UNL     1       1.536   3.766  21.265  0.00  0.00    +0.000 C 
ATOM     12  C   UNL     1       1.140   4.724  20.158  0.00  0.00    +0.000 C 
ENDBRANCH   1  12
BRANCH   2  13
ATOM     13  C   UNL     1       2.079   3.010  17.519  0.00  0.00    +0.000 C 
BRANCH  13  14
ATOM     14  C   UNL     1       2.387   1.734  18.287  0.00  0.00    +0.000 C 
ATOM     15  N   UNL     1       1.377   1.151  18.997  0.00  0.00    +0.000 N 
ATOM     16  O   UNL     1       3.480   1.173  18.220  0.00  0.00    +0.000 OA
ATOM     17  H   UNL     1       0.511   1.630  19.196  0.00  0.00    +0.000 HD
ATOM     18  H   UNL     1       1.600   0.313  19.520  0.00  0.00    +0.000 HD
ENDBRANCH  13  14
ENDBRANCH   2  13
BRANCH   5  19
ATOM     19  S   UNL     1       6.988   5.054  14.954  0.00  0.00    +0.000 S 
BRANCH  19  20
ATOM     20  C   UNL     1       5.848   4.021  13.956  0.00  0.00    +0.000 C 
BRANCH  20  21
ATOM     21  C   UNL     1       6.411   3.704  12.564  0.00  0.00    +0.000 C 
BRANCH  21  22
ATOM     22  C   UNL     1       5.664   2.597  11.812  0.00  0.00    +0.000 C 
BRANCH  22  23
ATOM     23  C   UNL     1       6.598   1.528  11.293  0.00  0.00    +0.000 C 
ATOM     24  O   UNL     1       7.735   1.713  10.890  0.00  0.00    +0.000 OA
BRANCH  23  25
ATOM     25  O   UNL     1       6.027   0.300  11.307  0.00  0.00    +0.000 OA
ATOM     26  H   UNL     1       5.053   0.317  11.247  0.00  0.00    +0.000 HD
ENDBRANCH  23  25
ENDBRANCH  22  23
ENDBRANCH  21  22
ENDBRANCH  20  21
ENDBRANCH  19  20
ENDBRANCH   5  19
BRANCH  10  27
ATOM     27  C   UNL     1       2.853   7.275  20.143  0.00  0.00    +0.000 C 
BRANCH  27  28
ATOM     28  C   UNL     1       1.893   8.299  19.592  0.00  0.00    +0.000 A 
ATOM     29  C   UNL     1       0.931   8.964  20.370  0.00  0.00    +0.000 A 
ATOM     30  C   UNL     1       0.004   9.816  19.773  0.00  0.00    +0.000 A 
ATOM     31  C   UNL     1       0.041  10.042  18.399  0.00  0.00    +0.000 A 
ATOM     32  C   UNL     1       1.024   9.438  17.622  0.00  0.00    +0.000 A 
ATOM     33  C   UNL     1       1.946   8.579  18.215  0.00  0.00    +0.000 A 
ENDBRANCH  27  28
ENDBRANCH  10  27
TORSDOF 11
ENDMDL
MODEL 9
REMARK VINA RESULT:      -7.2      1.988      2.354
REMARK  Name = 
REMARK  13 active torsions:
REMARK  status: ('A' for Active; 'I' for Inactive)
REMARK    1  A    between atoms: C_1  and  C_2
REMARK    2  A    between atoms: C_2  and  C_3
REMARK    3  A    between atoms: C_4  and  C_5
REMARK    4  A    between atoms: C_5  and  C_6
REMARK    5  A    between atoms: C_11  and  S_12
REMARK    6  A    between atoms: S_12  and  C_13
REMARK    7  A    between atoms: C_13  and  C_14
REMARK    8  A    between atoms: C_14  and  C_15
REMARK    9  A    between atoms: C_15  and  C_16
REMARK   10  A    between atoms: C_16  and  O_18
REMARK   11  A    between atoms: C_19  and  C_20
REMARK   12  A    between atoms: N_23  and  C_24
REMARK   13  A    between atoms: C_24  and  C_25
REMARK                            x       y       z     vdW  Elec       q    Type
REMARK                         _______ _______ _______ _____ _____    ______ ____
ROOT
ATOM      1  C   UNL     1       3.577   4.339  19.531  0.00  0.00    +0.000 A 
ATOM      2  C   UNL     1       2.718   4.861  20.501  0.00  0.00    +0.000 A 
ATOM      3  C   UNL     1       2.306   6.165  20.047  0.00  0.00    +0.000 A 
ATOM      4  C   UNL     1       1.445   7.170  20.550  0.00  0.00    +0.000 A 
ATOM      5  C   UNL     1       1.217   8.366  19.827  0.00  0.00    +0.000 A 
ATOM      6  C   UNL     1       1.850   8.558  18.588  0.00  0.00    +0.000 A 
ATOM      7  C   UNL     1       1.799   9.822  17.773  0.00  0.00    +0.000 C 
ATOM      8  C   UNL     1       2.689   7.551  18.075  0.00  0.00    +0.000 A 
ATOM      9  C   UNL     1       2.931   6.396  18.830  0.00  0.00    +0.000 A 
ATOM     10  N   UNL     1       3.784   5.337  18.592  0.00  0.00    +0.000 N 
ENDROOT
BRANCH   1  12
ATOM     11  C   UNL     1       3.381   2.062  18.450  0.00  0.00    +0.000 C 
ATOM     12  C   UNL     1       4.167   2.966  19.381  0.00  0.00    +0.000 C 
ENDBRANCH   1  12
BRANCH   2  13
ATOM     13  C   UNL     1       2.218   4.165  21.737  0.00  0.00    +0.000 C 
BRANCH  13  14
ATOM     14  C   UNL     1       1.346   2.941  21.503  0.00  0.00    +0.000 C 
ATOM     15  N   UNL     1       0.505   2.946  20.427  0.00  0.00    +0.000 N 
ATOM     16  O   UNL     1       1.437   1.925  22.193  0.00  0.00    +0.000 OA
ATOM     17  H   UNL     1       0.291   3.789  19.914  0.00  0.00    +0.000 HD
ATOM     18  H   UNL     1      -0.084   2.134  20.294  0.00  0.00    +0.000 HD
ENDBRANCH  13  14
ENDBRANCH   2  13
BRANCH   5  19
ATOM     19  S   UNL     1       0.211   9.609  20.648  0.00  0.00    +0.000 S 
BRANCH  19  20
ATOM     20  C   UNL     1       1.286  11.090  20.539  0.00  0.00    +0.000 C 
BRANCH  20  21
ATOM     21  C   UNL     1       0.482  12.389  20.402  0.00  0.00    +0.000 C 
BRANCH  21  22
ATOM     22  C   UNL     1       0.397  12.938  18.973  0.00  0.00    +0.000 C 
BRANCH  22  23
ATOM     23  C   UNL     1       1.644  13.694  18.576  0.00  0.00    +0.000 C 
ATOM     24  O   UNL     1       2.024  14.744  19.068  0.00  0.00    +0.000 OA
BRANCH  23  25
ATOM     25  O   UNL     1       2.319  13.079  17.576  0.00  0.00    +0.000 OA
ATOM     26  H   UNL     1       2.131  13.444  16.691  0.00  0.00    +0.000 HD
ENDBRANCH  23  25
ENDBRANCH  22  23
ENDBRANCH  21  22
ENDBRANCH  20  21
ENDBRANCH  19  20
ENDBRANCH   5  19
BRANCH  10  27
ATOM     27  C   UNL     1       4.809   5.345  17.545  0.00  0.00    +0.000 C 
BRANCH  27  28
ATOM     28  C   UNL     1       6.038   6.167  17.837  0.00  0.00    +0.000 A 
ATOM     29  C   UNL     1       6.363   7.353  17.157  0.00  0.00    +0.000 A 
ATOM     30  C   UNL     1       7.572   8.002  17.404  0.00  0.00    +0.000 A 
ATOM     31  C   UNL     1       8.459   7.497  18.351  0.00  0.00    +0.000 A 
ATOM     32  C   UNL     1       8.126   6.357  19.076  0.00  0.00    +0.000 A 
ATOM     33  C   UNL     1       6.923   5.702  18.825  0.00  0.00    +0.000 A 
ENDBRANCH  27  28
ENDBRANCH  10  27
TORSDOF 11
ENDMDL
