MODEL 1
REMARK VINA RESULT:      -6.7      0.000      0.000
REMARK  Name = 
REMARK  10 active torsions:
REMARK  status: ('A' for Active; 'I' for Inactive)
REMARK    1  A    between atoms: C_1  and  C_2
REMARK    2  A    between atoms: C_2  and  C_3
REMARK    3  A    between atoms: C_2  and  C_4
REMARK    4  A    between atoms: C_2  and  C_5
REMARK    5  A    between atoms: C_5  and  C_6
REMARK    6  A    between atoms: C_6  and  C_7
REMARK    7  A    between atoms: C_6  and  C_8
REMARK    8  A    between atoms: C_6  and  N_9
REMARK    9  A    between atoms: N_11  and  C_12
REMARK   10  A    between atoms: N_14  and  C_15
REMARK                            x       y       z     vdW  Elec       q    Type
REMARK                         _______ _______ _______ _____ _____    ______ ____
ROOT
ATOM      1  N   UNL     1       4.405   5.199  17.385  0.00  0.00    +0.000 NA
ATOM      2  C   UNL     1       4.987   4.079  17.071  0.00  0.00    +0.000 C 
ATOM      3  N   UNL     1       6.127   3.738  16.362  0.00  0.00    +0.000 N 
ATOM      4  N   UNL     1       4.446   2.877  17.491  0.00  0.00    +0.000 N 
ATOM      5  H   UNL     1       6.486   2.813  16.541  0.00  0.00    +0.000 HD
ATOM      6  H   UNL     1       4.397   2.160  16.779  0.00  0.00    +0.000 HD
ENDROOT
BRANCH   4   7
ATOM      7  C   UNL     1       3.483   2.725  18.502  0.00  0.00    +0.000 A 
ATOM      8  C   UNL     1       2.141   2.516  18.175  0.00  0.00    +0.000 A 
ATOM      9  C   UNL     1       1.185   2.397  19.183  0.00  0.00    +0.000 A 
ATOM     10  C   UNL     1       1.604   2.463  20.502  0.00  0.00    +0.000 A 
ATOM     11  N   UNL     1       2.892   2.619  20.866  0.00  0.00    +0.000 NA
ATOM     12  C   UNL     1       3.793   2.760  19.863  0.00  0.00    +0.000 A 
ENDBRANCH   4   7
BRANCH   1  13
ATOM     13  C   UNL     1       4.931   6.527  17.012  0.00  0.00    +0.000 C 
ATOM     14  C   UNL     1       4.892   6.556  15.477  0.00  0.00    +0.000 C 
ATOM     15  C   UNL     1       6.275   6.644  17.764  0.00  0.00    +0.000 C 
BRANCH  13  16
ATOM     16  C   UNL     1       3.990   7.711  17.516  0.00  0.00    +0.000 C 
BRANCH  16  18
ATOM     17  C   UNL     1       2.634   7.141  19.707  0.00  0.00    +0.000 C 
ATOM     18  C   UNL     1       2.573   7.366  18.182  0.00  0.00    +0.000 C 
ATOM     19  C   UNL     1       1.880   6.142  17.557  0.00  0.00    +0.000 C 
ATOM     20  C   UNL     1       1.605   8.561  17.985  0.00  0.00    +0.000 C 
ENDBRANCH  16  18
ENDBRANCH  13  16
ENDBRANCH   1  13
BRANCH   3  21
ATOM     21  C   UNL     1       6.961   4.543  15.508  0.00  0.00    +0.000 C 
ATOM     22  N   UNL     1       7.718   5.160  14.890  0.00  0.00    +0.000 NA
ENDBRANCH   3  21
TORSDOF 5
ENDMDL
MODEL 2
REMARK VINA RESULT:      -6.5      0.630      1.070
REMARK  Name = 
REMARK  10 active torsions:
REMARK  status: ('A' for Active; 'I' for Inactive)
REMARK    1  A    between atoms: C_1  and  C_2
REMARK    2  A    between atoms: C_2  and  C_3
REMARK    3  A    between atoms: C_2  and  C_4
REMARK    4  A    between atoms: C_2  and  C_5
REMARK    5  A    between atoms: C_5  and  C_6
REMARK    6  A    between atoms: C_6  and  C_7
REMARK    7  A    between atoms: C_6  and  C_8
REMARK    8  A    between atoms: C_6  and  N_9
REMARK    9  A    between atoms: N_11  and  C_12
REMARK   10  A    between atoms: N_14  and  C_15
REMARK                            x       y       z     vdW  Elec       q    Type
REMARK                         _______ _______ _______ _____ _____    ______ ____
ROOT
ATOM      1  N   UNL     1       4.385   5.199  17.376  0.00  0.00    +0.000 NA
ATOM      2  C   UNL     1       4.995   4.085  17.099  0.00  0.00    +0.000 C 
ATOM      3  N   UNL     1       6.166   3.754  16.435  0.00  0.00    +0.000 N 
ATOM      4  N   UNL     1       4.460   2.880  17.518  0.00  0.00    +0.000 N 
ATOM      5  H   UNL     1       6.533   2.837  16.640  0.00  0.00    +0.000 HD
ATOM      6  H   UNL     1       4.448   2.153  16.814  0.00  0.00    +0.000 HD
ENDROOT
BRANCH   4   7
ATOM      7  C   UNL     1       3.465   2.727  18.496  0.00  0.00    +0.000 A 
ATOM      8  C   UNL     1       3.772   2.889  19.849  0.00  0.00    +0.000 A 
ATOM      9  C   UNL     1       2.787   2.704  20.818  0.00  0.00    +0.000 A 
ATOM     10  C   UNL     1       1.503   2.386  20.403  0.00  0.00    +0.000 A 
ATOM     11  N   UNL     1       1.150   2.263  19.110  0.00  0.00    +0.000 NA
ATOM     12  C   UNL     1       2.137   2.421  18.193  0.00  0.00    +0.000 A 
ENDBRANCH   4   7
BRANCH   1  13
ATOM     13  C   UNL     1       4.902   6.531  17.001  0.00  0.00    +0.000 C 
ATOM     14  C   UNL     1       4.882   6.551  15.466  0.00  0.00    +0.000 C 
ATOM     15  C   UNL     1       6.235   6.665  17.770  0.00  0.00    +0.000 C 
BRANCH  13  16
ATOM     16  C   UNL     1       3.943   7.708  17.488  0.00  0.00    +0.000 C 
BRANCH  16  18
ATOM     17  C   UNL     1       2.655   7.151  19.723  0.00  0.00    +0.000 C 
ATOM     18  C   UNL     1       2.550   7.352  18.196  0.00  0.00    +0.000 C 
ATOM     19  C   UNL     1       1.861   6.107  17.609  0.00  0.00    +0.000 C 
ATOM     20  C   UNL     1       1.558   8.527  18.007  0.00  0.00    +0.000 C 
ENDBRANCH  16  18
ENDBRANCH  13  16
ENDBRANCH   1  13
BRANCH   3  21
ATOM     21  C   UNL     1       7.016   4.560  15.599  0.00  0.00    +0.000 C 
ATOM     22  N   UNL     1       7.725   5.112  14.872  0.00  0.00    +0.000 NA
ENDBRANCH   3  21
TORSDOF 5
ENDMDL
MODEL 3
REMARK VINA RESULT:      -6.3      1.432      4.901
REMARK  Name = 
REMARK  10 active torsions:
REMARK  status: ('A' for Active; 'I' for Inactive)
REMARK    1  A    between atoms: C_1  and  C_2
REMARK    2  A    between atoms: C_2  and  C_3
REMARK    3  A    between atoms: C_2  and  C_4
REMARK    4  A    between atoms: C_2  and  C_5
REMARK    5  A    between atoms: C_5  and  C_6
REMARK    6  A    between atoms: C_6  and  C_7
REMARK    7  A    between atoms: C_6  and  C_8
REMARK    8  A    between atoms: C_6  and  N_9
REMARK    9  A    between atoms: N_11  and  C_12
REMARK   10  A    between atoms: N_14  and  C_15
REMARK                            x       y       z     vdW  Elec       q    Type
REMARK                         _______ _______ _______ _____ _____    ______ ____
ROOT
ATOM      1  N   UNL     1       3.634   4.684  18.408  0.00  0.00    +0.000 NA
ATOM      2  C   UNL     1       4.431   3.775  18.886  0.00  0.00    +0.000 C 
ATOM      3  N   UNL     1       4.330   2.815  19.880  0.00  0.00    +0.000 N 
ATOM      4  N   UNL     1       5.701   3.622  18.359  0.00  0.00    +0.000 N 
ATOM      5  H   UNL     1       4.996   2.060  19.820  0.00  0.00    +0.000 HD
ATOM      6  H   UNL     1       6.439   3.533  19.046  0.00  0.00    +0.000 HD
ENDROOT
BRANCH   4   7
ATOM      7  C   UNL     1       6.142   4.141  17.131  0.00  0.00    +0.000 A 
ATOM      8  C   UNL     1       5.694   3.588  15.928  0.00  0.00    +0.000 A 
ATOM      9  C   UNL     1       6.160   4.087  14.712  0.00  0.00    +0.000 A 
ATOM     10  C   UNL     1       7.046   5.152  14.731  0.00  0.00    +0.000 A 
ATOM     11  N   UNL     1       7.470   5.746  15.863  0.00  0.00    +0.000 NA
ATOM     12  C   UNL     1       7.022   5.219  17.030  0.00  0.00    +0.000 A 
ENDBRANCH   4   7
BRANCH   1  13
ATOM     13  C   UNL     1       2.251   4.892  18.884  0.00  0.00    +0.000 C 
ATOM     14  C   UNL     1       2.390   5.268  20.366  0.00  0.00    +0.000 C 
ATOM     15  C   UNL     1       1.494   3.612  18.467  0.00  0.00    +0.000 C 
BRANCH  13  16
ATOM     16  C   UNL     1       1.546   6.127  18.163  0.00  0.00    +0.000 C 
BRANCH  16  18
ATOM     17  C   UNL     1       3.584   7.775  17.860  0.00  0.00    +0.000 C 
ATOM     18  C   UNL     1       2.136   7.603  18.365  0.00  0.00    +0.000 C 
ATOM     19  C   UNL     1       2.090   8.091  19.824  0.00  0.00    +0.000 C 
ATOM     20  C   UNL     1       1.296   8.613  17.543  0.00  0.00    +0.000 C 
ENDBRANCH  16  18
ENDBRANCH  13  16
ENDBRANCH   1  13
BRANCH   3  21
ATOM     21  C   UNL     1       3.339   2.650  20.910  0.00  0.00    +0.000 C 
ATOM     22  N   UNL     1       2.628   2.526  21.814  0.00  0.00    +0.000 NA
ENDBRANCH   3  21
TORSDOF 5
ENDMDL
MODEL 4
REMARK VINA RESULT:      -6.2      2.729      5.792
REMARK  Name = 
REMARK  10 active torsions:
REMARK  status: ('A' for Active; 'I' for Inactive)
REMARK    1  A    between atoms: C_1  and  C_2
REMARK    2  A    between atoms: C_2  and  C_3
REMARK    3  A    between atoms: C_2  and  C_4
REMARK    4  A    between atoms: C_2  and  C_5
REMARK    5  A    between atoms: C_5  and  C_6
REMARK    6  A    between atoms: C_6  and  C_7
REMARK    7  A    between atoms: C_6  and  C_8
REMARK    8  A    between atoms: C_6  and  N_9
REMARK    9  A    between atoms: N_11  and  C_12
REMARK   10  A    between atoms: N_14  and  C_15
REMARK                            x       y       z     vdW  Elec       q    Type
REMARK                         _______ _______ _______ _____ _____    ______ ____
ROOT
ATOM      1  N   UNL     1       2.270   6.927  18.984  0.00  0.00    +0.000 NA
ATOM      2  C   UNL     1       2.789   7.726  18.098  0.00  0.00    +0.000 C 
ATOM      3  N   UNL     1       3.739   7.588  17.098  0.00  0.00    +0.000 N 
ATOM      4  N   UNL     1       2.374   9.044  18.028  0.00  0.00    +0.000 N 
ATOM      5  H   UNL     1       3.715   8.296  16.380  0.00  0.00    +0.000 HD
ATOM      6  H   UNL     1       3.121   9.721  17.950  0.00  0.00    +0.000 HD
ENDROOT
BRANCH   4   7
ATOM      7  C   UNL     1       1.208   9.563  18.612  0.00  0.00    +0.000 A 
ATOM      8  C   UNL     1       0.048   9.728  17.851  0.00  0.00    +0.000 A 
ATOM      9  C   UNL     1      -1.097  10.274  18.429  0.00  0.00    +0.000 A 
ATOM     10  C   UNL     1      -1.061  10.618  19.771  0.00  0.00    +0.000 A 
ATOM     11  N   UNL     1       0.019  10.436  20.555  0.00  0.00    +0.000 NA
ATOM     12  C   UNL     1       1.126   9.930  19.957  0.00  0.00    +0.000 A 
ENDBRANCH   4   7
BRANCH   1  13
ATOM     13  C   UNL     1       2.626   5.499  19.106  0.00  0.00    +0.000 C 
ATOM     14  C   UNL     1       4.090   5.489  19.569  0.00  0.00    +0.000 C 
ATOM     15  C   UNL     1       2.229   4.877  17.749  0.00  0.00    +0.000 C 
BRANCH  13  16
ATOM     16  C   UNL     1       1.782   4.763  20.240  0.00  0.00    +0.000 C 
BRANCH  16  18
ATOM     17  C   UNL     1       3.100   2.491  19.988  0.00  0.00    +0.000 C 
ATOM     18  C   UNL     1       1.742   3.162  20.284  0.00  0.00    +0.000 C 
ATOM     19  C   UNL     1       0.701   2.545  19.332  0.00  0.00    +0.000 C 
ATOM     20  C   UNL     1       1.359   2.692  21.710  0.00  0.00    +0.000 C 
ENDBRANCH  16  18
ENDBRANCH  13  16
ENDBRANCH   1  13
BRANCH   3  21
ATOM     21  C   UNL     1       4.669   6.519  16.847  0.00  0.00    +0.000 C 
ATOM     22  N   UNL     1       5.387   5.669  16.535  0.00  0.00    +0.000 NA
ENDBRANCH   3  21
TORSDOF 5
ENDMDL
MODEL 5
REMARK VINA RESULT:      -6.0      2.733      5.858
REMARK  Name = 
REMARK  10 active torsions:
REMARK  status: ('A' for Active; 'I' for Inactive)
REMARK    1  A    between atoms: C_1  and  C_2
REMARK    2  A    between atoms: C_2  and  C_3
REMARK    3  A    between atoms: C_2  and  C_4
REMARK    4  A    between atoms: C_2  and  C_5
REMARK    5  A    between atoms: C_5  and  C_6
REMARK    6  A    between atoms: C_6  and  C_7
REMARK    7  A    between atoms: C_6  and  C_8
REMARK    8  A    between atoms: C_6  and  N_9
REMARK    9  A    between atoms: N_11  and  C_12
REMARK   10  A    between atoms: N_14  and  C_15
REMARK                            x       y       z     vdW  Elec       q    Type
REMARK                         _______ _______ _______ _____ _____    ______ ____
ROOT
ATOM      1  N   UNL     1       2.295   6.892  18.980  0.00  0.00    +0.000 NA
ATOM      2  C   UNL     1       2.813   7.689  18.092  0.00  0.00    +0.000 C 
ATOM      3  N   UNL     1       3.764   7.552  17.095  0.00  0.00    +0.000 N 
ATOM      4  N   UNL     1       2.393   9.005  18.016  0.00  0.00    +0.000 N 
ATOM      5  H   UNL     1       3.739   8.257  16.374  0.00  0.00    +0.000 HD
ATOM      6  H   UNL     1       3.138   9.686  17.938  0.00  0.00    +0.000 HD
ENDROOT
BRANCH   4   7
ATOM      7  C   UNL     1       1.224   9.523  18.597  0.00  0.00    +0.000 A 
ATOM      8  C   UNL     1       1.188   9.832  19.959  0.00  0.00    +0.000 A 
ATOM      9  C   UNL     1       0.015  10.316  20.536  0.00  0.00    +0.000 A 
ATOM     10  C   UNL     1      -1.092  10.506  19.724  0.00  0.00    +0.000 A 
ATOM     11  N   UNL     1      -1.091  10.265  18.399  0.00  0.00    +0.000 NA
ATOM     12  C   UNL     1       0.056   9.767  17.873  0.00  0.00    +0.000 A 
ENDBRANCH   4   7
BRANCH   1  13
ATOM     13  C   UNL     1       2.656   5.465  19.107  0.00  0.00    +0.000 C 
ATOM     14  C   UNL     1       4.112   5.463  19.594  0.00  0.00    +0.000 C 
ATOM     15  C   UNL     1       2.283   4.842  17.744  0.00  0.00    +0.000 C 
BRANCH  13  16
ATOM     16  C   UNL     1       1.797   4.725  20.228  0.00  0.00    +0.000 C 
BRANCH  16  18
ATOM     17  C   UNL     1       3.115   2.455  19.954  0.00  0.00    +0.000 C 
ATOM     18  C   UNL     1       1.759   3.124  20.267  0.00  0.00    +0.000 C 
ATOM     19  C   UNL     1       0.709   2.509  19.324  0.00  0.00    +0.000 C 
ATOM     20  C   UNL     1       1.391   2.649  21.695  0.00  0.00    +0.000 C 
ENDBRANCH  16  18
ENDBRANCH  13  16
ENDBRANCH   1  13
BRANCH   3  21
ATOM     21  C   UNL     1       4.699   6.485  16.849  0.00  0.00    +0.000 C 
ATOM     22  N   UNL     1       5.526   5.710  16.622  0.00  0.00    +0.000 NA
ENDBRANCH   3  21
TORSDOF 5
ENDMDL
MODEL 6
REMARK VINA RESULT:      -6.0      1.600      4.947
REMARK  Name = 
REMARK  10 active torsions:
REMARK  status: ('A' for Active; 'I' for Inactive)
REMARK    1  A    between atoms: C_1  and  C_2
REMARK    2  A    between atoms: C_2  and  C_3
REMARK    3  A    between atoms: C_2  and  C_4
REMARK    4  A    between atoms: C_2  and  C_5
REMARK    5  A    between atoms: C_5  and  C_6
REMARK    6  A    between atoms: C_6  and  C_7
REMARK    7  A    between atoms: C_6  and  C_8
REMARK    8  A    between atoms: C_6  and  N_9
REMARK    9  A    between atoms: N_11  and  C_12
REMARK   10  A    between atoms: N_14  and  C_15
REMARK                            x       y       z     vdW  Elec       q    Type
REMARK                         _______ _______ _______ _____ _____    ______ ____
ROOT
ATOM      1  N   UNL     1       3.790   4.832  18.400  0.00  0.00    +0.000 NA
ATOM      2  C   UNL     1       4.562   3.797  18.554  0.00  0.00    +0.000 C 
ATOM      3  N   UNL     1       4.350   2.435  18.693  0.00  0.00    +0.000 N 
ATOM      4  N   UNL     1       5.935   3.959  18.594  0.00  0.00    +0.000 N 
ATOM      5  H   UNL     1       5.148   1.852  18.491  0.00  0.00    +0.000 HD
ATOM      6  H   UNL     1       6.402   3.453  19.336  0.00  0.00    +0.000 HD
ENDROOT
BRANCH   4   7
ATOM      7  C   UNL     1       6.634   5.101  18.173  0.00  0.00    +0.000 A 
ATOM      8  C   UNL     1       7.363   5.862  19.091  0.00  0.00    +0.000 A 
ATOM      9  C   UNL     1       8.029   7.014  18.673  0.00  0.00    +0.000 A 
ATOM     10  C   UNL     1       7.971   7.361  17.333  0.00  0.00    +0.000 A 
ATOM     11  N   UNL     1       7.319   6.635  16.405  0.00  0.00    +0.000 NA
ATOM     12  C   UNL     1       6.657   5.537  16.847  0.00  0.00    +0.000 A 
ENDBRANCH   4   7
BRANCH   1  13
ATOM     13  C   UNL     1       2.318   4.748  18.309  0.00  0.00    +0.000 C 
ATOM     14  C   UNL     1       1.842   4.481  19.744  0.00  0.00    +0.000 C 
ATOM     15  C   UNL     1       2.051   3.718  17.190  0.00  0.00    +0.000 C 
BRANCH  13  16
ATOM     16  C   UNL     1       1.663   6.130  17.860  0.00  0.00    +0.000 C 
BRANCH  16  18
ATOM     17  C   UNL     1       3.798   7.680  17.909  0.00  0.00    +0.000 C 
ATOM     18  C   UNL     1       2.325   7.510  18.335  0.00  0.00    +0.000 C 
ATOM     19  C   UNL     1       2.251   7.738  19.856  0.00  0.00    +0.000 C 
ATOM     20  C   UNL     1       1.573   8.697  17.682  0.00  0.00    +0.000 C 
ENDBRANCH  16  18
ENDBRANCH  13  16
ENDBRANCH   1  13
BRANCH   3  21
ATOM     21  C   UNL     1       3.135   1.708  18.949  0.00  0.00    +0.000 C 
ATOM     22  N   UNL     1       2.184   1.133  19.266  0.00  0.00    +0.000 NA
ENDBRANCH   3  21
TORSDOF 5
ENDMDL
MODEL 7
REMARK VINA RESULT:      -5.9      1.830      4.828
REMARK  Name = 
REMARK  10 active torsions:
REMARK  status: ('A' for Active; 'I' for Inactive)
REMARK    1  A    between atoms: C_1  and  C_2
REMARK    2  A    between atoms: C_2  and  C_3
REMARK    3  A    between atoms: C_2  and  C_4
REMARK    4  A    between atoms: C_2  and  C_5
REMARK    5  A    between atoms: C_5  and  C_6
REMARK    6  A    between atoms: C_6  and  C_7
REMARK    7  A    between atoms: C_6  and  C_8
REMARK    8  A    between atoms: C_6  and  N_9
REMARK    9  A    between atoms: N_11  and  C_12
REMARK   10  A    between atoms: N_14  and  C_15
REMARK                            x       y       z     vdW  Elec       q    Type
REMARK                         _______ _______ _______ _____ _____    ______ ____
ROOT
ATOM      1  N   UNL     1       3.553   5.473  18.622  0.00  0.00    +0.000 NA
ATOM      2  C   UNL     1       3.901   6.201  17.602  0.00  0.00    +0.000 C 
ATOM      3  N   UNL     1       4.608   5.969  16.434  0.00  0.00    +0.000 N 
ATOM      4  N   UNL     1       3.531   7.533  17.546  0.00  0.00    +0.000 N 
ATOM      5  H   UNL     1       4.459   6.641  15.698  0.00  0.00    +0.000 HD
ATOM      6  H   UNL     1       4.270   8.168  17.273  0.00  0.00    +0.000 HD
ENDROOT
BRANCH   4   7
ATOM      7  C   UNL     1       2.539   8.138  18.333  0.00  0.00    +0.000 A 
ATOM      8  C   UNL     1       1.719   9.134  17.796  0.00  0.00    +0.000 A 
ATOM      9  C   UNL     1       0.756   9.753  18.592  0.00  0.00    +0.000 A 
ATOM     10  C   UNL     1       0.618   9.336  19.907  0.00  0.00    +0.000 A 
ATOM     11  N   UNL     1       1.354   8.350  20.455  0.00  0.00    +0.000 NA
ATOM     12  C   UNL     1       2.301   7.788  19.664  0.00  0.00    +0.000 A 
ENDBRANCH   4   7
BRANCH   1  13
ATOM     13  C   UNL     1       3.872   4.036  18.747  0.00  0.00    +0.000 C 
ATOM     14  C   UNL     1       5.400   3.975  18.881  0.00  0.00    +0.000 C 
ATOM     15  C   UNL     1       3.162   3.369  17.548  0.00  0.00    +0.000 C 
BRANCH  13  16
ATOM     16  C   UNL     1       3.270   3.400  20.080  0.00  0.00    +0.000 C 
BRANCH  16  18
ATOM     17  C   UNL     1       0.956   2.513  19.174  0.00  0.00    +0.000 C 
ATOM     18  C   UNL     1       1.680   3.321  20.270  0.00  0.00    +0.000 C 
ATOM     19  C   UNL     1       1.001   4.699  20.359  0.00  0.00    +0.000 C 
ATOM     20  C   UNL     1       1.354   2.590  21.597  0.00  0.00    +0.000 C 
ENDBRANCH  16  18
ENDBRANCH  13  16
ENDBRANCH   1  13
BRANCH   3  21
ATOM     21  C   UNL     1       5.422   4.844  16.053  0.00  0.00    +0.000 C 
ATOM     22  N   UNL     1       6.162   4.015  15.734  0.00  0.00    +0.000 NA
ENDBRANCH   3  21
TORSDOF 5
ENDMDL
MODEL 8
REMARK VINA RESULT:      -5.9      2.362      5.833
REMARK  Name = 
REMARK  10 active torsions:
REMARK  status: ('A' for Active; 'I' for Inactive)
REMARK    1  A    between atoms: C_1  and  C_2
REMARK    2  A    between atoms: C_2  and  C_3
REMARK    3  A    between atoms: C_2  and  C_4
REMARK    4  A    between atoms: C_2  and  C_5
REMARK    5  A    between atoms: C_5  and  C_6
REMARK    6  A    between atoms: C_6  and  C_7
REMARK    7  A    between atoms: C_6  and  C_8
REMARK    8  A    between atoms: C_6  and  N_9
REMARK    9  A    between atoms: N_11  and  C_12
REMARK   10  A    between atoms: N_14  and  C_15
REMARK                            x       y       z     vdW  Elec       q    Type
REMARK                         _______ _______ _______ _____ _____    ______ ____
ROOT
ATOM      1  N   UNL     1       2.550   5.304  18.971  0.00  0.00    +0.000 NA
ATOM      2  C   UNL     1       2.222   5.542  20.207  0.00  0.00    +0.000 C 
ATOM      3  N   UNL     1       2.298   4.828  21.391  0.00  0.00    +0.000 N 
ATOM      4  N   UNL     1       1.667   6.762  20.552  0.00  0.00    +0.000 N 
ATOM      5  H   UNL     1       2.247   5.381  22.233  0.00  0.00    +0.000 HD
ATOM      6  H   UNL     1       0.857   6.705  21.155  0.00  0.00    +0.000 HD
ENDROOT
BRANCH   4   7
ATOM      7  C   UNL     1       1.694   7.922  19.762  0.00  0.00    +0.000 A 
ATOM      8  C   UNL     1       2.325   7.915  18.515  0.00  0.00    +0.000 A 
ATOM      9  C   UNL     1       2.376   9.079  17.750  0.00  0.00    +0.000 A 
ATOM     10  C   UNL     1       1.765  10.222  18.242  0.00  0.00    +0.000 A 
ATOM     11  N   UNL     1       1.107  10.264  19.417  0.00  0.00    +0.000 NA
ATOM     12  C   UNL     1       1.100   9.124  20.151  0.00  0.00    +0.000 A 
ENDBRANCH   4   7
BRANCH   1  13
ATOM     13  C   UNL     1       3.181   4.046  18.520  0.00  0.00    +0.000 C 
ATOM     14  C   UNL     1       2.067   2.992  18.593  0.00  0.00    +0.000 C 
ATOM     15  C   UNL     1       4.450   3.909  19.390  0.00  0.00    +0.000 C 
BRANCH  13  16
ATOM     16  C   UNL     1       3.644   4.118  16.997  0.00  0.00    +0.000 C 
BRANCH  16  18
ATOM     17  C   UNL     1       6.204   4.513  17.501  0.00  0.00    +0.000 C 
ATOM     18  C   UNL     1       4.996   4.890  16.617  0.00  0.00    +0.000 C 
ATOM     19  C   UNL     1       4.860   6.423  16.644  0.00  0.00    +0.000 C 
ATOM     20  C   UNL     1       5.417   4.516  15.173  0.00  0.00    +0.000 C 
ENDBRANCH  16  18
ENDBRANCH  13  16
ENDBRANCH   1  13
BRANCH   3  21
ATOM     21  C   UNL     1       2.573   3.432  21.614  0.00  0.00    +0.000 C 
ATOM     22  N   UNL     1       2.779   2.333  21.905  0.00  0.00    +0.000 NA
ENDBRANCH   3  21
TORSDOF 5
ENDMDL
MODEL 9
REMARK VINA RESULT:      -5.8      1.973      4.931
REMARK  Name = 
REMARK  10 active torsions:
REMARK  status: ('A' for Active; 'I' for Inactive)
REMARK    1  A    between atoms: C_1  and  C_2
REMARK    2  A    between atoms: C_2  and  C_3
REMARK    3  A    between atoms: C_2  and  C_4
REMARK    4  A    between atoms: C_2  and  C_5
REMARK    5  A    between atoms: C_5  and  C_6
REMARK    6  A    between atoms: C_6  and  C_7
REMARK    7  A    between atoms: C_6  and  C_8
REMARK    8  A    between atoms: C_6  and  N_9
REMARK    9  A    between atoms: N_11  and  C_12
REMARK   10  A    between atoms: N_14  and  C_15
REMARK                            x       y       z     vdW  Elec       q    Type
REMARK                         _______ _______ _______ _____ _____    ______ ____
ROOT
ATOM      1  N   UNL     1       3.540   5.530  18.691  0.00  0.00    +0.000 NA
ATOM      2  C   UNL     1       3.859   6.268  17.669  0.00  0.00    +0.000 C 
ATOM      3  N   UNL     1       4.553   6.052  16.489  0.00  0.00    +0.000 N 
ATOM      4  N   UNL     1       3.463   7.593  17.622  0.00  0.00    +0.000 N 
ATOM      5  H   UNL     1       4.380   6.724  15.758  0.00  0.00    +0.000 HD
ATOM      6  H   UNL     1       4.186   8.243  17.340  0.00  0.00    +0.000 HD
ENDROOT
BRANCH   4   7
ATOM      7  C   UNL     1       2.471   8.176  18.425  0.00  0.00    +0.000 A 
ATOM      8  C   UNL     1       2.284   7.747  19.742  0.00  0.00    +0.000 A 
ATOM      9  C   UNL     1       1.276   8.308  20.525  0.00  0.00    +0.000 A 
ATOM     10  C   UNL     1       0.493   9.311  19.975  0.00  0.00    +0.000 A 
ATOM     11  N   UNL     1       0.666   9.788  18.728  0.00  0.00    +0.000 NA
ATOM     12  C   UNL     1       1.635   9.202  17.982  0.00  0.00    +0.000 A 
ENDBRANCH   4   7
BRANCH   1  13
ATOM     13  C   UNL     1       3.888   4.099  18.807  0.00  0.00    +0.000 C 
ATOM     14  C   UNL     1       5.417   4.068  18.935  0.00  0.00    +0.000 C 
ATOM     15  C   UNL     1       3.187   3.425  17.607  0.00  0.00    +0.000 C 
BRANCH  13  16
ATOM     16  C   UNL     1       3.304   3.445  20.138  0.00  0.00    +0.000 C 
BRANCH  16  18
ATOM     17  C   UNL     1       1.093   2.341  19.212  0.00  0.00    +0.000 C 
ATOM     18  C   UNL     1       1.721   3.246  20.294  0.00  0.00    +0.000 C 
ATOM     19  C   UNL     1       0.932   4.567  20.311  0.00  0.00    +0.000 C 
ATOM     20  C   UNL     1       1.418   2.541  21.640  0.00  0.00    +0.000 C 
ENDBRANCH  16  18
ENDBRANCH  13  16
ENDBRANCH   1  13
BRANCH   3  21
ATOM     21  C   UNL     1       5.383   4.944  16.093  0.00  0.00    +0.000 C 
ATOM     22  N   UNL     1       6.132   4.131  15.757  0.00  0.00    +0.000 NA
ENDBRANCH   3  21
TORSDOF 5
ENDMDL
