MODEL 1
REMARK VINA RESULT:      -7.4      0.000      0.000
REMARK  Name = 
REMARK  6 active torsions:
REMARK  status: ('A' for Active; 'I' for Inactive)
REMARK    1  A    between atoms: C_2  and  C_3
REMARK    2  A    between atoms: C_3  and  N_4
REMARK    3  A    between atoms: C_5  and  C_7
REMARK    4  A    between atoms: C_7  and  S_8
REMARK    5  A    between atoms: S_8  and  C_9
REMARK    6  A    between atoms: C_14  and  C_15
REMARK                            x       y       z     vdW  Elec       q    Type
REMARK                         _______ _______ _______ _____ _____    ______ ____
ROOT
ATOM      1  C   UNL     1       6.345   4.751  16.143  0.00  0.00    +0.000 C 
ATOM      2  C   UNL     1       7.241   5.131  17.052  0.00  0.00    +0.000 C 
ATOM      3  C   UNL     1       7.025   5.169  18.503  0.00  0.00    +0.000 C 
ATOM      4  O   UNL     1       7.986   5.491  19.206  0.00  0.00    +0.000 OA
ATOM      5  C   UNL     1       5.729   4.775  19.133  0.00  0.00    +0.000 C 
ATOM      6  C   UNL     1       4.495   4.713  18.241  0.00  0.00    +0.000 C 
ATOM      7  S   UNL     1       4.749   4.207  16.518  0.00  0.00    +0.000 S 
ENDROOT
BRANCH   6   8
ATOM      8  C   UNL     1       3.600   5.937  18.395  0.00  0.00    +0.000 A 
ATOM      9  C   UNL     1       3.536   6.947  17.423  0.00  0.00    +0.000 A 
ATOM     10  C   UNL     1       2.785   8.108  17.651  0.00  0.00    +0.000 A 
ATOM     11  C   UNL     1       2.088   8.268  18.846  0.00  0.00    +0.000 A 
ATOM     12 CL   UNL     1       1.204   9.714  19.141  0.00  0.00    +0.000 Cl
ATOM     13  C   UNL     1       2.116   7.267  19.811  0.00  0.00    +0.000 A 
ATOM     14  C   UNL     1       2.865   6.109  19.584  0.00  0.00    +0.000 A 
ENDBRANCH   6   8
BRANCH   1  15
ATOM     15  S   UNL     1       6.805   4.851  14.461  0.00  0.00    +0.000 S 
BRANCH  15  16
ATOM     16  C   UNL     1       5.549   3.776  13.677  0.00  0.00    +0.000 C 
BRANCH  16  18
ATOM     17  N   UNL     1       5.095   3.029  11.340  0.00  0.00    +0.000 N 
ATOM     18  C   UNL     1       6.031   3.326  12.302  0.00  0.00    +0.000 C 
ATOM     19  O   UNL     1       7.228   3.184  12.049  0.00  0.00    +0.000 OA
ATOM     20  H   UNL     1       5.503   2.860  10.429  0.00  0.00    +0.000 HD
BRANCH  17  21
ATOM     21  C   UNL     1       3.707   3.414  11.410  0.00  0.00    +0.000 C 
BRANCH  21  23
ATOM     22  C   UNL     1       2.745   4.512   9.404  0.00  0.00    +0.000 C 
ATOM     23  C   UNL     1       3.099   3.394  10.052  0.00  0.00    +0.000 C 
ENDBRANCH  21  23
ENDBRANCH  17  21
ENDBRANCH  16  18
ENDBRANCH  15  16
ENDBRANCH   1  15
TORSDOF 6
ENDMDL
MODEL 2
REMARK VINA RESULT:      -7.3      2.483      3.742
REMARK  Name = 
REMARK  6 active torsions:
REMARK  status: ('A' for Active; 'I' for Inactive)
REMARK    1  A    between atoms: C_2  and  C_3
REMARK    2  A    between atoms: C_3  and  N_4
REMARK    3  A    between atoms: C_5  and  C_7
REMARK    4  A    between atoms: C_7  and  S_8
REMARK    5  A    between atoms: S_8  and  C_9
REMARK    6  A    between atoms: C_14  and  C_15
REMARK                            x       y       z     vdW  Elec       q    Type
REMARK                         _______ _______ _______ _____ _____    ______ ____
ROOT
ATOM      1  C   UNL     1       5.031   4.990  18.603  0.00  0.00    +0.000 C 
ATOM      2  C   UNL     1       4.430   4.167  19.462  0.00  0.00    +0.000 C 
ATOM      3  C   UNL     1       2.980   3.985  19.600  0.00  0.00    +0.000 C 
ATOM      4  O   UNL     1       2.596   3.135  20.409  0.00  0.00    +0.000 OA
ATOM      5  C   UNL     1       1.993   4.732  18.764  0.00  0.00    +0.000 C 
ATOM      6  C   UNL     1       2.476   5.982  18.040  0.00  0.00    +0.000 C 
ATOM      7  S   UNL     1       4.197   5.987  17.466  0.00  0.00    +0.000 S 
ENDROOT
BRANCH   6   8
ATOM      8  C   UNL     1       2.062   7.266  18.750  0.00  0.00    +0.000 A 
ATOM      9  C   UNL     1       1.863   7.326  20.137  0.00  0.00    +0.000 A 
ATOM     10  C   UNL     1       1.378   8.495  20.737  0.00  0.00    +0.000 A 
ATOM     11  C   UNL     1       1.094   9.615  19.959  0.00  0.00    +0.000 A 
ATOM     12 CL   UNL     1       0.456  11.034  20.693  0.00  0.00    +0.000 Cl
ATOM     13  C   UNL     1       1.310   9.586  18.586  0.00  0.00    +0.000 A 
ATOM     14  C   UNL     1       1.794   8.420  17.987  0.00  0.00    +0.000 A 
ENDBRANCH   6   8
BRANCH   1  15
ATOM     15  S   UNL     1       6.773   5.091  18.664  0.00  0.00    +0.000 S 
BRANCH  15  16
ATOM     16  C   UNL     1       7.232   4.415  17.025  0.00  0.00    +0.000 C 
BRANCH  16  18
ATOM     17  N   UNL     1       6.963   5.261  14.693  0.00  0.00    +0.000 N 
ATOM     18  C   UNL     1       7.297   5.540  15.997  0.00  0.00    +0.000 C 
ATOM     19  O   UNL     1       7.680   6.672  16.296  0.00  0.00    +0.000 OA
ATOM     20  H   UNL     1       6.916   6.087  14.110  0.00  0.00    +0.000 HD
BRANCH  17  21
ATOM     21  C   UNL     1       6.245   4.082  14.272  0.00  0.00    +0.000 C 
BRANCH  21  23
ATOM     22  C   UNL     1       5.677   3.039  12.094  0.00  0.00    +0.000 C 
ATOM     23  C   UNL     1       6.472   3.833  12.822  0.00  0.00    +0.000 C 
ENDBRANCH  21  23
ENDBRANCH  17  21
ENDBRANCH  16  18
ENDBRANCH  15  16
ENDBRANCH   1  15
TORSDOF 6
ENDMDL
MODEL 3
REMARK VINA RESULT:      -7.2      4.080      6.782
REMARK  Name = 
REMARK  6 active torsions:
REMARK  status: ('A' for Active; 'I' for Inactive)
REMARK    1  A    between atoms: C_2  and  C_3
REMARK    2  A    between atoms: C_3  and  N_4
REMARK    3  A    between atoms: C_5  and  C_7
REMARK    4  A    between atoms: C_7  and  S_8
REMARK    5  A    between atoms: S_8  and  C_9
REMARK    6  A    between atoms: C_14  and  C_15
REMARK                            x       y       z     vdW  Elec       q    Type
REMARK                         _______ _______ _______ _____ _____    ______ ____
ROOT
ATOM      1  C   UNL     1       4.686   5.841  18.733  0.00  0.00    +0.000 C 
ATOM      2  C   UNL     1       5.791   5.378  19.317  0.00  0.00    +0.000 C 
ATOM      3  C   UNL     1       7.156   5.519  18.799  0.00  0.00    +0.000 C 
ATOM      4  O   UNL     1       8.071   5.080  19.500  0.00  0.00    +0.000 OA
ATOM      5  C   UNL     1       7.460   6.219  17.514  0.00  0.00    +0.000 C 
ATOM      6  C   UNL     1       6.312   6.441  16.537  0.00  0.00    +0.000 C 
ATOM      7  S   UNL     1       4.667   6.723  17.249  0.00  0.00    +0.000 S 
ENDROOT
BRANCH   6   8
ATOM      8  C   UNL     1       6.319   5.438  15.389  0.00  0.00    +0.000 A 
ATOM      9  C   UNL     1       7.351   5.391  14.440  0.00  0.00    +0.000 A 
ATOM     10  C   UNL     1       7.268   4.528  13.339  0.00  0.00    +0.000 A 
ATOM     11  C   UNL     1       6.158   3.702  13.180  0.00  0.00    +0.000 A 
ATOM     12 CL   UNL     1       6.037   2.677  11.803  0.00  0.00    +0.000 Cl
ATOM     13  C   UNL     1       5.136   3.713  14.123  0.00  0.00    +0.000 A 
ATOM     14  C   UNL     1       5.219   4.574  15.221  0.00  0.00    +0.000 A 
ENDBRANCH   6   8
BRANCH   1  15
ATOM     15  S   UNL     1       3.158   5.494  19.504  0.00  0.00    +0.000 S 
BRANCH  15  16
ATOM     16  C   UNL     1       2.225   4.727  18.129  0.00  0.00    +0.000 C 
BRANCH  16  18
ATOM     17  N   UNL     1       1.886   2.439  19.066  0.00  0.00    +0.000 N 
ATOM     18  C   UNL     1       2.477   3.223  18.104  0.00  0.00    +0.000 C 
ATOM     19  O   UNL     1       3.225   2.703  17.274  0.00  0.00    +0.000 OA
ATOM     20  H   UNL     1       2.007   1.448  18.900  0.00  0.00    +0.000 HD
BRANCH  17  21
ATOM     21  C   UNL     1       0.791   2.866  19.903  0.00  0.00    +0.000 C 
BRANCH  21  23
ATOM     22  C   UNL     1       2.465   2.646  21.720  0.00  0.00    +0.000 C 
ATOM     23  C   UNL     1       1.198   2.842  21.334  0.00  0.00    +0.000 C 
ENDBRANCH  21  23
ENDBRANCH  17  21
ENDBRANCH  16  18
ENDBRANCH  15  16
ENDBRANCH   1  15
TORSDOF 6
ENDMDL
MODEL 4
REMARK VINA RESULT:      -7.0      2.636      3.899
REMARK  Name = 
REMARK  6 active torsions:
REMARK  status: ('A' for Active; 'I' for Inactive)
REMARK    1  A    between atoms: C_2  and  C_3
REMARK    2  A    between atoms: C_3  and  N_4
REMARK    3  A    between atoms: C_5  and  C_7
REMARK    4  A    between atoms: C_7  and  S_8
REMARK    5  A    between atoms: S_8  and  C_9
REMARK    6  A    between atoms: C_14  and  C_15
REMARK                            x       y       z     vdW  Elec       q    Type
REMARK                         _______ _______ _______ _____ _____    ______ ____
ROOT
ATOM      1  C   UNL     1       4.921   5.342  18.570  0.00  0.00    +0.000 C 
ATOM      2  C   UNL     1       4.182   4.363  19.090  0.00  0.00    +0.000 C 
ATOM      3  C   UNL     1       2.741   4.177  18.883  0.00  0.00    +0.000 C 
ATOM      4  O   UNL     1       2.225   3.180  19.394  0.00  0.00    +0.000 OA
ATOM      5  C   UNL     1       1.924   5.101  18.040  0.00  0.00    +0.000 C 
ATOM      6  C   UNL     1       2.508   6.470  17.715  0.00  0.00    +0.000 C 
ATOM      7  S   UNL     1       4.309   6.573  17.525  0.00  0.00    +0.000 S 
ENDROOT
BRANCH   6   8
ATOM      8  C   UNL     1       1.918   7.577  18.582  0.00  0.00    +0.000 A 
ATOM      9  C   UNL     1       1.486   8.800  18.046  0.00  0.00    +0.000 A 
ATOM     10  C   UNL     1       1.051   9.833  18.888  0.00  0.00    +0.000 A 
ATOM     11  C   UNL     1       1.040   9.652  20.269  0.00  0.00    +0.000 A 
ATOM     12 CL   UNL     1       0.549  10.937  21.301  0.00  0.00    +0.000 Cl
ATOM     13  C   UNL     1       1.439   8.439  20.819  0.00  0.00    +0.000 A 
ATOM     14  C   UNL     1       1.871   7.408  19.980  0.00  0.00    +0.000 A 
ENDBRANCH   6   8
BRANCH   1  15
ATOM     15  S   UNL     1       6.610   5.401  19.010  0.00  0.00    +0.000 S 
BRANCH  15  16
ATOM     16  C   UNL     1       7.399   4.718  17.507  0.00  0.00    +0.000 C 
BRANCH  16  18
ATOM     17  N   UNL     1       7.125   5.419  15.128  0.00  0.00    +0.000 N 
ATOM     18  C   UNL     1       7.448   5.781  16.414  0.00  0.00    +0.000 C 
ATOM     19  O   UNL     1       7.807   6.936  16.647  0.00  0.00    +0.000 OA
ATOM     20  H   UNL     1       7.065   6.209  14.496  0.00  0.00    +0.000 HD
BRANCH  17  21
ATOM     21  C   UNL     1       6.433   4.204  14.774  0.00  0.00    +0.000 C 
BRANCH  21  23
ATOM     22  C   UNL     1       5.509   3.379  12.624  0.00  0.00    +0.000 C 
ATOM     23  C   UNL     1       6.490   3.989  13.303  0.00  0.00    +0.000 C 
ENDBRANCH  21  23
ENDBRANCH  17  21
ENDBRANCH  16  18
ENDBRANCH  15  16
ENDBRANCH   1  15
TORSDOF 6
ENDMDL
MODEL 5
REMARK VINA RESULT:      -6.9      4.306      5.918
REMARK  Name = 
REMARK  6 active torsions:
REMARK  status: ('A' for Active; 'I' for Inactive)
REMARK    1  A    between atoms: C_2  and  C_3
REMARK    2  A    between atoms: C_3  and  N_4
REMARK    3  A    between atoms: C_5  and  C_7
REMARK    4  A    between atoms: C_7  and  S_8
REMARK    5  A    between atoms: S_8  and  C_9
REMARK    6  A    between atoms: C_14  and  C_15
REMARK                            x       y       z     vdW  Elec       q    Type
REMARK                         _______ _______ _______ _____ _____    ______ ____
ROOT
ATOM      1  C   UNL     1       5.554   4.522  18.114  0.00  0.00    +0.000 C 
ATOM      2  C   UNL     1       5.201   3.756  19.146  0.00  0.00    +0.000 C 
ATOM      3  C   UNL     1       3.825   3.474  19.572  0.00  0.00    +0.000 C 
ATOM      4  O   UNL     1       3.678   2.694  20.516  0.00  0.00    +0.000 OA
ATOM      5  C   UNL     1       2.634   4.040  18.869  0.00  0.00    +0.000 C 
ATOM      6  C   UNL     1       2.853   5.235  17.949  0.00  0.00    +0.000 C 
ATOM      7  S   UNL     1       4.435   5.314  17.064  0.00  0.00    +0.000 S 
ENDROOT
BRANCH   6   8
ATOM      8  C   UNL     1       2.446   6.553  18.597  0.00  0.00    +0.000 A 
ATOM      9  C   UNL     1       2.116   6.651  19.957  0.00  0.00    +0.000 A 
ATOM     10  C   UNL     1       1.643   7.858  20.490  0.00  0.00    +0.000 A 
ATOM     11  C   UNL     1       1.501   8.976  19.673  0.00  0.00    +0.000 A 
ATOM     12 CL   UNL     1       0.877  10.443  20.320  0.00  0.00    +0.000 Cl
ATOM     13  C   UNL     1       1.849   8.909  18.328  0.00  0.00    +0.000 A 
ATOM     14  C   UNL     1       2.322   7.706  17.796  0.00  0.00    +0.000 A 
ENDBRANCH   6   8
BRANCH   1  15
ATOM     15  S   UNL     1       7.259   4.769  17.836  0.00  0.00    +0.000 S 
BRANCH  15  16
ATOM     16  C   UNL     1       7.520   6.405  18.613  0.00  0.00    +0.000 C 
BRANCH  16  18
ATOM     17  N   UNL     1       8.070   8.721  17.865  0.00  0.00    +0.000 N 
ATOM     18  C   UNL     1       7.540   7.494  17.545  0.00  0.00    +0.000 C 
ATOM     19  O   UNL     1       7.058   7.314  16.426  0.00  0.00    +0.000 OA
ATOM     20  H   UNL     1       8.154   9.337  17.066  0.00  0.00    +0.000 HD
BRANCH  17  21
ATOM     21  C   UNL     1       8.902   8.972  19.016  0.00  0.00    +0.000 C 
BRANCH  21  23
ATOM     22  C   UNL     1       9.513  11.182  18.068  0.00  0.00    +0.000 C 
ATOM     23  C   UNL     1       9.199  10.426  19.128  0.00  0.00    +0.000 C 
ENDBRANCH  21  23
ENDBRANCH  17  21
ENDBRANCH  16  18
ENDBRANCH  15  16
ENDBRANCH   1  15
TORSDOF 6
ENDMDL
MODEL 6
REMARK VINA RESULT:      -6.9      4.070      6.901
REMARK  Name = 
REMARK  6 active torsions:
REMARK  status: ('A' for Active; 'I' for Inactive)
REMARK    1  A    between atoms: C_2  and  C_3
REMARK    2  A    between atoms: C_3  and  N_4
REMARK    3  A    between atoms: C_5  and  C_7
REMARK    4  A    between atoms: C_7  and  S_8
REMARK    5  A    between atoms: S_8  and  C_9
REMARK    6  A    between atoms: C_14  and  C_15
REMARK                            x       y       z     vdW  Elec       q    Type
REMARK                         _______ _______ _______ _____ _____    ______ ____
ROOT
ATOM      1  C   UNL     1       4.682   5.763  18.225  0.00  0.00    +0.000 C 
ATOM      2  C   UNL     1       5.755   5.188  18.766  0.00  0.00    +0.000 C 
ATOM      3  C   UNL     1       7.117   5.233  18.221  0.00  0.00    +0.000 C 
ATOM      4  O   UNL     1       8.006   4.693  18.885  0.00  0.00    +0.000 OA
ATOM      5  C   UNL     1       7.452   5.951  16.955  0.00  0.00    +0.000 C 
ATOM      6  C   UNL     1       6.308   6.304  16.013  0.00  0.00    +0.000 C 
ATOM      7  S   UNL     1       4.708   6.697  16.772  0.00  0.00    +0.000 S 
ENDROOT
BRANCH   6   8
ATOM      8  C   UNL     1       6.207   5.345  14.831  0.00  0.00    +0.000 A 
ATOM      9  C   UNL     1       5.068   4.560  14.597  0.00  0.00    +0.000 A 
ATOM     10  C   UNL     1       5.056   3.613  13.564  0.00  0.00    +0.000 A 
ATOM     11  C   UNL     1       6.178   3.447  12.754  0.00  0.00    +0.000 A 
ATOM     12 CL   UNL     1       6.176   2.252  11.517  0.00  0.00    +0.000 Cl
ATOM     13  C   UNL     1       7.307   4.234  12.952  0.00  0.00    +0.000 A 
ATOM     14  C   UNL     1       7.318   5.179  13.982  0.00  0.00    +0.000 A 
ENDBRANCH   6   8
BRANCH   1  15
ATOM     15  S   UNL     1       3.146   5.518  19.018  0.00  0.00    +0.000 S 
BRANCH  15  16
ATOM     16  C   UNL     1       2.309   4.388  17.847  0.00  0.00    +0.000 C 
BRANCH  16  18
ATOM     17  N   UNL     1       2.202   2.222  19.081  0.00  0.00    +0.000 N 
ATOM     18  C   UNL     1       2.783   2.956  18.074  0.00  0.00    +0.000 C 
ATOM     19  O   UNL     1       3.695   2.461  17.411  0.00  0.00    +0.000 OA
ATOM     20  H   UNL     1       2.489   1.251  19.079  0.00  0.00    +0.000 HD
BRANCH  17  21
ATOM     21  C   UNL     1       0.962   2.571  19.730  0.00  0.00    +0.000 C 
BRANCH  21  23
ATOM     22  C   UNL     1       2.405   2.737  21.742  0.00  0.00    +0.000 C 
ATOM     23  C   UNL     1       1.187   2.783  21.186  0.00  0.00    +0.000 C 
ENDBRANCH  21  23
ENDBRANCH  17  21
ENDBRANCH  16  18
ENDBRANCH  15  16
ENDBRANCH   1  15
TORSDOF 6
ENDMDL
MODEL 7
REMARK VINA RESULT:      -6.8      4.350      7.445
REMARK  Name = 
REMARK  6 active torsions:
REMARK  status: ('A' for Active; 'I' for Inactive)
REMARK    1  A    between atoms: C_2  and  C_3
REMARK    2  A    between atoms: C_3  and  N_4
REMARK    3  A    between atoms: C_5  and  C_7
REMARK    4  A    between atoms: C_7  and  S_8
REMARK    5  A    between atoms: S_8  and  C_9
REMARK    6  A    between atoms: C_14  and  C_15
REMARK                            x       y       z     vdW  Elec       q    Type
REMARK                         _______ _______ _______ _____ _____    ______ ____
ROOT
ATOM      1  C   UNL     1       4.037   3.681  18.710  0.00  0.00    +0.000 C 
ATOM      2  C   UNL     1       5.153   3.993  19.368  0.00  0.00    +0.000 C 
ATOM      3  C   UNL     1       6.063   5.095  19.034  0.00  0.00    +0.000 C 
ATOM      4  O   UNL     1       7.023   5.278  19.787  0.00  0.00    +0.000 OA
ATOM      5  C   UNL     1       5.825   6.012  17.879  0.00  0.00    +0.000 C 
ATOM      6  C   UNL     1       4.846   5.560  16.802  0.00  0.00    +0.000 C 
ATOM      7  S   UNL     1       3.441   4.547  17.339  0.00  0.00    +0.000 S 
ENDROOT
BRANCH   6   8
ATOM      8  C   UNL     1       5.550   5.024  15.560  0.00  0.00    +0.000 A 
ATOM      9  C   UNL     1       6.862   5.389  15.225  0.00  0.00    +0.000 A 
ATOM     10  C   UNL     1       7.435   4.960  14.020  0.00  0.00    +0.000 A 
ATOM     11  C   UNL     1       6.705   4.161  13.144  0.00  0.00    +0.000 A 
ATOM     12 CL   UNL     1       7.394   3.674  11.645  0.00  0.00    +0.000 Cl
ATOM     13  C   UNL     1       5.412   3.765  13.469  0.00  0.00    +0.000 A 
ATOM     14  C   UNL     1       4.841   4.192  14.671  0.00  0.00    +0.000 A 
ENDBRANCH   6   8
BRANCH   1  15
ATOM     15  S   UNL     1       3.144   2.282  19.251  0.00  0.00    +0.000 S 
BRANCH  15  16
ATOM     16  C   UNL     1       1.667   3.061  19.999  0.00  0.00    +0.000 C 
BRANCH  16  18
ATOM     17  N   UNL     1       2.291   5.017  21.416  0.00  0.00    +0.000 N 
ATOM     18  C   UNL     1       2.025   3.670  21.350  0.00  0.00    +0.000 C 
ATOM     19  O   UNL     1       2.123   2.982  22.367  0.00  0.00    +0.000 OA
ATOM     20  H   UNL     1       2.398   5.354  22.366  0.00  0.00    +0.000 HD
BRANCH  17  21
ATOM     21  C   UNL     1       1.947   5.966  20.386  0.00  0.00    +0.000 C 
BRANCH  21  23
ATOM     22  C   UNL     1       1.433   8.381  20.629  0.00  0.00    +0.000 C 
ATOM     23  C   UNL     1       1.192   7.108  20.970  0.00  0.00    +0.000 C 
ENDBRANCH  21  23
ENDBRANCH  17  21
ENDBRANCH  16  18
ENDBRANCH  15  16
ENDBRANCH   1  15
TORSDOF 6
ENDMDL
MODEL 8
REMARK VINA RESULT:      -6.8      4.153      6.706
REMARK  Name = 
REMARK  6 active torsions:
REMARK  status: ('A' for Active; 'I' for Inactive)
REMARK    1  A    between atoms: C_2  and  C_3
REMARK    2  A    between atoms: C_3  and  N_4
REMARK    3  A    between atoms: C_5  and  C_7
REMARK    4  A    between atoms: C_7  and  S_8
REMARK    5  A    between atoms: S_8  and  C_9
REMARK    6  A    between atoms: C_14  and  C_15
REMARK                            x       y       z     vdW  Elec       q    Type
REMARK                         _______ _______ _______ _____ _____    ______ ____
ROOT
ATOM      1  C   UNL     1       4.400   5.786  18.759  0.00  0.00    +0.000 C 
ATOM      2  C   UNL     1       5.480   5.336  19.396  0.00  0.00    +0.000 C 
ATOM      3  C   UNL     1       6.869   5.513  18.954  0.00  0.00    +0.000 C 
ATOM      4  O   UNL     1       7.754   5.081  19.698  0.00  0.00    +0.000 OA
ATOM      5  C   UNL     1       7.228   6.239  17.699  0.00  0.00    +0.000 C 
ATOM      6  C   UNL     1       6.130   6.453  16.664  0.00  0.00    +0.000 C 
ATOM      7  S   UNL     1       4.444   6.691  17.288  0.00  0.00    +0.000 S 
ENDROOT
BRANCH   6   8
ATOM      8  C   UNL     1       6.221   5.468  15.504  0.00  0.00    +0.000 A 
ATOM      9  C   UNL     1       7.285   5.481  14.589  0.00  0.00    +0.000 A 
ATOM     10  C   UNL     1       7.277   4.631  13.475  0.00  0.00    +0.000 A 
ATOM     11  C   UNL     1       6.211   3.759  13.267  0.00  0.00    +0.000 A 
ATOM     12 CL   UNL     1       6.182   2.751  11.874  0.00  0.00    +0.000 Cl
ATOM     13  C   UNL     1       5.159   3.711  14.175  0.00  0.00    +0.000 A 
ATOM     14  C   UNL     1       5.168   4.558  15.288  0.00  0.00    +0.000 A 
ENDBRANCH   6   8
BRANCH   1  15
ATOM     15  S   UNL     1       2.840   5.398  19.439  0.00  0.00    +0.000 S 
BRANCH  15  16
ATOM     16  C   UNL     1       2.196   4.205  18.210  0.00  0.00    +0.000 C 
BRANCH  16  18
ATOM     17  N   UNL     1       2.186   1.782  18.805  0.00  0.00    +0.000 N 
ATOM     18  C   UNL     1       1.574   3.007  18.922  0.00  0.00    +0.000 C 
ATOM     19  O   UNL     1       0.523   3.103  19.557  0.00  0.00    +0.000 OA
ATOM     20  H   UNL     1       1.777   1.076  19.406  0.00  0.00    +0.000 HD
BRANCH  17  21
ATOM     21  C   UNL     1       3.538   1.588  18.341  0.00  0.00    +0.000 C 
BRANCH  21  23
ATOM     22  C   UNL     1       4.196   1.938  20.707  0.00  0.00    +0.000 C 
ATOM     23  C   UNL     1       4.506   1.968  19.404  0.00  0.00    +0.000 C 
ENDBRANCH  21  23
ENDBRANCH  17  21
ENDBRANCH  16  18
ENDBRANCH  15  16
ENDBRANCH   1  15
TORSDOF 6
ENDMDL
MODEL 9
REMARK VINA RESULT:      -6.8      4.297      7.265
REMARK  Name = 
REMARK  6 active torsions:
REMARK  status: ('A' for Active; 'I' for Inactive)
REMARK    1  A    between atoms: C_2  and  C_3
REMARK    2  A    between atoms: C_3  and  N_4
REMARK    3  A    between atoms: C_5  and  C_7
REMARK    4  A    between atoms: C_7  and  S_8
REMARK    5  A    between atoms: S_8  and  C_9
REMARK    6  A    between atoms: C_14  and  C_15
REMARK                            x       y       z     vdW  Elec       q    Type
REMARK                         _______ _______ _______ _____ _____    ______ ____
ROOT
ATOM      1  C   UNL     1       4.030   3.376  18.607  0.00  0.00    +0.000 C 
ATOM      2  C   UNL     1       5.132   3.744  19.260  0.00  0.00    +0.000 C 
ATOM      3  C   UNL     1       5.922   4.951  18.991  0.00  0.00    +0.000 C 
ATOM      4  O   UNL     1       6.884   5.169  19.733  0.00  0.00    +0.000 OA
ATOM      5  C   UNL     1       5.562   5.925  17.917  0.00  0.00    +0.000 C 
ATOM      6  C   UNL     1       4.598   5.463  16.832  0.00  0.00    +0.000 C 
ATOM      7  S   UNL     1       3.312   4.280  17.322  0.00  0.00    +0.000 S 
ENDROOT
BRANCH   6   8
ATOM      8  C   UNL     1       5.310   5.092  15.536  0.00  0.00    +0.000 A 
ATOM      9  C   UNL     1       4.696   4.325  14.535  0.00  0.00    +0.000 A 
ATOM     10  C   UNL     1       5.420   3.914  13.407  0.00  0.00    +0.000 A 
ATOM     11  C   UNL     1       6.759   4.270  13.268  0.00  0.00    +0.000 A 
ATOM     12 CL   UNL     1       7.657   3.726  11.905  0.00  0.00    +0.000 Cl
ATOM     13  C   UNL     1       7.380   5.053  14.235  0.00  0.00    +0.000 A 
ATOM     14  C   UNL     1       6.657   5.463  15.360  0.00  0.00    +0.000 A 
ENDBRANCH   6   8
BRANCH   1  15
ATOM     15  S   UNL     1       3.292   1.859  19.058  0.00  0.00    +0.000 S 
BRANCH  15  16
ATOM     16  C   UNL     1       1.803   2.434  19.955  0.00  0.00    +0.000 C 
BRANCH  16  18
ATOM     17  N   UNL     1       2.121   4.434  21.413  0.00  0.00    +0.000 N 
ATOM     18  C   UNL     1       2.207   3.068  21.282  0.00  0.00    +0.000 C 
ATOM     19  O   UNL     1       2.643   2.395  22.217  0.00  0.00    +0.000 OA
ATOM     20  H   UNL     1       2.290   4.753  22.360  0.00  0.00    +0.000 HD
BRANCH  17  21
ATOM     21  C   UNL     1       1.380   5.291  20.521  0.00  0.00    +0.000 C 
BRANCH  21  23
ATOM     22  C   UNL     1       1.932   7.690  20.211  0.00  0.00    +0.000 C 
ATOM     23  C   UNL     1       2.246   6.400  20.035  0.00  0.00    +0.000 C 
ENDBRANCH  21  23
ENDBRANCH  17  21
ENDBRANCH  16  18
ENDBRANCH  15  16
ENDBRANCH   1  15
TORSDOF 6
ENDMDL
