MODEL 1
REMARK VINA RESULT:      -6.9      0.000      0.000
REMARK  Name = 
REMARK  5 active torsions:
REMARK  status: ('A' for Active; 'I' for Inactive)
REMARK    1  A    between atoms: C_1  and  O_2
REMARK    2  A    between atoms: O_2  and  C_3
REMARK    3  A    between atoms: C_3  and  C_12
REMARK    4  A    between atoms: C_4  and  C_5
REMARK    5  A    between atoms: N_14  and  C_15
REMARK                            x       y       z     vdW  Elec       q    Type
REMARK                         _______ _______ _______ _____ _____    ______ ____
ROOT
ATOM      1  C   UNL     1       3.100   5.601  19.484  0.00  0.00    +0.000 C 
ATOM      2  C   UNL     1       3.519   6.236  18.371  0.00  0.00    +0.000 C 
ENDROOT
BRANCH   2   3
ATOM      3  C   UNL     1       4.610   5.843  17.461  0.00  0.00    +0.000 A 
ATOM      4  C   UNL     1       5.864   6.466  17.478  0.00  0.00    +0.000 A 
ATOM      5  C   UNL     1       6.864   6.072  16.584  0.00  0.00    +0.000 A 
ATOM      6  C   UNL     1       6.618   5.037  15.689  0.00  0.00    +0.000 A 
ATOM      7  F   UNL     1       7.571   4.671  14.826  0.00  0.00    +0.000 F 
ATOM      8  C   UNL     1       5.397   4.371  15.694  0.00  0.00    +0.000 A 
ATOM      9  C   UNL     1       4.403   4.771  16.578  0.00  0.00    +0.000 A 
ENDBRANCH   2   3
BRANCH   1  10
ATOM     10  C   UNL     1       2.010   6.311  20.272  0.00  0.00    +0.000 C 
ATOM     11  O   UNL     1       1.125   5.671  20.831  0.00  0.00    +0.000 OA
ATOM     12  N   UNL     1       2.119   7.686  20.250  0.00  0.00    +0.000 N 
ATOM     13  H   UNL     1       2.811   8.065  19.620  0.00  0.00    +0.000 HD
BRANCH  12  14
ATOM     14  C   UNL     1       1.299   8.625  20.905  0.00  0.00    +0.000 A 
ATOM     15  C   UNL     1       1.231   8.768  22.293  0.00  0.00    +0.000 A 
ATOM     16  C   UNL     1       0.315   9.653  22.870  0.00  0.00    +0.000 A 
ATOM     17  C   UNL     1      -0.518  10.418  22.061  0.00  0.00    +0.000 A 
ATOM     18 CL   UNL     1      -1.687  11.457  22.773  0.00  0.00    +0.000 Cl
ATOM     19  C   UNL     1      -0.418  10.333  20.675  0.00  0.00    +0.000 A 
ATOM     20  C   UNL     1       0.491   9.441  20.099  0.00  0.00    +0.000 A 
ENDBRANCH  12  14
ENDBRANCH   1  10
BRANCH   1  22
ATOM     21  C   UNL     1       3.076   3.215  19.671  0.00  0.00    +0.000 C 
ATOM     22  O   UNL     1       3.724   4.455  19.959  0.00  0.00    +0.000 OA
ENDBRANCH   1  22
TORSDOF 4
ENDMDL
MODEL 2
REMARK VINA RESULT:      -6.9      0.108      1.058
REMARK  Name = 
REMARK  5 active torsions:
REMARK  status: ('A' for Active; 'I' for Inactive)
REMARK    1  A    between atoms: C_1  and  O_2
REMARK    2  A    between atoms: O_2  and  C_3
REMARK    3  A    between atoms: C_3  and  C_12
REMARK    4  A    between atoms: C_4  and  C_5
REMARK    5  A    between atoms: N_14  and  C_15
REMARK                            x       y       z     vdW  Elec       q    Type
REMARK                         _______ _______ _______ _____ _____    ______ ____
ROOT
ATOM      1  C   UNL     1       3.072   5.537  19.480  0.00  0.00    +0.000 C 
ATOM      2  C   UNL     1       3.494   6.158  18.360  0.00  0.00    +0.000 C 
ENDROOT
BRANCH   2   3
ATOM      3  C   UNL     1       4.564   5.734  17.440  0.00  0.00    +0.000 A 
ATOM      4  C   UNL     1       4.405   4.676  16.536  0.00  0.00    +0.000 A 
ATOM      5  C   UNL     1       5.454   4.297  15.694  0.00  0.00    +0.000 A 
ATOM      6  C   UNL     1       6.657   4.995  15.738  0.00  0.00    +0.000 A 
ATOM      7  F   UNL     1       7.664   4.623  14.941  0.00  0.00    +0.000 F 
ATOM      8  C   UNL     1       6.815   6.082  16.590  0.00  0.00    +0.000 A 
ATOM      9  C   UNL     1       5.773   6.449  17.431  0.00  0.00    +0.000 A 
ENDBRANCH   2   3
BRANCH   1  10
ATOM     10  C   UNL     1       2.009   6.278  20.278  0.00  0.00    +0.000 C 
ATOM     11  O   UNL     1       1.155   5.661  20.906  0.00  0.00    +0.000 OA
ATOM     12  N   UNL     1       2.103   7.651  20.181  0.00  0.00    +0.000 N 
ATOM     13  H   UNL     1       2.764   8.002  19.504  0.00  0.00    +0.000 HD
BRANCH  12  14
ATOM     14  C   UNL     1       1.303   8.616  20.823  0.00  0.00    +0.000 A 
ATOM     15  C   UNL     1       1.190   8.739  22.210  0.00  0.00    +0.000 A 
ATOM     16  C   UNL     1       0.293   9.655  22.770  0.00  0.00    +0.000 A 
ATOM     17  C   UNL     1      -0.473  10.471  21.945  0.00  0.00    +0.000 A 
ATOM     18 CL   UNL     1      -1.619  11.551  22.632  0.00  0.00    +0.000 Cl
ATOM     19  C   UNL     1      -0.324  10.405  20.562  0.00  0.00    +0.000 A 
ATOM     20  C   UNL     1       0.564   9.481  20.003  0.00  0.00    +0.000 A 
ENDBRANCH  12  14
ENDBRANCH   1  10
BRANCH   1  22
ATOM     21  C   UNL     1       3.019   3.149  19.623  0.00  0.00    +0.000 C 
ATOM     22  O   UNL     1       3.670   4.377  19.952  0.00  0.00    +0.000 OA
ENDBRANCH   1  22
TORSDOF 4
ENDMDL
MODEL 3
REMARK VINA RESULT:      -6.8      0.209      1.068
REMARK  Name = 
REMARK  5 active torsions:
REMARK  status: ('A' for Active; 'I' for Inactive)
REMARK    1  A    between atoms: C_1  and  O_2
REMARK    2  A    between atoms: O_2  and  C_3
REMARK    3  A    between atoms: C_3  and  C_12
REMARK    4  A    between atoms: C_4  and  C_5
REMARK    5  A    between atoms: N_14  and  C_15
REMARK                            x       y       z     vdW  Elec       q    Type
REMARK                         _______ _______ _______ _____ _____    ______ ____
ROOT
ATOM      1  C   UNL     1       3.154   5.600  19.412  0.00  0.00    +0.000 C 
ATOM      2  C   UNL     1       3.578   6.236  18.301  0.00  0.00    +0.000 C 
ENDROOT
BRANCH   2   3
ATOM      3  C   UNL     1       4.683   5.853  17.405  0.00  0.00    +0.000 A 
ATOM      4  C   UNL     1       5.958   6.425  17.495  0.00  0.00    +0.000 A 
ATOM      5  C   UNL     1       6.971   6.044  16.611  0.00  0.00    +0.000 A 
ATOM      6  C   UNL     1       6.716   5.069  15.653  0.00  0.00    +0.000 A 
ATOM      7  F   UNL     1       7.683   4.715  14.800  0.00  0.00    +0.000 F 
ATOM      8  C   UNL     1       5.473   4.451  15.583  0.00  0.00    +0.000 A 
ATOM      9  C   UNL     1       4.466   4.840  16.457  0.00  0.00    +0.000 A 
ENDBRANCH   2   3
BRANCH   1  10
ATOM     10  C   UNL     1       2.047   6.300  20.186  0.00  0.00    +0.000 C 
ATOM     11  O   UNL     1       1.220   5.652  20.820  0.00  0.00    +0.000 OA
ATOM     12  N   UNL     1       2.072   7.674  20.063  0.00  0.00    +0.000 N 
ATOM     13  H   UNL     1       2.720   8.046  19.384  0.00  0.00    +0.000 HD
BRANCH  12  14
ATOM     14  C   UNL     1       1.218   8.609  20.679  0.00  0.00    +0.000 A 
ATOM     15  C   UNL     1       0.475   9.564  19.981  0.00  0.00    +0.000 A 
ATOM     16  C   UNL     1      -0.271  10.526  20.672  0.00  0.00    +0.000 A 
ATOM     17  C   UNL     1      -0.297  10.518  22.062  0.00  0.00    +0.000 A 
ATOM     18 CL   UNL     1      -1.161  11.738  22.910  0.00  0.00    +0.000 Cl
ATOM     19  C   UNL     1       0.387   9.533  22.770  0.00  0.00    +0.000 A 
ATOM     20  C   UNL     1       1.140   8.579  22.079  0.00  0.00    +0.000 A 
ENDBRANCH  12  14
ENDBRANCH   1  10
BRANCH   1  22
ATOM     21  C   UNL     1       3.189   3.211  19.548  0.00  0.00    +0.000 C 
ATOM     22  O   UNL     1       3.784   4.461  19.896  0.00  0.00    +0.000 OA
ENDBRANCH   1  22
TORSDOF 4
ENDMDL
MODEL 4
REMARK VINA RESULT:      -6.8      0.227      1.502
REMARK  Name = 
REMARK  5 active torsions:
REMARK  status: ('A' for Active; 'I' for Inactive)
REMARK    1  A    between atoms: C_1  and  O_2
REMARK    2  A    between atoms: O_2  and  C_3
REMARK    3  A    between atoms: C_3  and  C_12
REMARK    4  A    between atoms: C_4  and  C_5
REMARK    5  A    between atoms: N_14  and  C_15
REMARK                            x       y       z     vdW  Elec       q    Type
REMARK                         _______ _______ _______ _____ _____    ______ ____
ROOT
ATOM      1  C   UNL     1       3.145   5.547  19.456  0.00  0.00    +0.000 C 
ATOM      2  C   UNL     1       3.497   6.103  18.279  0.00  0.00    +0.000 C 
ENDROOT
BRANCH   2   3
ATOM      3  C   UNL     1       4.582   5.691  17.372  0.00  0.00    +0.000 A 
ATOM      4  C   UNL     1       4.459   4.606  16.494  0.00  0.00    +0.000 A 
ATOM      5  C   UNL     1       5.522   4.240  15.664  0.00  0.00    +0.000 A 
ATOM      6  C   UNL     1       6.702   4.976  15.693  0.00  0.00    +0.000 A 
ATOM      7  F   UNL     1       7.722   4.617  14.907  0.00  0.00    +0.000 F 
ATOM      8  C   UNL     1       6.824   6.088  16.518  0.00  0.00    +0.000 A 
ATOM      9  C   UNL     1       5.768   6.443  17.348  0.00  0.00    +0.000 A 
ENDBRANCH   2   3
BRANCH   1  10
ATOM     10  C   UNL     1       2.039   6.264  20.215  0.00  0.00    +0.000 C 
ATOM     11  O   UNL     1       1.194   5.629  20.838  0.00  0.00    +0.000 OA
ATOM     12  N   UNL     1       2.086   7.637  20.092  0.00  0.00    +0.000 N 
ATOM     13  H   UNL     1       2.749   7.999  19.422  0.00  0.00    +0.000 HD
BRANCH  12  14
ATOM     14  C   UNL     1       1.238   8.585  20.696  0.00  0.00    +0.000 A 
ATOM     15  C   UNL     1       0.499   9.534  19.986  0.00  0.00    +0.000 A 
ATOM     16  C   UNL     1      -0.240  10.510  20.664  0.00  0.00    +0.000 A 
ATOM     17  C   UNL     1      -0.264  10.522  22.055  0.00  0.00    +0.000 A 
ATOM     18 CL   UNL     1      -1.120  11.758  22.887  0.00  0.00    +0.000 Cl
ATOM     19  C   UNL     1       0.416   9.544  22.775  0.00  0.00    +0.000 A 
ATOM     20  C   UNL     1       1.163   8.576  22.096  0.00  0.00    +0.000 A 
ENDBRANCH  12  14
ENDBRANCH   1  10
BRANCH   1  22
ATOM     21  C   UNL     1       3.316   3.178  19.755  0.00  0.00    +0.000 C 
ATOM     22  O   UNL     1       3.844   4.481  20.007  0.00  0.00    +0.000 OA
ENDBRANCH   1  22
TORSDOF 4
ENDMDL
MODEL 5
REMARK VINA RESULT:      -6.7      2.182      3.279
REMARK  Name = 
REMARK  5 active torsions:
REMARK  status: ('A' for Active; 'I' for Inactive)
REMARK    1  A    between atoms: C_1  and  O_2
REMARK    2  A    between atoms: O_2  and  C_3
REMARK    3  A    between atoms: C_3  and  C_12
REMARK    4  A    between atoms: C_4  and  C_5
REMARK    5  A    between atoms: N_14  and  C_15
REMARK                            x       y       z     vdW  Elec       q    Type
REMARK                         _______ _______ _______ _____ _____    ______ ____
ROOT
ATOM      1  C   UNL     1       4.694   4.771  17.003  0.00  0.00    +0.000 C 
ATOM      2  C   UNL     1       5.147   5.421  15.912  0.00  0.00    +0.000 C 
ENDROOT
BRANCH   2   3
ATOM      3  C   UNL     1       5.730   4.841  14.689  0.00  0.00    +0.000 A 
ATOM      4  C   UNL     1       5.013   3.981  13.849  0.00  0.00    +0.000 A 
ATOM      5  C   UNL     1       5.613   3.440  12.708  0.00  0.00    +0.000 A 
ATOM      6  C   UNL     1       6.924   3.781  12.394  0.00  0.00    +0.000 A 
ATOM      7  F   UNL     1       7.501   3.253  11.309  0.00  0.00    +0.000 F 
ATOM      8  C   UNL     1       7.634   4.676  13.187  0.00  0.00    +0.000 A 
ATOM      9  C   UNL     1       7.036   5.205  14.324  0.00  0.00    +0.000 A 
ENDBRANCH   2   3
BRANCH   1  10
ATOM     10  C   UNL     1       4.239   5.657  18.152  0.00  0.00    +0.000 C 
ATOM     11  O   UNL     1       4.852   5.665  19.216  0.00  0.00    +0.000 OA
ATOM     12  N   UNL     1       3.098   6.380  17.874  0.00  0.00    +0.000 N 
ATOM     13  H   UNL     1       2.626   6.148  17.012  0.00  0.00    +0.000 HD
BRANCH  12  14
ATOM     14  C   UNL     1       2.447   7.313  18.704  0.00  0.00    +0.000 A 
ATOM     15  C   UNL     1       2.120   7.074  20.041  0.00  0.00    +0.000 A 
ATOM     16  C   UNL     1       1.380   8.012  20.769  0.00  0.00    +0.000 A 
ATOM     17  C   UNL     1       0.987   9.204  20.170  0.00  0.00    +0.000 A 
ATOM     18 CL   UNL     1       0.024  10.326  21.045  0.00  0.00    +0.000 Cl
ATOM     19  C   UNL     1       1.360   9.484  18.858  0.00  0.00    +0.000 A 
ATOM     20  C   UNL     1       2.091   8.542  18.128  0.00  0.00    +0.000 A 
ENDBRANCH  12  14
ENDBRANCH   1  10
BRANCH   1  22
ATOM     21  C   UNL     1       3.678   2.745  17.773  0.00  0.00    +0.000 C 
ATOM     22  O   UNL     1       4.776   3.390  17.125  0.00  0.00    +0.000 OA
ENDBRANCH   1  22
TORSDOF 4
ENDMDL
MODEL 6
REMARK VINA RESULT:      -6.6      2.574      3.525
REMARK  Name = 
REMARK  5 active torsions:
REMARK  status: ('A' for Active; 'I' for Inactive)
REMARK    1  A    between atoms: C_1  and  O_2
REMARK    2  A    between atoms: O_2  and  C_3
REMARK    3  A    between atoms: C_3  and  C_12
REMARK    4  A    between atoms: C_4  and  C_5
REMARK    5  A    between atoms: N_14  and  C_15
REMARK                            x       y       z     vdW  Elec       q    Type
REMARK                         _______ _______ _______ _____ _____    ______ ____
ROOT
ATOM      1  C   UNL     1       2.878   7.154  17.960  0.00  0.00    +0.000 C 
ATOM      2  C   UNL     1       2.361   6.116  18.649  0.00  0.00    +0.000 C 
ENDROOT
BRANCH   2   3
ATOM      3  C   UNL     1       2.736   4.694  18.561  0.00  0.00    +0.000 A 
ATOM      4  C   UNL     1       2.165   3.822  17.626  0.00  0.00    +0.000 A 
ATOM      5  C   UNL     1       2.540   2.475  17.590  0.00  0.00    +0.000 A 
ATOM      6  C   UNL     1       3.505   2.007  18.474  0.00  0.00    +0.000 A 
ATOM      7  F   UNL     1       3.853   0.716  18.447  0.00  0.00    +0.000 F 
ATOM      8  C   UNL     1       4.122   2.870  19.373  0.00  0.00    +0.000 A 
ATOM      9  C   UNL     1       3.741   4.205  19.411  0.00  0.00    +0.000 A 
ENDBRANCH   2   3
BRANCH   1  10
ATOM     10  C   UNL     1       2.208   8.498  18.200  0.00  0.00    +0.000 C 
ATOM     11  O   UNL     1       2.364   9.425  17.411  0.00  0.00    +0.000 OA
ATOM     12  N   UNL     1       1.474   8.549  19.367  0.00  0.00    +0.000 N 
ATOM     13  H   UNL     1       1.569   7.755  19.984  0.00  0.00    +0.000 HD
BRANCH  12  14
ATOM     14  C   UNL     1       0.708   9.625  19.856  0.00  0.00    +0.000 A 
ATOM     15  C   UNL     1       0.878  10.191  21.122  0.00  0.00    +0.000 A 
ATOM     16  C   UNL     1       0.009  11.189  21.575  0.00  0.00    +0.000 A 
ATOM     17  C   UNL     1      -1.017  11.643  20.753  0.00  0.00    +0.000 A 
ATOM     18 CL   UNL     1      -2.123  12.823  21.335  0.00  0.00    +0.000 Cl
ATOM     19  C   UNL     1      -1.159  11.133  19.465  0.00  0.00    +0.000 A 
ATOM     20  C   UNL     1      -0.296  10.129  19.017  0.00  0.00    +0.000 A 
ENDBRANCH  12  14
ENDBRANCH   1  10
BRANCH   1  22
ATOM     21  C   UNL     1       5.208   6.979  17.444  0.00  0.00    +0.000 C 
ATOM     22  O   UNL     1       3.855   6.981  16.989  0.00  0.00    +0.000 OA
ENDBRANCH   1  22
TORSDOF 4
ENDMDL
MODEL 7
REMARK VINA RESULT:      -6.6      2.571      3.412
REMARK  Name = 
REMARK  5 active torsions:
REMARK  status: ('A' for Active; 'I' for Inactive)
REMARK    1  A    between atoms: C_1  and  O_2
REMARK    2  A    between atoms: O_2  and  C_3
REMARK    3  A    between atoms: C_3  and  C_12
REMARK    4  A    between atoms: C_4  and  C_5
REMARK    5  A    between atoms: N_14  and  C_15
REMARK                            x       y       z     vdW  Elec       q    Type
REMARK                         _______ _______ _______ _____ _____    ______ ____
ROOT
ATOM      1  C   UNL     1       2.909   7.142  17.986  0.00  0.00    +0.000 C 
ATOM      2  C   UNL     1       2.414   6.117  18.709  0.00  0.00    +0.000 C 
ENDROOT
BRANCH   2   3
ATOM      3  C   UNL     1       2.808   4.698  18.653  0.00  0.00    +0.000 A 
ATOM      4  C   UNL     1       3.799   4.159  19.483  0.00  0.00    +0.000 A 
ATOM      5  C   UNL     1       4.153   2.810  19.382  0.00  0.00    +0.000 A 
ATOM      6  C   UNL     1       3.495   1.994  18.469  0.00  0.00    +0.000 A 
ATOM      7  F   UNL     1       3.843   0.707  18.365  0.00  0.00    +0.000 F 
ATOM      8  C   UNL     1       2.472   2.498  17.674  0.00  0.00    +0.000 A 
ATOM      9  C   UNL     1       2.130   3.841  17.771  0.00  0.00    +0.000 A 
ENDBRANCH   2   3
BRANCH   1  10
ATOM     10  C   UNL     1       2.223   8.484  18.199  0.00  0.00    +0.000 C 
ATOM     11  O   UNL     1       2.366   9.395  17.389  0.00  0.00    +0.000 OA
ATOM     12  N   UNL     1       1.493   8.552  19.366  0.00  0.00    +0.000 N 
ATOM     13  H   UNL     1       1.599   7.773  20.000  0.00  0.00    +0.000 HD
BRANCH  12  14
ATOM     14  C   UNL     1       0.716   9.629  19.835  0.00  0.00    +0.000 A 
ATOM     15  C   UNL     1       0.877  10.218  21.091  0.00  0.00    +0.000 A 
ATOM     16  C   UNL     1      -0.003  11.216  21.524  0.00  0.00    +0.000 A 
ATOM     17  C   UNL     1      -1.030  11.646  20.691  0.00  0.00    +0.000 A 
ATOM     18 CL   UNL     1      -2.149  12.826  21.249  0.00  0.00    +0.000 Cl
ATOM     19  C   UNL     1      -1.164  11.113  19.412  0.00  0.00    +0.000 A 
ATOM     20  C   UNL     1      -0.290  10.109  18.985  0.00  0.00    +0.000 A 
ENDBRANCH  12  14
ENDBRANCH   1  10
BRANCH   1  22
ATOM     21  C   UNL     1       5.235   6.991  17.444  0.00  0.00    +0.000 C 
ATOM     22  O   UNL     1       3.875   6.957  17.007  0.00  0.00    +0.000 OA
ENDBRANCH   1  22
TORSDOF 4
ENDMDL
MODEL 8
REMARK VINA RESULT:      -6.6      2.387      3.503
REMARK  Name = 
REMARK  5 active torsions:
REMARK  status: ('A' for Active; 'I' for Inactive)
REMARK    1  A    between atoms: C_1  and  O_2
REMARK    2  A    between atoms: O_2  and  C_3
REMARK    3  A    between atoms: C_3  and  C_12
REMARK    4  A    between atoms: C_4  and  C_5
REMARK    5  A    between atoms: N_14  and  C_15
REMARK                            x       y       z     vdW  Elec       q    Type
REMARK                         _______ _______ _______ _____ _____    ______ ____
ROOT
ATOM      1  C   UNL     1       2.720   7.020  18.383  0.00  0.00    +0.000 C 
ATOM      2  C   UNL     1       2.349   5.927  19.081  0.00  0.00    +0.000 C 
ENDROOT
BRANCH   2   3
ATOM      3  C   UNL     1       2.734   4.526  18.840  0.00  0.00    +0.000 A 
ATOM      4  C   UNL     1       2.125   3.736  17.857  0.00  0.00    +0.000 A 
ATOM      5  C   UNL     1       2.511   2.405  17.676  0.00  0.00    +0.000 A 
ATOM      6  C   UNL     1       3.527   1.871  18.462  0.00  0.00    +0.000 A 
ATOM      7  F   UNL     1       3.886   0.594  18.296  0.00  0.00    +0.000 F 
ATOM      8  C   UNL     1       4.180   2.655  19.406  0.00  0.00    +0.000 A 
ATOM      9  C   UNL     1       3.787   3.975  19.588  0.00  0.00    +0.000 A 
ENDBRANCH   2   3
BRANCH   1  10
ATOM     10  C   UNL     1       2.071   8.326  18.817  0.00  0.00    +0.000 C 
ATOM     11  O   UNL     1       2.174   9.335  18.127  0.00  0.00    +0.000 OA
ATOM     12  N   UNL     1       1.420   8.243  20.031  0.00  0.00    +0.000 N 
ATOM     13  H   UNL     1       1.556   7.386  20.548  0.00  0.00    +0.000 HD
BRANCH  12  14
ATOM     14  C   UNL     1       0.693   9.253  20.689  0.00  0.00    +0.000 A 
ATOM     15  C   UNL     1       0.248  10.424  20.070  0.00  0.00    +0.000 A 
ATOM     16  C   UNL     1      -0.377  11.427  20.817  0.00  0.00    +0.000 A 
ATOM     17  C   UNL     1      -0.585  11.252  22.180  0.00  0.00    +0.000 A 
ATOM     18 CL   UNL     1      -1.296  12.512  23.109  0.00  0.00    +0.000 Cl
ATOM     19  C   UNL     1      -0.205  10.064  22.799  0.00  0.00    +0.000 A 
ATOM     20  C   UNL     1       0.430   9.066  22.054  0.00  0.00    +0.000 A 
ENDBRANCH  12  14
ENDBRANCH   1  10
BRANCH   1  22
ATOM     21  C   UNL     1       4.932   6.912  17.478  0.00  0.00    +0.000 C 
ATOM     22  O   UNL     1       3.522   6.937  17.254  0.00  0.00    +0.000 OA
ENDBRANCH   1  22
TORSDOF 4
ENDMDL
MODEL 9
REMARK VINA RESULT:      -6.6      2.072      2.931
REMARK  Name = 
REMARK  5 active torsions:
REMARK  status: ('A' for Active; 'I' for Inactive)
REMARK    1  A    between atoms: C_1  and  O_2
REMARK    2  A    between atoms: O_2  and  C_3
REMARK    3  A    between atoms: C_3  and  C_12
REMARK    4  A    between atoms: C_4  and  C_5
REMARK    5  A    between atoms: N_14  and  C_15
REMARK                            x       y       z     vdW  Elec       q    Type
REMARK                         _______ _______ _______ _____ _____    ______ ____
ROOT
ATOM      1  C   UNL     1       4.612   4.900  17.142  0.00  0.00    +0.000 C 
ATOM      2  C   UNL     1       5.106   5.576  16.086  0.00  0.00    +0.000 C 
ENDROOT
BRANCH   2   3
ATOM      3  C   UNL     1       5.754   5.026  14.881  0.00  0.00    +0.000 A 
ATOM      4  C   UNL     1       7.064   5.357  14.514  0.00  0.00    +0.000 A 
ATOM      5  C   UNL     1       7.631   4.825  13.352  0.00  0.00    +0.000 A 
ATOM      6  C   UNL     1       6.896   3.940  12.571  0.00  0.00    +0.000 A 
ATOM      7  F   UNL     1       7.435   3.441  11.454  0.00  0.00    +0.000 F 
ATOM      8  C   UNL     1       5.613   3.557  12.949  0.00  0.00    +0.000 A 
ATOM      9  C   UNL     1       5.050   4.096  14.099  0.00  0.00    +0.000 A 
ENDBRANCH   2   3
BRANCH   1  10
ATOM     10  C   UNL     1       4.092   5.759  18.285  0.00  0.00    +0.000 C 
ATOM     11  O   UNL     1       4.576   5.663  19.409  0.00  0.00    +0.000 OA
ATOM     12  N   UNL     1       3.048   6.584  17.925  0.00  0.00    +0.000 N 
ATOM     13  H   UNL     1       2.664   6.435  17.002  0.00  0.00    +0.000 HD
BRANCH  12  14
ATOM     14  C   UNL     1       2.374   7.522  18.730  0.00  0.00    +0.000 A 
ATOM     15  C   UNL     1       2.063   7.313  20.076  0.00  0.00    +0.000 A 
ATOM     16  C   UNL     1       1.300   8.250  20.781  0.00  0.00    +0.000 A 
ATOM     17  C   UNL     1       0.868   9.412  20.150  0.00  0.00    +0.000 A 
ATOM     18 CL   UNL     1      -0.123  10.531  20.997  0.00  0.00    +0.000 Cl
ATOM     19  C   UNL     1       1.224   9.663  18.827  0.00  0.00    +0.000 A 
ATOM     20  C   UNL     1       1.978   8.721  18.121  0.00  0.00    +0.000 A 
ENDBRANCH  12  14
ENDBRANCH   1  10
BRANCH   1  22
ATOM     21  C   UNL     1       3.515   2.827  17.620  0.00  0.00    +0.000 C 
ATOM     22  O   UNL     1       4.707   3.518  17.244  0.00  0.00    +0.000 OA
ENDBRANCH   1  22
TORSDOF 4
ENDMDL
