MODEL 1
REMARK VINA RESULT:      -9.0      0.000      0.000
REMARK  Name = 
REMARK  7 active torsions:
REMARK  status: ('A' for Active; 'I' for Inactive)
REMARK    1  A    between atoms: C_1  and  C_2
REMARK    2  A    between atoms: C_5  and  N_6
REMARK    3  A    between atoms: C_10  and  C_12
REMARK    4  A    between atoms: C_19  and  C_20
REMARK    5  A    between atoms: C_24  and  O_25
REMARK    6  A    between atoms: O_25  and  C_26
REMARK    7  A    between atoms: C_26  and  C_27
REMARK                            x       y       z     vdW  Elec       q    Type
REMARK                         _______ _______ _______ _____ _____    ______ ____
ROOT
ATOM      1  N   UNL     1       2.640   6.810  18.415  0.00  0.00    +0.000 N 
ATOM      2  N   UNL     1       1.742   7.825  18.408  0.00  0.00    +0.000 NA
ATOM      3  C   UNL     1       2.389   8.877  17.922  0.00  0.00    +0.000 A 
ATOM      4  N   UNL     1       1.904  10.174  17.918  0.00  0.00    +0.000 N 
ATOM      5  C   UNL     1       0.724  10.563  18.527  0.00  0.00    +0.000 C 
ATOM      6  O   UNL     1      -0.032   9.850  19.183  0.00  0.00    +0.000 OA
ATOM      7  C   UNL     1       3.633   8.483  17.385  0.00  0.00    +0.000 A 
ATOM      8  C   UNL     1       3.771   7.128  17.656  0.00  0.00    +0.000 A 
ATOM      9  H   UNL     1       2.504  10.871  17.498  0.00  0.00    +0.000 HD
ENDROOT
BRANCH   1  14
ATOM     10  C   UNL     1       1.399   2.180  21.557  0.00  0.00    +0.000 C 
ATOM     11  C   UNL     1       1.728   3.395  20.743  0.00  0.00    +0.000 A 
ATOM     12  C   UNL     1       2.278   4.539  21.336  0.00  0.00    +0.000 A 
ATOM     13  C   UNL     1       2.603   5.654  20.558  0.00  0.00    +0.000 A 
ATOM     14  C   UNL     1       2.352   5.645  19.180  0.00  0.00    +0.000 A 
ATOM     15  C   UNL     1       1.834   4.491  18.581  0.00  0.00    +0.000 A 
ATOM     16  C   UNL     1       1.513   3.379  19.360  0.00  0.00    +0.000 A 
ENDBRANCH   1  14
BRANCH   5  17
ATOM     17  C   UNL     1       0.360  12.039  18.372  0.00  0.00    +0.000 C 
ATOM     18  C   UNL     1      -1.134  12.280  18.288  0.00  0.00    +0.000 C 
ATOM     19  N   UNL     1      -1.499  12.633  19.627  0.00  0.00    +0.000 N 
ATOM     20  C   UNL     1      -0.427  13.119  20.347  0.00  0.00    +0.000 C 
ATOM     21  O   UNL     1      -0.509  13.634  21.444  0.00  0.00    +0.000 OA
ATOM     22  C   UNL     1       0.832  12.901  19.542  0.00  0.00    +0.000 C 
ATOM     23  H   UNL     1      -2.439  12.873  19.929  0.00  0.00    +0.000 HD
ENDBRANCH   5  17
BRANCH   8  24
ATOM     24  C   UNL     1       4.859   6.207  17.281  0.00  0.00    +0.000 A 
ATOM     25  C   UNL     1       5.707   5.626  18.235  0.00  0.00    +0.000 A 
ATOM     26  C   UNL     1       6.843   4.915  17.845  0.00  0.00    +0.000 A 
ATOM     27  C   UNL     1       7.098   4.705  16.493  0.00  0.00    +0.000 A 
ATOM     28  C   UNL     1       6.205   5.176  15.532  0.00  0.00    +0.000 A 
ATOM     29  C   UNL     1       5.101   5.938  15.925  0.00  0.00    +0.000 A 
BRANCH  28  30
ATOM     30  O   UNL     1       6.541   4.906  14.234  0.00  0.00    +0.000 OA
BRANCH  30  31
ATOM     31  C   UNL     1       6.107   3.633  13.736  0.00  0.00    +0.000 C 
BRANCH  31  32
ATOM     32  C   UNL     1       6.278   3.540  12.222  0.00  0.00    +0.000 C 
ATOM     33  F   UNL     1       6.757   2.346  11.815  0.00  0.00    +0.000 F 
ATOM     34  F   UNL     1       5.099   3.745  11.589  0.00  0.00    +0.000 F 
ATOM     35  F   UNL     1       7.136   4.492  11.783  0.00  0.00    +0.000 F 
ENDBRANCH  31  32
ENDBRANCH  30  31
ENDBRANCH  28  30
ENDBRANCH   8  24
TORSDOF 6
ENDMDL
MODEL 2
REMARK VINA RESULT:      -9.0      0.318      1.121
REMARK  Name = 
REMARK  7 active torsions:
REMARK  status: ('A' for Active; 'I' for Inactive)
REMARK    1  A    between atoms: C_1  and  C_2
REMARK    2  A    between atoms: C_5  and  N_6
REMARK    3  A    between atoms: C_10  and  C_12
REMARK    4  A    between atoms: C_19  and  C_20
REMARK    5  A    between atoms: C_24  and  O_25
REMARK    6  A    between atoms: O_25  and  C_26
REMARK    7  A    between atoms: C_26  and  C_27
REMARK                            x       y       z     vdW  Elec       q    Type
REMARK                         _______ _______ _______ _____ _____    ______ ____
ROOT
ATOM      1  N   UNL     1       2.518   6.863  18.452  0.00  0.00    +0.000 N 
ATOM      2  N   UNL     1       1.609   7.867  18.441  0.00  0.00    +0.000 NA
ATOM      3  C   UNL     1       2.239   8.921  17.939  0.00  0.00    +0.000 A 
ATOM      4  N   UNL     1       1.739  10.212  17.924  0.00  0.00    +0.000 N 
ATOM      5  C   UNL     1       0.559  10.594  18.539  0.00  0.00    +0.000 C 
ATOM      6  O   UNL     1      -0.182   9.879  19.209  0.00  0.00    +0.000 OA
ATOM      7  C   UNL     1       3.483   8.536  17.395  0.00  0.00    +0.000 A 
ATOM      8  C   UNL     1       3.639   7.185  17.680  0.00  0.00    +0.000 A 
ATOM      9  H   UNL     1       2.327  10.912  17.492  0.00  0.00    +0.000 HD
ENDROOT
BRANCH   1  14
ATOM     10  C   UNL     1       1.529   2.131  21.533  0.00  0.00    +0.000 C 
ATOM     11  C   UNL     1       1.784   3.364  20.718  0.00  0.00    +0.000 A 
ATOM     12  C   UNL     1       1.574   3.377  19.334  0.00  0.00    +0.000 A 
ATOM     13  C   UNL     1       1.791   4.543  18.594  0.00  0.00    +0.000 A 
ATOM     14  C   UNL     1       2.251   5.702  19.232  0.00  0.00    +0.000 A 
ATOM     15  C   UNL     1       2.429   5.701  20.620  0.00  0.00    +0.000 A 
ATOM     16  C   UNL     1       2.209   4.536  21.355  0.00  0.00    +0.000 A 
ENDBRANCH   1  14
BRANCH   5  17
ATOM     17  C   UNL     1       0.177  12.064  18.370  0.00  0.00    +0.000 C 
ATOM     18  C   UNL     1      -1.262  12.260  17.937  0.00  0.00    +0.000 C 
ATOM     19  N   UNL     1      -1.955  12.523  19.163  0.00  0.00    +0.000 N 
ATOM     20  C   UNL     1      -1.111  13.002  20.144  0.00  0.00    +0.000 C 
ATOM     21  O   UNL     1      -1.479  13.450  21.211  0.00  0.00    +0.000 OA
ATOM     22  C   UNL     1       0.313  12.872  19.660  0.00  0.00    +0.000 C 
ATOM     23  H   UNL     1      -2.950  12.715  19.238  0.00  0.00    +0.000 HD
ENDBRANCH   5  17
BRANCH   8  24
ATOM     24  C   UNL     1       4.735   6.273  17.306  0.00  0.00    +0.000 A 
ATOM     25  C   UNL     1       5.588   5.700  18.261  0.00  0.00    +0.000 A 
ATOM     26  C   UNL     1       6.730   4.998  17.871  0.00  0.00    +0.000 A 
ATOM     27  C   UNL     1       6.987   4.789  16.519  0.00  0.00    +0.000 A 
ATOM     28  C   UNL     1       6.090   5.252  15.558  0.00  0.00    +0.000 A 
ATOM     29  C   UNL     1       4.980   6.005  15.950  0.00  0.00    +0.000 A 
BRANCH  28  30
ATOM     30  O   UNL     1       6.428   4.984  14.261  0.00  0.00    +0.000 OA
BRANCH  30  31
ATOM     31  C   UNL     1       6.272   3.618  13.851  0.00  0.00    +0.000 C 
BRANCH  31  32
ATOM     32  C   UNL     1       6.109   3.506  12.338  0.00  0.00    +0.000 C 
ATOM     33  F   UNL     1       4.863   3.806  11.915  0.00  0.00    +0.000 F 
ATOM     34  F   UNL     1       6.968   4.332  11.697  0.00  0.00    +0.000 F 
ATOM     35  F   UNL     1       6.384   2.245  11.924  0.00  0.00    +0.000 F 
ENDBRANCH  31  32
ENDBRANCH  30  31
ENDBRANCH  28  30
ENDBRANCH   8  24
TORSDOF 6
ENDMDL
MODEL 3
REMARK VINA RESULT:      -8.9      0.876      1.163
REMARK  Name = 
REMARK  7 active torsions:
REMARK  status: ('A' for Active; 'I' for Inactive)
REMARK    1  A    between atoms: C_1  and  C_2
REMARK    2  A    between atoms: C_5  and  N_6
REMARK    3  A    between atoms: C_10  and  C_12
REMARK    4  A    between atoms: C_19  and  C_20
REMARK    5  A    between atoms: C_24  and  O_25
REMARK    6  A    between atoms: O_25  and  C_26
REMARK    7  A    between atoms: C_26  and  C_27
REMARK                            x       y       z     vdW  Elec       q    Type
REMARK                         _______ _______ _______ _____ _____    ______ ____
ROOT
ATOM      1  N   UNL     1       2.640   6.837  18.440  0.00  0.00    +0.000 N 
ATOM      2  N   UNL     1       1.762   7.869  18.452  0.00  0.00    +0.000 NA
ATOM      3  C   UNL     1       2.423   8.912  17.968  0.00  0.00    +0.000 A 
ATOM      4  N   UNL     1       1.963  10.219  17.981  0.00  0.00    +0.000 N 
ATOM      5  C   UNL     1       0.799  10.625  18.608  0.00  0.00    +0.000 C 
ATOM      6  O   UNL     1       0.038   9.921  19.266  0.00  0.00    +0.000 OA
ATOM      7  C   UNL     1       3.652   8.499  17.412  0.00  0.00    +0.000 A 
ATOM      8  C   UNL     1       3.767   7.139  17.669  0.00  0.00    +0.000 A 
ATOM      9  H   UNL     1       2.572  10.908  17.559  0.00  0.00    +0.000 HD
ENDROOT
BRANCH   1  14
ATOM     10  C   UNL     1       1.347   2.204  21.557  0.00  0.00    +0.000 C 
ATOM     11  C   UNL     1       1.690   3.420  20.750  0.00  0.00    +0.000 A 
ATOM     12  C   UNL     1       2.253   4.554  21.348  0.00  0.00    +0.000 A 
ATOM     13  C   UNL     1       2.591   5.669  20.576  0.00  0.00    +0.000 A 
ATOM     14  C   UNL     1       2.339   5.671  19.198  0.00  0.00    +0.000 A 
ATOM     15  C   UNL     1       1.808   4.526  18.594  0.00  0.00    +0.000 A 
ATOM     16  C   UNL     1       1.474   3.414  19.367  0.00  0.00    +0.000 A 
ENDBRANCH   1  14
BRANCH   5  17
ATOM     17  C   UNL     1       0.462  12.109  18.469  0.00  0.00    +0.000 C 
ATOM     18  C   UNL     1      -0.250  12.675  19.681  0.00  0.00    +0.000 C 
ATOM     19  N   UNL     1       0.800  13.284  20.441  0.00  0.00    +0.000 N 
ATOM     20  C   UNL     1       1.891  13.603  19.658  0.00  0.00    +0.000 C 
ATOM     21  O   UNL     1       2.835  14.270  20.030  0.00  0.00    +0.000 OA
ATOM     22  C   UNL     1       1.697  12.992  18.292  0.00  0.00    +0.000 C 
ATOM     23  H   UNL     1       0.671  13.775  21.322  0.00  0.00    +0.000 HD
ENDBRANCH   5  17
BRANCH   8  24
ATOM     24  C   UNL     1       4.833   6.201  17.273  0.00  0.00    +0.000 A 
ATOM     25  C   UNL     1       5.678   5.592  18.212  0.00  0.00    +0.000 A 
ATOM     26  C   UNL     1       6.796   4.863  17.802  0.00  0.00    +0.000 A 
ATOM     27  C   UNL     1       7.033   4.663  16.445  0.00  0.00    +0.000 A 
ATOM     28  C   UNL     1       6.140   5.163  15.499  0.00  0.00    +0.000 A 
ATOM     29  C   UNL     1       5.056   5.942  15.912  0.00  0.00    +0.000 A 
BRANCH  28  30
ATOM     30  O   UNL     1       6.457   4.901  14.195  0.00  0.00    +0.000 OA
BRANCH  30  31
ATOM     31  C   UNL     1       6.259   3.545  13.771  0.00  0.00    +0.000 C 
BRANCH  31  32
ATOM     32  C   UNL     1       6.108   3.452  12.256  0.00  0.00    +0.000 C 
ATOM     33  F   UNL     1       6.980   4.234  11.586  0.00  0.00    +0.000 F 
ATOM     34  F   UNL     1       6.289   2.179  11.829  0.00  0.00    +0.000 F 
ATOM     35  F   UNL     1       4.860   3.824  11.881  0.00  0.00    +0.000 F 
ENDBRANCH  31  32
ENDBRANCH  30  31
ENDBRANCH  28  30
ENDBRANCH   8  24
TORSDOF 6
ENDMDL
MODEL 4
REMARK VINA RESULT:      -8.3      0.931      1.201
REMARK  Name = 
REMARK  7 active torsions:
REMARK  status: ('A' for Active; 'I' for Inactive)
REMARK    1  A    between atoms: C_1  and  C_2
REMARK    2  A    between atoms: C_5  and  N_6
REMARK    3  A    between atoms: C_10  and  C_12
REMARK    4  A    between atoms: C_19  and  C_20
REMARK    5  A    between atoms: C_24  and  O_25
REMARK    6  A    between atoms: O_25  and  C_26
REMARK    7  A    between atoms: C_26  and  C_27
REMARK                            x       y       z     vdW  Elec       q    Type
REMARK                         _______ _______ _______ _____ _____    ______ ____
ROOT
ATOM      1  N   UNL     1       2.469   7.121  18.422  0.00  0.00    +0.000 N 
ATOM      2  N   UNL     1       1.512   8.071  18.555  0.00  0.00    +0.000 NA
ATOM      3  C   UNL     1       2.057   9.198  18.117  0.00  0.00    +0.000 A 
ATOM      4  N   UNL     1       1.494  10.456  18.250  0.00  0.00    +0.000 N 
ATOM      5  C   UNL     1       0.337  10.717  18.963  0.00  0.00    +0.000 C 
ATOM      6  O   UNL     1      -0.326   9.906  19.605  0.00  0.00    +0.000 OA
ATOM      7  C   UNL     1       3.283   8.932  17.472  0.00  0.00    +0.000 A 
ATOM      8  C   UNL     1       3.523   7.572  17.621  0.00  0.00    +0.000 A 
ATOM      9  H   UNL     1       2.020  11.223  17.851  0.00  0.00    +0.000 HD
ENDROOT
BRANCH   1  14
ATOM     10  C   UNL     1       1.724   2.183  21.236  0.00  0.00    +0.000 C 
ATOM     11  C   UNL     1       1.922   3.479  20.509  0.00  0.00    +0.000 A 
ATOM     12  C   UNL     1       2.266   4.651  21.193  0.00  0.00    +0.000 A 
ATOM     13  C   UNL     1       2.474   5.845  20.497  0.00  0.00    +0.000 A 
ATOM     14  C   UNL     1       2.307   5.883  19.106  0.00  0.00    +0.000 A 
ATOM     15  C   UNL     1       1.996   4.706  18.416  0.00  0.00    +0.000 A 
ATOM     16  C   UNL     1       1.793   3.516  19.115  0.00  0.00    +0.000 A 
ENDBRANCH   1  14
BRANCH   5  17
ATOM     17  C   UNL     1      -0.127  12.173  18.952  0.00  0.00    +0.000 C 
ATOM     18  C   UNL     1      -1.062  12.492  17.802  0.00  0.00    +0.000 C 
ATOM     19  N   UNL     1      -2.366  12.387  18.383  0.00  0.00    +0.000 N 
ATOM     20  C   UNL     1      -2.341  12.553  19.753  0.00  0.00    +0.000 C 
ATOM     21  O   UNL     1      -3.327  12.670  20.452  0.00  0.00    +0.000 OA
ATOM     22  C   UNL     1      -0.902  12.567  20.209  0.00  0.00    +0.000 C 
ATOM     23  H   UNL     1      -3.239  12.551  17.887  0.00  0.00    +0.000 HD
ENDBRANCH   5  17
BRANCH   8  24
ATOM     24  C   UNL     1       4.638   6.758  17.104  0.00  0.00    +0.000 A 
ATOM     25  C   UNL     1       5.942   6.871  17.609  0.00  0.00    +0.000 A 
ATOM     26  C   UNL     1       7.012   6.234  16.977  0.00  0.00    +0.000 A 
ATOM     27  C   UNL     1       6.777   5.409  15.881  0.00  0.00    +0.000 A 
ATOM     28  C   UNL     1       5.475   5.193  15.435  0.00  0.00    +0.000 A 
ATOM     29  C   UNL     1       4.413   5.878  16.034  0.00  0.00    +0.000 A 
BRANCH  28  30
ATOM     30  O   UNL     1       5.351   4.356  14.361  0.00  0.00    +0.000 OA
BRANCH  30  31
ATOM     31  C   UNL     1       6.585   3.896  13.791  0.00  0.00    +0.000 C 
BRANCH  31  32
ATOM     32  C   UNL     1       6.447   3.646  12.292  0.00  0.00    +0.000 C 
ATOM     33  F   UNL     1       7.120   4.542  11.541  0.00  0.00    +0.000 F 
ATOM     34  F   UNL     1       6.901   2.414  11.964  0.00  0.00    +0.000 F 
ATOM     35  F   UNL     1       5.145   3.703  11.920  0.00  0.00    +0.000 F 
ENDBRANCH  31  32
ENDBRANCH  30  31
ENDBRANCH  28  30
ENDBRANCH   8  24
TORSDOF 6
ENDMDL
MODEL 5
REMARK VINA RESULT:      -8.1      0.793      1.179
REMARK  Name = 
REMARK  7 active torsions:
REMARK  status: ('A' for Active; 'I' for Inactive)
REMARK    1  A    between atoms: C_1  and  C_2
REMARK    2  A    between atoms: C_5  and  N_6
REMARK    3  A    between atoms: C_10  and  C_12
REMARK    4  A    between atoms: C_19  and  C_20
REMARK    5  A    between atoms: C_24  and  O_25
REMARK    6  A    between atoms: O_25  and  C_26
REMARK    7  A    between atoms: C_26  and  C_27
REMARK                            x       y       z     vdW  Elec       q    Type
REMARK                         _______ _______ _______ _____ _____    ______ ____
ROOT
ATOM      1  N   UNL     1       2.592   6.777  18.488  0.00  0.00    +0.000 N 
ATOM      2  N   UNL     1       1.669   7.759  18.352  0.00  0.00    +0.000 NA
ATOM      3  C   UNL     1       2.325   8.810  17.878  0.00  0.00    +0.000 A 
ATOM      4  N   UNL     1       1.803  10.088  17.770  0.00  0.00    +0.000 N 
ATOM      5  C   UNL     1       0.561  10.463  18.251  0.00  0.00    +0.000 C 
ATOM      6  O   UNL     1      -0.229   9.754  18.869  0.00  0.00    +0.000 OA
ATOM      7  C   UNL     1       3.624   8.436  17.474  0.00  0.00    +0.000 A 
ATOM      8  C   UNL     1       3.777   7.099  17.820  0.00  0.00    +0.000 A 
ATOM      9  H   UNL     1       2.418  10.787  17.373  0.00  0.00    +0.000 HD
ENDROOT
BRANCH   1  14
ATOM     10  C   UNL     1       1.387   2.124  21.611  0.00  0.00    +0.000 C 
ATOM     11  C   UNL     1       1.698   3.336  20.785  0.00  0.00    +0.000 A 
ATOM     12  C   UNL     1       1.521   3.335  19.396  0.00  0.00    +0.000 A 
ATOM     13  C   UNL     1       1.790   4.483  18.646  0.00  0.00    +0.000 A 
ATOM     14  C   UNL     1       2.271   5.637  19.278  0.00  0.00    +0.000 A 
ATOM     15  C   UNL     1       2.417   5.651  20.669  0.00  0.00    +0.000 A 
ATOM     16  C   UNL     1       2.144   4.504  21.416  0.00  0.00    +0.000 A 
ENDBRANCH   1  14
BRANCH   5  17
ATOM     17  C   UNL     1       0.169  11.917  17.994  0.00  0.00    +0.000 C 
ATOM     18  C   UNL     1      -1.271  12.220  18.359  0.00  0.00    +0.000 C 
ATOM     19  N   UNL     1      -1.179  12.783  19.673  0.00  0.00    +0.000 N 
ATOM     20  C   UNL     1       0.070  13.313  19.926  0.00  0.00    +0.000 C 
ATOM     21  O   UNL     1       0.350  13.985  20.897  0.00  0.00    +0.000 OA
ATOM     22  C   UNL     1       0.997  12.915  18.803  0.00  0.00    +0.000 C 
ATOM     23  H   UNL     1      -1.970  13.113  20.220  0.00  0.00    +0.000 HD
ENDBRANCH   5  17
BRANCH   8  24
ATOM     24  C   UNL     1       4.922   6.201  17.588  0.00  0.00    +0.000 A 
ATOM     25  C   UNL     1       5.492   5.437  18.618  0.00  0.00    +0.000 A 
ATOM     26  C   UNL     1       6.689   4.746  18.418  0.00  0.00    +0.000 A 
ATOM     27  C   UNL     1       7.285   4.742  17.161  0.00  0.00    +0.000 A 
ATOM     28  C   UNL     1       6.674   5.400  16.096  0.00  0.00    +0.000 A 
ATOM     29  C   UNL     1       5.507   6.139  16.314  0.00  0.00    +0.000 A 
BRANCH  28  30
ATOM     30  O   UNL     1       7.333   5.325  14.900  0.00  0.00    +0.000 OA
BRANCH  30  31
ATOM     31  C   UNL     1       6.498   5.291  13.735  0.00  0.00    +0.000 C 
BRANCH  31  32
ATOM     32  C   UNL     1       6.056   3.867  13.408  0.00  0.00    +0.000 C 
ATOM     33  F   UNL     1       6.166   3.024  14.456  0.00  0.00    +0.000 F 
ATOM     34  F   UNL     1       4.766   3.843  12.997  0.00  0.00    +0.000 F 
ATOM     35  F   UNL     1       6.805   3.359  12.400  0.00  0.00    +0.000 F 
ENDBRANCH  31  32
ENDBRANCH  30  31
ENDBRANCH  28  30
ENDBRANCH   8  24
TORSDOF 6
ENDMDL
MODEL 6
REMARK VINA RESULT:      -8.0      4.639      7.699
REMARK  Name = 
REMARK  7 active torsions:
REMARK  status: ('A' for Active; 'I' for Inactive)
REMARK    1  A    between atoms: C_1  and  C_2
REMARK    2  A    between atoms: C_5  and  N_6
REMARK    3  A    between atoms: C_10  and  C_12
REMARK    4  A    between atoms: C_19  and  C_20
REMARK    5  A    between atoms: C_24  and  O_25
REMARK    6  A    between atoms: O_25  and  C_26
REMARK    7  A    between atoms: C_26  and  C_27
REMARK                            x       y       z     vdW  Elec       q    Type
REMARK                         _______ _______ _______ _____ _____    ______ ____
ROOT
ATOM      1  N   UNL     1      -1.712  11.123  19.497  0.00  0.00    +0.000 N 
ATOM      2  N   UNL     1      -2.447  11.954  20.275  0.00  0.00    +0.000 NA
ATOM      3  C   UNL     1      -2.007  11.774  21.514  0.00  0.00    +0.000 A 
ATOM      4  N   UNL     1      -2.609  12.285  22.652  0.00  0.00    +0.000 N 
ATOM      5  C   UNL     1      -3.819  12.957  22.655  0.00  0.00    +0.000 C 
ATOM      6  O   UNL     1      -4.545  13.160  21.686  0.00  0.00    +0.000 OA
ATOM      7  C   UNL     1      -0.821  11.010  21.507  0.00  0.00    +0.000 A 
ATOM      8  C   UNL     1      -0.599  10.633  20.188  0.00  0.00    +0.000 A 
ATOM      9  H   UNL     1      -2.149  12.078  23.528  0.00  0.00    +0.000 HD
ENDROOT
BRANCH   1  14
ATOM     10  C   UNL     1      -3.413  10.005  14.139  0.00  0.00    +0.000 C 
ATOM     11  C   UNL     1      -2.967  10.307  15.538  0.00  0.00    +0.000 A 
ATOM     12  C   UNL     1      -2.466  11.568  15.884  0.00  0.00    +0.000 A 
ATOM     13  C   UNL     1      -2.080  11.842  17.199  0.00  0.00    +0.000 A 
ATOM     14  C   UNL     1      -2.163  10.841  18.177  0.00  0.00    +0.000 A 
ATOM     15  C   UNL     1      -2.695   9.591  17.840  0.00  0.00    +0.000 A 
ATOM     16  C   UNL     1      -3.082   9.324  16.527  0.00  0.00    +0.000 A 
ENDBRANCH   1  14
BRANCH   5  17
ATOM     17  C   UNL     1      -4.283  13.465  24.019  0.00  0.00    +0.000 C 
ATOM     18  C   UNL     1      -4.820  14.882  23.975  0.00  0.00    +0.000 C 
ATOM     19  N   UNL     1      -6.239  14.707  23.883  0.00  0.00    +0.000 N 
ATOM     20  C   UNL     1      -6.643  13.478  24.362  0.00  0.00    +0.000 C 
ATOM     21  O   UNL     1      -7.799  13.155  24.543  0.00  0.00    +0.000 OA
ATOM     22  C   UNL     1      -5.418  12.634  24.616  0.00  0.00    +0.000 C 
ATOM     23  H   UNL     1      -6.916  15.464  23.846  0.00  0.00    +0.000 HD
ENDBRANCH   5  17
BRANCH   8  24
ATOM     24  C   UNL     1       0.518   9.864  19.612  0.00  0.00    +0.000 A 
ATOM     25  C   UNL     1       1.118  10.218  18.393  0.00  0.00    +0.000 A 
ATOM     26  C   UNL     1       2.039   9.370  17.776  0.00  0.00    +0.000 A 
ATOM     27  C   UNL     1       2.434   8.196  18.412  0.00  0.00    +0.000 A 
ATOM     28  C   UNL     1       1.936   7.885  19.676  0.00  0.00    +0.000 A 
ATOM     29  C   UNL     1       0.970   8.707  20.264  0.00  0.00    +0.000 A 
BRANCH  28  30
ATOM     30  O   UNL     1       2.397   6.717  20.219  0.00  0.00    +0.000 OA
BRANCH  30  31
ATOM     31  C   UNL     1       2.431   5.593  19.328  0.00  0.00    +0.000 C 
BRANCH  31  32
ATOM     32  C   UNL     1       1.739   4.378  19.939  0.00  0.00    +0.000 C 
ATOM     33  F   UNL     1       0.585   4.686  20.568  0.00  0.00    +0.000 F 
ATOM     34  F   UNL     1       1.453   3.457  18.989  0.00  0.00    +0.000 F 
ATOM     35  F   UNL     1       2.547   3.779  20.846  0.00  0.00    +0.000 F 
ENDBRANCH  31  32
ENDBRANCH  30  31
ENDBRANCH  28  30
ENDBRANCH   8  24
TORSDOF 6
ENDMDL
MODEL 7
REMARK VINA RESULT:      -7.9      5.239      7.871
REMARK  Name = 
REMARK  7 active torsions:
REMARK  status: ('A' for Active; 'I' for Inactive)
REMARK    1  A    between atoms: C_1  and  C_2
REMARK    2  A    between atoms: C_5  and  N_6
REMARK    3  A    between atoms: C_10  and  C_12
REMARK    4  A    between atoms: C_19  and  C_20
REMARK    5  A    between atoms: C_24  and  O_25
REMARK    6  A    between atoms: O_25  and  C_26
REMARK    7  A    between atoms: C_26  and  C_27
REMARK                            x       y       z     vdW  Elec       q    Type
REMARK                         _______ _______ _______ _____ _____    ______ ____
ROOT
ATOM      1  N   UNL     1      -0.077  11.010  18.717  0.00  0.00    +0.000 N 
ATOM      2  N   UNL     1      -1.337  10.838  18.251  0.00  0.00    +0.000 NA
ATOM      3  C   UNL     1      -1.981  11.966  18.524  0.00  0.00    +0.000 A 
ATOM      4  N   UNL     1      -3.347  12.152  18.390  0.00  0.00    +0.000 N 
ATOM      5  C   UNL     1      -4.239  11.146  18.063  0.00  0.00    +0.000 C 
ATOM      6  O   UNL     1      -3.972   9.960  17.888  0.00  0.00    +0.000 OA
ATOM      7  C   UNL     1      -1.073  12.960  18.945  0.00  0.00    +0.000 A 
ATOM      8  C   UNL     1       0.175  12.353  19.017  0.00  0.00    +0.000 A 
ATOM      9  H   UNL     1      -3.694  13.073  18.621  0.00  0.00    +0.000 HD
ENDROOT
BRANCH   1  14
ATOM     10  C   UNL     1       3.195   6.349  19.369  0.00  0.00    +0.000 C 
ATOM     11  C   UNL     1       2.338   7.569  19.208  0.00  0.00    +0.000 A 
ATOM     12  C   UNL     1       1.653   8.123  20.297  0.00  0.00    +0.000 A 
ATOM     13  C   UNL     1       0.879   9.276  20.135  0.00  0.00    +0.000 A 
ATOM     14  C   UNL     1       0.760   9.869  18.871  0.00  0.00    +0.000 A 
ATOM     15  C   UNL     1       1.471   9.336  17.790  0.00  0.00    +0.000 A 
ATOM     16  C   UNL     1       2.244   8.187  17.956  0.00  0.00    +0.000 A 
ENDBRANCH   1  14
BRANCH   5  17
ATOM     17  C   UNL     1      -5.698  11.578  17.935  0.00  0.00    +0.000 C 
ATOM     18  C   UNL     1      -6.671  10.575  18.522  0.00  0.00    +0.000 C 
ATOM     19  N   UNL     1      -6.939  11.086  19.833  0.00  0.00    +0.000 N 
ATOM     20  C   UNL     1      -6.693  12.441  19.924  0.00  0.00    +0.000 C 
ATOM     21  O   UNL     1      -6.995  13.135  20.874  0.00  0.00    +0.000 OA
ATOM     22  C   UNL     1      -6.002  12.890  18.659  0.00  0.00    +0.000 C 
ATOM     23  H   UNL     1      -7.570  10.658  20.506  0.00  0.00    +0.000 HD
ENDBRANCH   5  17
BRANCH   8  24
ATOM     24  C   UNL     1       1.481  12.942  19.361  0.00  0.00    +0.000 A 
ATOM     25  C   UNL     1       1.882  13.144  20.690  0.00  0.00    +0.000 A 
ATOM     26  C   UNL     1       3.033  13.876  20.987  0.00  0.00    +0.000 A 
ATOM     27  C   UNL     1       3.843  14.343  19.956  0.00  0.00    +0.000 A 
ATOM     28  C   UNL     1       3.523  14.053  18.631  0.00  0.00    +0.000 A 
ATOM     29  C   UNL     1       2.339  13.371  18.336  0.00  0.00    +0.000 A 
BRANCH  28  30
ATOM     30  O   UNL     1       4.389  14.545  17.695  0.00  0.00    +0.000 OA
BRANCH  30  31
ATOM     31  C   UNL     1       5.465  15.344  18.208  0.00  0.00    +0.000 C 
BRANCH  31  32
ATOM     32  C   UNL     1       6.814  14.663  17.997  0.00  0.00    +0.000 C 
ATOM     33  F   UNL     1       6.726  13.522  17.282  0.00  0.00    +0.000 F 
ATOM     34  F   UNL     1       7.674  15.486  17.350  0.00  0.00    +0.000 F 
ATOM     35  F   UNL     1       7.379  14.352  19.188  0.00  0.00    +0.000 F 
ENDBRANCH  31  32
ENDBRANCH  30  31
ENDBRANCH  28  30
ENDBRANCH   8  24
TORSDOF 6
ENDMDL
MODEL 8
REMARK VINA RESULT:      -7.9      5.212      8.071
REMARK  Name = 
REMARK  7 active torsions:
REMARK  status: ('A' for Active; 'I' for Inactive)
REMARK    1  A    between atoms: C_1  and  C_2
REMARK    2  A    between atoms: C_5  and  N_6
REMARK    3  A    between atoms: C_10  and  C_12
REMARK    4  A    between atoms: C_19  and  C_20
REMARK    5  A    between atoms: C_24  and  O_25
REMARK    6  A    between atoms: O_25  and  C_26
REMARK    7  A    between atoms: C_26  and  C_27
REMARK                            x       y       z     vdW  Elec       q    Type
REMARK                         _______ _______ _______ _____ _____    ______ ____
ROOT
ATOM      1  N   UNL     1      -0.128  11.289  18.971  0.00  0.00    +0.000 N 
ATOM      2  N   UNL     1      -1.431  11.198  18.613  0.00  0.00    +0.000 NA
ATOM      3  C   UNL     1      -2.000  12.322  19.029  0.00  0.00    +0.000 A 
ATOM      4  N   UNL     1      -3.364  12.566  19.039  0.00  0.00    +0.000 N 
ATOM      5  C   UNL     1      -4.323  11.620  18.721  0.00  0.00    +0.000 C 
ATOM      6  O   UNL     1      -4.123  10.443  18.433  0.00  0.00    +0.000 OA
ATOM      7  C   UNL     1      -1.017  13.248  19.438  0.00  0.00    +0.000 A 
ATOM      8  C   UNL     1       0.206  12.594  19.347  0.00  0.00    +0.000 A 
ATOM      9  H   UNL     1      -3.650  13.477  19.370  0.00  0.00    +0.000 HD
ENDROOT
BRANCH   1  14
ATOM     10  C   UNL     1       3.185   6.612  18.901  0.00  0.00    +0.000 C 
ATOM     11  C   UNL     1       2.320   7.836  18.909  0.00  0.00    +0.000 A 
ATOM     12  C   UNL     1       2.139   8.606  17.753  0.00  0.00    +0.000 A 
ATOM     13  C   UNL     1       1.307   9.729  17.771  0.00  0.00    +0.000 A 
ATOM     14  C   UNL     1       0.670  10.110  18.960  0.00  0.00    +0.000 A 
ATOM     15  C   UNL     1       0.823   9.324  20.107  0.00  0.00    +0.000 A 
ATOM     16  C   UNL     1       1.652   8.202  20.084  0.00  0.00    +0.000 A 
ENDBRANCH   1  14
BRANCH   5  17
ATOM     17  C   UNL     1      -5.769  12.112  18.764  0.00  0.00    +0.000 C 
ATOM     18  C   UNL     1      -6.739  11.171  18.078  0.00  0.00    +0.000 C 
ATOM     19  N   UNL     1      -7.279  10.395  19.154  0.00  0.00    +0.000 N 
ATOM     20  C   UNL     1      -7.172  11.043  20.368  0.00  0.00    +0.000 C 
ATOM     21  O   UNL     1      -7.697  10.670  21.397  0.00  0.00    +0.000 OA
ATOM     22  C   UNL     1      -6.310  12.268  20.185  0.00  0.00    +0.000 C 
ATOM     23  H   UNL     1      -7.980   9.665  19.050  0.00  0.00    +0.000 HD
ENDBRANCH   5  17
BRANCH   8  24
ATOM     24  C   UNL     1       1.562  13.108  19.610  0.00  0.00    +0.000 A 
ATOM     25  C   UNL     1       2.011  13.397  20.908  0.00  0.00    +0.000 A 
ATOM     26  C   UNL     1       3.221  14.061  21.115  0.00  0.00    +0.000 A 
ATOM     27  C   UNL     1       4.037  14.369  20.029  0.00  0.00    +0.000 A 
ATOM     28  C   UNL     1       3.661  13.987  18.743  0.00  0.00    +0.000 A 
ATOM     29  C   UNL     1       2.422  13.376  18.534  0.00  0.00    +0.000 A 
BRANCH  28  30
ATOM     30  O   UNL     1       4.538  14.325  17.749  0.00  0.00    +0.000 OA
BRANCH  30  31
ATOM     31  C   UNL     1       5.551  15.272  18.115  0.00  0.00    +0.000 C 
BRANCH  31  32
ATOM     32  C   UNL     1       6.949  14.676  17.970  0.00  0.00    +0.000 C 
ATOM     33  F   UNL     1       7.829  15.522  17.396  0.00  0.00    +0.000 F 
ATOM     34  F   UNL     1       7.450  14.322  19.177  0.00  0.00    +0.000 F 
ATOM     35  F   UNL     1       6.909  13.556  17.210  0.00  0.00    +0.000 F 
ENDBRANCH  31  32
ENDBRANCH  30  31
ENDBRANCH  28  30
ENDBRANCH   8  24
TORSDOF 6
ENDMDL
MODEL 9
REMARK VINA RESULT:      -7.9      4.488      7.826
REMARK  Name = 
REMARK  7 active torsions:
REMARK  status: ('A' for Active; 'I' for Inactive)
REMARK    1  A    between atoms: C_1  and  C_2
REMARK    2  A    between atoms: C_5  and  N_6
REMARK    3  A    between atoms: C_10  and  C_12
REMARK    4  A    between atoms: C_19  and  C_20
REMARK    5  A    between atoms: C_24  and  O_25
REMARK    6  A    between atoms: O_25  and  C_26
REMARK    7  A    between atoms: C_26  and  C_27
REMARK                            x       y       z     vdW  Elec       q    Type
REMARK                         _______ _______ _______ _____ _____    ______ ____
ROOT
ATOM      1  N   UNL     1       0.777  12.276  20.942  0.00  0.00    +0.000 N 
ATOM      2  N   UNL     1       0.094  12.898  21.933  0.00  0.00    +0.000 NA
ATOM      3  C   UNL     1      -0.896  12.079  22.261  0.00  0.00    +0.000 A 
ATOM      4  N   UNL     1      -1.950  12.402  23.100  0.00  0.00    +0.000 N 
ATOM      5  C   UNL     1      -2.170  13.667  23.617  0.00  0.00    +0.000 C 
ATOM      6  O   UNL     1      -1.511  14.677  23.385  0.00  0.00    +0.000 OA
ATOM      7  C   UNL     1      -0.711  10.818  21.655  0.00  0.00    +0.000 A 
ATOM      8  C   UNL     1       0.410  10.931  20.841  0.00  0.00    +0.000 A 
ATOM      9  H   UNL     1      -2.623  11.667  23.271  0.00  0.00    +0.000 HD
ENDROOT
BRANCH   1  14
ATOM     10  C   UNL     1       4.539  15.247  17.799  0.00  0.00    +0.000 C 
ATOM     11  C   UNL     1       3.560  14.472  18.630  0.00  0.00    +0.000 A 
ATOM     12  C   UNL     1       3.762  14.282  20.002  0.00  0.00    +0.000 A 
ATOM     13  C   UNL     1       2.826  13.580  20.767  0.00  0.00    +0.000 A 
ATOM     14  C   UNL     1       1.690  13.034  20.156  0.00  0.00    +0.000 A 
ATOM     15  C   UNL     1       1.469  13.252  18.792  0.00  0.00    +0.000 A 
ATOM     16  C   UNL     1       2.404  13.956  18.032  0.00  0.00    +0.000 A 
ENDBRANCH   1  14
BRANCH   5  17
ATOM     17  C   UNL     1      -3.374  13.795  24.549  0.00  0.00    +0.000 C 
ATOM     18  C   UNL     1      -4.299  14.935  24.174  0.00  0.00    +0.000 C 
ATOM     19  N   UNL     1      -5.329  14.301  23.408  0.00  0.00    +0.000 N 
ATOM     20  C   UNL     1      -5.433  12.955  23.689  0.00  0.00    +0.000 C 
ATOM     21  O   UNL     1      -6.329  12.235  23.296  0.00  0.00    +0.000 OA
ATOM     22  C   UNL     1      -4.264  12.552  24.555  0.00  0.00    +0.000 C 
ATOM     23  H   UNL     1      -6.131  14.779  23.004  0.00  0.00    +0.000 HD
ENDBRANCH   5  17
BRANCH   8  24
ATOM     24  C   UNL     1       1.070   9.904  20.015  0.00  0.00    +0.000 A 
ATOM     25  C   UNL     1       1.312  10.090  18.645  0.00  0.00    +0.000 A 
ATOM     26  C   UNL     1       1.760   9.035  17.848  0.00  0.00    +0.000 A 
ATOM     27  C   UNL     1       2.052   7.804  18.428  0.00  0.00    +0.000 A 
ATOM     28  C   UNL     1       1.929   7.634  19.806  0.00  0.00    +0.000 A 
ATOM     29  C   UNL     1       1.423   8.674  20.591  0.00  0.00    +0.000 A 
BRANCH  28  30
ATOM     30  O   UNL     1       2.252   6.392  20.277  0.00  0.00    +0.000 OA
BRANCH  30  31
ATOM     31  C   UNL     1       2.529   5.403  19.274  0.00  0.00    +0.000 C 
BRANCH  31  32
ATOM     32  C   UNL     1       1.623   4.185  19.429  0.00  0.00    +0.000 C 
ATOM     33  F   UNL     1       0.988   3.848  18.288  0.00  0.00    +0.000 F 
ATOM     34  F   UNL     1       2.331   3.106  19.838  0.00  0.00    +0.000 F 
ATOM     35  F   UNL     1       0.673   4.417  20.367  0.00  0.00    +0.000 F 
ENDBRANCH  31  32
ENDBRANCH  30  31
ENDBRANCH  28  30
ENDBRANCH   8  24
TORSDOF 6
ENDMDL
