MODEL 1
REMARK VINA RESULT:      -6.3      0.000      0.000
REMARK  Name = 
REMARK  8 active torsions:
REMARK  status: ('A' for Active; 'I' for Inactive)
REMARK    1  A    between atoms: C_1  and  C_2
REMARK    2  A    between atoms: C_2  and  O_3
REMARK    3  A    between atoms: O_3  and  C_4
REMARK    4  A    between atoms: C_4  and  C_6
REMARK    5  A    between atoms: C_6  and  N_7
REMARK    6  A    between atoms: C_8  and  C_9
REMARK    7  A    between atoms: C_14  and  O_15
REMARK    8  A    between atoms: O_15  and  C_16
REMARK                            x       y       z     vdW  Elec       q    Type
REMARK                         _______ _______ _______ _____ _____    ______ ____
ROOT
ATOM      1  N   UNL     1       5.647   5.568  17.001  0.00  0.00    +0.000 N 
ATOM      2  C   UNL     1       6.626   6.109  17.713  0.00  0.00    +0.000 A 
ATOM      3  C   UNL     1       7.630   7.123  17.293  0.00  0.00    +0.000 C 
ATOM      4  S   UNL     1       6.654   5.485  19.307  0.00  0.00    +0.000 S 
ATOM      5  C   UNL     1       5.281   4.495  19.014  0.00  0.00    +0.000 A 
ATOM      6  C   UNL     1       4.636   3.618  19.899  0.00  0.00    +0.000 A 
ATOM      7  C   UNL     1       3.524   2.911  19.439  0.00  0.00    +0.000 A 
ATOM      8  C   UNL     1       3.058   3.072  18.139  0.00  0.00    +0.000 A 
ATOM      9  C   UNL     1       3.710   3.957  17.260  0.00  0.00    +0.000 A 
ATOM     10  C   UNL     1       4.845   4.671  17.705  0.00  0.00    +0.000 A 
ENDROOT
BRANCH   8  11
ATOM     11  O   UNL     1       1.980   2.427  17.596  0.00  0.00    +0.000 OA
ATOM     12  C   UNL     1       0.870   2.184  18.458  0.00  0.00    +0.000 C 
ENDBRANCH   8  11
BRANCH   1  13
ATOM     13  C   UNL     1       5.392   5.913  15.596  0.00  0.00    +0.000 C 
BRANCH  13  14
ATOM     14  C   UNL     1       6.254   5.070  14.685  0.00  0.00    +0.000 C 
ATOM     15  O   UNL     1       7.440   5.280  14.476  0.00  0.00    +0.000 OA
BRANCH  14  16
ATOM     16  O   UNL     1       5.491   4.116  14.090  0.00  0.00    +0.000 OA
BRANCH  16  18
ATOM     17  C   UNL     1       4.866   3.370  11.916  0.00  0.00    +0.000 C 
ATOM     18  C   UNL     1       6.024   3.549  12.879  0.00  0.00    +0.000 C 
ENDBRANCH  16  18
ENDBRANCH  14  16
ENDBRANCH  13  14
ENDBRANCH   1  13
TORSDOF 5
ENDMDL
MODEL 2
REMARK VINA RESULT:      -6.2      2.649      3.760
REMARK  Name = 
REMARK  8 active torsions:
REMARK  status: ('A' for Active; 'I' for Inactive)
REMARK    1  A    between atoms: C_1  and  C_2
REMARK    2  A    between atoms: C_2  and  O_3
REMARK    3  A    between atoms: O_3  and  C_4
REMARK    4  A    between atoms: C_4  and  C_6
REMARK    5  A    between atoms: C_6  and  N_7
REMARK    6  A    between atoms: C_8  and  C_9
REMARK    7  A    between atoms: C_14  and  O_15
REMARK    8  A    between atoms: O_15  and  C_16
REMARK                            x       y       z     vdW  Elec       q    Type
REMARK                         _______ _______ _______ _____ _____    ______ ____
ROOT
ATOM      1  N   UNL     1       4.620   5.193  17.456  0.00  0.00    +0.000 N 
ATOM      2  C   UNL     1       4.493   6.355  16.830  0.00  0.00    +0.000 A 
ATOM      3  C   UNL     1       5.188   6.831  15.604  0.00  0.00    +0.000 C 
ATOM      4  S   UNL     1       3.363   7.369  17.622  0.00  0.00    +0.000 S 
ATOM      5  C   UNL     1       3.025   6.174  18.809  0.00  0.00    +0.000 A 
ATOM      6  C   UNL     1       2.133   6.250  19.890  0.00  0.00    +0.000 A 
ATOM      7  C   UNL     1       2.017   5.143  20.733  0.00  0.00    +0.000 A 
ATOM      8  C   UNL     1       2.760   3.989  20.508  0.00  0.00    +0.000 A 
ATOM      9  C   UNL     1       3.649   3.922  19.419  0.00  0.00    +0.000 A 
ATOM     10  C   UNL     1       3.789   5.038  18.564  0.00  0.00    +0.000 A 
ENDROOT
BRANCH   8  11
ATOM     11  O   UNL     1       2.718   2.855  21.275  0.00  0.00    +0.000 OA
ATOM     12  C   UNL     1       1.454   2.498  21.831  0.00  0.00    +0.000 C 
ENDBRANCH   8  11
BRANCH   1  13
ATOM     13  C   UNL     1       5.528   4.132  17.001  0.00  0.00    +0.000 C 
BRANCH  13  14
ATOM     14  C   UNL     1       6.955   4.469  17.371  0.00  0.00    +0.000 C 
ATOM     15  O   UNL     1       7.900   4.392  16.600  0.00  0.00    +0.000 OA
BRANCH  14  16
ATOM     16  O   UNL     1       7.020   4.783  18.691  0.00  0.00    +0.000 OA
BRANCH  16  18
ATOM     17  C   UNL     1       7.800   7.000  18.297  0.00  0.00    +0.000 C 
ATOM     18  C   UNL     1       8.050   5.716  19.065  0.00  0.00    +0.000 C 
ENDBRANCH  16  18
ENDBRANCH  14  16
ENDBRANCH  13  14
ENDBRANCH   1  13
TORSDOF 5
ENDMDL
MODEL 3
REMARK VINA RESULT:      -6.0      3.204      5.198
REMARK  Name = 
REMARK  8 active torsions:
REMARK  status: ('A' for Active; 'I' for Inactive)
REMARK    1  A    between atoms: C_1  and  C_2
REMARK    2  A    between atoms: C_2  and  O_3
REMARK    3  A    between atoms: O_3  and  C_4
REMARK    4  A    between atoms: C_4  and  C_6
REMARK    5  A    between atoms: C_6  and  N_7
REMARK    6  A    between atoms: C_8  and  C_9
REMARK    7  A    between atoms: C_14  and  O_15
REMARK    8  A    between atoms: O_15  and  C_16
REMARK                            x       y       z     vdW  Elec       q    Type
REMARK                         _______ _______ _______ _____ _____    ______ ____
ROOT
ATOM      1  N   UNL     1       4.765   4.977  18.240  0.00  0.00    +0.000 N 
ATOM      2  C   UNL     1       5.396   5.123  17.082  0.00  0.00    +0.000 A 
ATOM      3  C   UNL     1       6.398   4.224  16.450  0.00  0.00    +0.000 C 
ATOM      4  S   UNL     1       4.929   6.570  16.296  0.00  0.00    +0.000 S 
ATOM      5  C   UNL     1       3.823   6.971  17.548  0.00  0.00    +0.000 A 
ATOM      6  C   UNL     1       2.987   8.093  17.644  0.00  0.00    +0.000 A 
ATOM      7  C   UNL     1       2.159   8.209  18.762  0.00  0.00    +0.000 A 
ATOM      8  C   UNL     1       2.152   7.236  19.756  0.00  0.00    +0.000 A 
ATOM      9  C   UNL     1       2.992   6.111  19.647  0.00  0.00    +0.000 A 
ATOM     10  C   UNL     1       3.846   5.985  18.529  0.00  0.00    +0.000 A 
ENDROOT
BRANCH   8  11
ATOM     11  O   UNL     1       1.380   7.259  20.886  0.00  0.00    +0.000 OA
ATOM     12  C   UNL     1       0.863   8.525  21.289  0.00  0.00    +0.000 C 
ENDBRANCH   8  11
BRANCH   1  13
ATOM     13  C   UNL     1       4.978   3.829  19.129  0.00  0.00    +0.000 C 
BRANCH  13  14
ATOM     14  C   UNL     1       3.929   2.769  18.876  0.00  0.00    +0.000 C 
ATOM     15  O   UNL     1       3.754   2.222  17.798  0.00  0.00    +0.000 OA
BRANCH  14  16
ATOM     16  O   UNL     1       3.181   2.593  19.996  0.00  0.00    +0.000 OA
BRANCH  16  18
ATOM     17  C   UNL     1       0.910   3.314  20.029  0.00  0.00    +0.000 C 
ATOM     18  C   UNL     1       1.833   2.134  19.786  0.00  0.00    +0.000 C 
ENDBRANCH  16  18
ENDBRANCH  14  16
ENDBRANCH  13  14
ENDBRANCH   1  13
TORSDOF 5
ENDMDL
MODEL 4
REMARK VINA RESULT:      -5.9      1.933      5.759
REMARK  Name = 
REMARK  8 active torsions:
REMARK  status: ('A' for Active; 'I' for Inactive)
REMARK    1  A    between atoms: C_1  and  C_2
REMARK    2  A    between atoms: C_2  and  O_3
REMARK    3  A    between atoms: O_3  and  C_4
REMARK    4  A    between atoms: C_4  and  C_6
REMARK    5  A    between atoms: C_6  and  N_7
REMARK    6  A    between atoms: C_8  and  C_9
REMARK    7  A    between atoms: C_14  and  O_15
REMARK    8  A    between atoms: O_15  and  C_16
REMARK                            x       y       z     vdW  Elec       q    Type
REMARK                         _______ _______ _______ _____ _____    ______ ____
ROOT
ATOM      1  N   UNL     1       3.640   4.647  18.490  0.00  0.00    +0.000 N 
ATOM      2  C   UNL     1       3.081   5.705  19.064  0.00  0.00    +0.000 A 
ATOM      3  C   UNL     1       2.292   5.770  20.323  0.00  0.00    +0.000 C 
ATOM      4  S   UNL     1       3.360   7.127  18.153  0.00  0.00    +0.000 S 
ATOM      5  C   UNL     1       4.288   6.276  16.985  0.00  0.00    +0.000 A 
ATOM      6  C   UNL     1       4.917   6.781  15.837  0.00  0.00    +0.000 A 
ATOM      7  C   UNL     1       5.629   5.895  15.026  0.00  0.00    +0.000 A 
ATOM      8  C   UNL     1       5.722   4.545  15.347  0.00  0.00    +0.000 A 
ATOM      9  C   UNL     1       5.091   4.049  16.503  0.00  0.00    +0.000 A 
ATOM     10  C   UNL     1       4.355   4.929  17.328  0.00  0.00    +0.000 A 
ENDROOT
BRANCH   8  11
ATOM     11  O   UNL     1       6.394   3.600  14.620  0.00  0.00    +0.000 OA
ATOM     12  C   UNL     1       6.254   3.657  13.201  0.00  0.00    +0.000 C 
ENDBRANCH   8  11
BRANCH   1  13
ATOM     13  C   UNL     1       3.554   3.293  19.051  0.00  0.00    +0.000 C 
BRANCH  13  14
ATOM     14  C   UNL     1       2.345   2.572  18.499  0.00  0.00    +0.000 C 
ATOM     15  O   UNL     1       1.983   2.635  17.333  0.00  0.00    +0.000 OA
BRANCH  14  16
ATOM     16  O   UNL     1       1.700   1.929  19.505  0.00  0.00    +0.000 OA
BRANCH  16  18
ATOM     17  C   UNL     1       1.498   2.492  21.811  0.00  0.00    +0.000 C 
ATOM     18  C   UNL     1       0.965   2.765  20.418  0.00  0.00    +0.000 C 
ENDBRANCH  16  18
ENDBRANCH  14  16
ENDBRANCH  13  14
ENDBRANCH   1  13
TORSDOF 5
ENDMDL
MODEL 5
REMARK VINA RESULT:      -5.9      3.100      4.526
REMARK  Name = 
REMARK  8 active torsions:
REMARK  status: ('A' for Active; 'I' for Inactive)
REMARK    1  A    between atoms: C_1  and  C_2
REMARK    2  A    between atoms: C_2  and  O_3
REMARK    3  A    between atoms: O_3  and  C_4
REMARK    4  A    between atoms: C_4  and  C_6
REMARK    5  A    between atoms: C_6  and  N_7
REMARK    6  A    between atoms: C_8  and  C_9
REMARK    7  A    between atoms: C_14  and  O_15
REMARK    8  A    between atoms: O_15  and  C_16
REMARK                            x       y       z     vdW  Elec       q    Type
REMARK                         _______ _______ _______ _____ _____    ______ ____
ROOT
ATOM      1  N   UNL     1       4.618   5.045  17.733  0.00  0.00    +0.000 N 
ATOM      2  C   UNL     1       4.752   3.985  16.946  0.00  0.00    +0.000 A 
ATOM      3  C   UNL     1       5.834   3.682  15.972  0.00  0.00    +0.000 C 
ATOM      4  S   UNL     1       3.453   2.889  17.154  0.00  0.00    +0.000 S 
ATOM      5  C   UNL     1       2.730   3.871  18.363  0.00  0.00    +0.000 A 
ATOM      6  C   UNL     1       1.548   3.638  19.081  0.00  0.00    +0.000 A 
ATOM      7  C   UNL     1       1.151   4.582  20.030  0.00  0.00    +0.000 A 
ATOM      8  C   UNL     1       1.908   5.724  20.267  0.00  0.00    +0.000 A 
ATOM      9  C   UNL     1       3.095   5.947  19.544  0.00  0.00    +0.000 A 
ATOM     10  C   UNL     1       3.505   5.008  18.570  0.00  0.00    +0.000 A 
ENDROOT
BRANCH   8  11
ATOM     11  O   UNL     1       1.604   6.706  21.171  0.00  0.00    +0.000 OA
ATOM     12  C   UNL     1       1.540   8.042  20.677  0.00  0.00    +0.000 C 
ENDBRANCH   8  11
BRANCH   1  13
ATOM     13  C   UNL     1       5.585   6.151  17.759  0.00  0.00    +0.000 C 
BRANCH  13  14
ATOM     14  C   UNL     1       6.736   5.818  18.681  0.00  0.00    +0.000 C 
ATOM     15  O   UNL     1       6.719   4.910  19.499  0.00  0.00    +0.000 OA
BRANCH  14  16
ATOM     16  O   UNL     1       7.733   6.723  18.509  0.00  0.00    +0.000 OA
BRANCH  16  18
ATOM     17  C   UNL     1       8.164   8.988  17.909  0.00  0.00    +0.000 C 
ATOM     18  C   UNL     1       7.535   7.685  17.456  0.00  0.00    +0.000 C 
ENDBRANCH  16  18
ENDBRANCH  14  16
ENDBRANCH  13  14
ENDBRANCH   1  13
TORSDOF 5
ENDMDL
MODEL 6
REMARK VINA RESULT:      -5.8      1.881      5.366
REMARK  Name = 
REMARK  8 active torsions:
REMARK  status: ('A' for Active; 'I' for Inactive)
REMARK    1  A    between atoms: C_1  and  C_2
REMARK    2  A    between atoms: C_2  and  O_3
REMARK    3  A    between atoms: O_3  and  C_4
REMARK    4  A    between atoms: C_4  and  C_6
REMARK    5  A    between atoms: C_6  and  N_7
REMARK    6  A    between atoms: C_8  and  C_9
REMARK    7  A    between atoms: C_14  and  O_15
REMARK    8  A    between atoms: O_15  and  C_16
REMARK                            x       y       z     vdW  Elec       q    Type
REMARK                         _______ _______ _______ _____ _____    ______ ____
ROOT
ATOM      1  N   UNL     1       3.901   4.390  19.164  0.00  0.00    +0.000 N 
ATOM      2  C   UNL     1       3.120   5.268  19.780  0.00  0.00    +0.000 A 
ATOM      3  C   UNL     1       2.390   5.121  21.067  0.00  0.00    +0.000 C 
ATOM      4  S   UNL     1       3.000   6.726  18.889  0.00  0.00    +0.000 S 
ATOM      5  C   UNL     1       4.063   6.146  17.671  0.00  0.00    +0.000 A 
ATOM      6  C   UNL     1       4.501   6.805  16.512  0.00  0.00    +0.000 A 
ATOM      7  C   UNL     1       5.377   6.133  15.658  0.00  0.00    +0.000 A 
ATOM      8  C   UNL     1       5.816   4.846  15.947  0.00  0.00    +0.000 A 
ATOM      9  C   UNL     1       5.375   4.195  17.115  0.00  0.00    +0.000 A 
ATOM     10  C   UNL     1       4.476   4.854  17.983  0.00  0.00    +0.000 A 
ENDROOT
BRANCH   8  11
ATOM     11  O   UNL     1       6.672   4.106  15.176  0.00  0.00    +0.000 OA
ATOM     12  C   UNL     1       6.367   4.006  13.787  0.00  0.00    +0.000 C 
ENDBRANCH   8  11
BRANCH   1  13
ATOM     13  C   UNL     1       4.177   3.051  19.699  0.00  0.00    +0.000 C 
BRANCH  13  14
ATOM     14  C   UNL     1       3.271   2.030  19.049  0.00  0.00    +0.000 C 
ATOM     15  O   UNL     1       3.596   1.328  18.104  0.00  0.00    +0.000 OA
BRANCH  14  16
ATOM     16  O   UNL     1       2.041   2.082  19.624  0.00  0.00    +0.000 OA
BRANCH  16  18
ATOM     17  C   UNL     1       0.855   3.489  18.111  0.00  0.00    +0.000 C 
ATOM     18  C   UNL     1       0.923   2.100  18.718  0.00  0.00    +0.000 C 
ENDBRANCH  16  18
ENDBRANCH  14  16
ENDBRANCH  13  14
ENDBRANCH   1  13
TORSDOF 5
ENDMDL
MODEL 7
REMARK VINA RESULT:      -5.8      2.989      4.312
REMARK  Name = 
REMARK  8 active torsions:
REMARK  status: ('A' for Active; 'I' for Inactive)
REMARK    1  A    between atoms: C_1  and  C_2
REMARK    2  A    between atoms: C_2  and  O_3
REMARK    3  A    between atoms: O_3  and  C_4
REMARK    4  A    between atoms: C_4  and  C_6
REMARK    5  A    between atoms: C_6  and  N_7
REMARK    6  A    between atoms: C_8  and  C_9
REMARK    7  A    between atoms: C_14  and  O_15
REMARK    8  A    between atoms: O_15  and  C_16
REMARK                            x       y       z     vdW  Elec       q    Type
REMARK                         _______ _______ _______ _____ _____    ______ ____
ROOT
ATOM      1  N   UNL     1       4.464   5.252  16.994  0.00  0.00    +0.000 N 
ATOM      2  C   UNL     1       4.669   3.966  16.742  0.00  0.00    +0.000 A 
ATOM      3  C   UNL     1       5.545   3.350  15.711  0.00  0.00    +0.000 C 
ATOM      4  S   UNL     1       3.752   2.972  17.792  0.00  0.00    +0.000 S 
ATOM      5  C   UNL     1       3.103   4.331  18.619  0.00  0.00    +0.000 A 
ATOM      6  C   UNL     1       2.203   4.346  19.695  0.00  0.00    +0.000 A 
ATOM      7  C   UNL     1       1.813   5.581  20.216  0.00  0.00    +0.000 A 
ATOM      8  C   UNL     1       2.306   6.770  19.690  0.00  0.00    +0.000 A 
ATOM      9  C   UNL     1       3.212   6.744  18.614  0.00  0.00    +0.000 A 
ATOM     10  C   UNL     1       3.607   5.503  18.065  0.00  0.00    +0.000 A 
ENDROOT
BRANCH   8  11
ATOM     11  O   UNL     1       1.986   8.026  20.129  0.00  0.00    +0.000 OA
ATOM     12  C   UNL     1       1.108   8.115  21.250  0.00  0.00    +0.000 C 
ENDBRANCH   8  11
BRANCH   1  13
ATOM     13  C   UNL     1       5.116   6.331  16.241  0.00  0.00    +0.000 C 
BRANCH  13  14
ATOM     14  C   UNL     1       6.584   6.404  16.598  0.00  0.00    +0.000 C 
ATOM     15  O   UNL     1       7.490   6.100  15.837  0.00  0.00    +0.000 OA
BRANCH  14  16
ATOM     16  O   UNL     1       6.719   6.775  17.897  0.00  0.00    +0.000 OA
BRANCH  16  18
ATOM     17  C   UNL     1       8.066   8.740  17.929  0.00  0.00    +0.000 C 
ATOM     18  C   UNL     1       8.017   7.265  18.280  0.00  0.00    +0.000 C 
ENDBRANCH  16  18
ENDBRANCH  14  16
ENDBRANCH  13  14
ENDBRANCH   1  13
TORSDOF 5
ENDMDL
MODEL 8
REMARK VINA RESULT:      -5.8      3.444      6.268
REMARK  Name = 
REMARK  8 active torsions:
REMARK  status: ('A' for Active; 'I' for Inactive)
REMARK    1  A    between atoms: C_1  and  C_2
REMARK    2  A    between atoms: C_2  and  O_3
REMARK    3  A    between atoms: O_3  and  C_4
REMARK    4  A    between atoms: C_4  and  C_6
REMARK    5  A    between atoms: C_6  and  N_7
REMARK    6  A    between atoms: C_8  and  C_9
REMARK    7  A    between atoms: C_14  and  O_15
REMARK    8  A    between atoms: O_15  and  C_16
REMARK                            x       y       z     vdW  Elec       q    Type
REMARK                         _______ _______ _______ _____ _____    ______ ____
ROOT
ATOM      1  N   UNL     1       3.461   5.393  18.442  0.00  0.00    +0.000 N 
ATOM      2  C   UNL     1       2.600   4.393  18.307  0.00  0.00    +0.000 A 
ATOM      3  C   UNL     1       1.292   4.196  18.986  0.00  0.00    +0.000 C 
ATOM      4  S   UNL     1       3.168   3.229  17.187  0.00  0.00    +0.000 S 
ATOM      5  C   UNL     1       4.591   4.137  16.865  0.00  0.00    +0.000 A 
ATOM      6  C   UNL     1       5.640   3.828  15.987  0.00  0.00    +0.000 A 
ATOM      7  C   UNL     1       6.704   4.726  15.882  0.00  0.00    +0.000 A 
ATOM      8  C   UNL     1       6.725   5.903  16.621  0.00  0.00    +0.000 A 
ATOM      9  C   UNL     1       5.665   6.207  17.496  0.00  0.00    +0.000 A 
ATOM     10  C   UNL     1       4.587   5.303  17.625  0.00  0.00    +0.000 A 
ENDROOT
BRANCH   8  11
ATOM     11  O   UNL     1       7.719   6.844  16.589  0.00  0.00    +0.000 OA
ATOM     12  C   UNL     1       7.612   7.928  17.510  0.00  0.00    +0.000 C 
ENDBRANCH   8  11
BRANCH   1  13
ATOM     13  C   UNL     1       3.234   6.530  19.343  0.00  0.00    +0.000 C 
BRANCH  13  14
ATOM     14  C   UNL     1       2.493   7.632  18.619  0.00  0.00    +0.000 C 
ATOM     15  O   UNL     1       2.739   7.986  17.476  0.00  0.00    +0.000 OA
BRANCH  14  16
ATOM     16  O   UNL     1       1.590   8.200  19.459  0.00  0.00    +0.000 OA
BRANCH  16  18
ATOM     17  C   UNL     1       1.024   8.780  21.699  0.00  0.00    +0.000 C 
ATOM     18  C   UNL     1       1.569   7.684  20.802  0.00  0.00    +0.000 C 
ENDBRANCH  16  18
ENDBRANCH  14  16
ENDBRANCH  13  14
ENDBRANCH   1  13
TORSDOF 5
ENDMDL
MODEL 9
REMARK VINA RESULT:      -5.8      3.299      4.210
REMARK  Name = 
REMARK  8 active torsions:
REMARK  status: ('A' for Active; 'I' for Inactive)
REMARK    1  A    between atoms: C_1  and  C_2
REMARK    2  A    between atoms: C_2  and  O_3
REMARK    3  A    between atoms: O_3  and  C_4
REMARK    4  A    between atoms: C_4  and  C_6
REMARK    5  A    between atoms: C_6  and  N_7
REMARK    6  A    between atoms: C_8  and  C_9
REMARK    7  A    between atoms: C_14  and  O_15
REMARK    8  A    between atoms: O_15  and  C_16
REMARK                            x       y       z     vdW  Elec       q    Type
REMARK                         _______ _______ _______ _____ _____    ______ ____
ROOT
ATOM      1  N   UNL     1       3.415   3.983  18.045  0.00  0.00    +0.000 N 
ATOM      2  C   UNL     1       3.280   2.956  18.874  0.00  0.00    +0.000 A 
ATOM      3  C   UNL     1       3.677   1.538  18.670  0.00  0.00    +0.000 C 
ATOM      4  S   UNL     1       2.533   3.433  20.339  0.00  0.00    +0.000 S 
ATOM      5  C   UNL     1       2.436   5.072  19.832  0.00  0.00    +0.000 A 
ATOM      6  C   UNL     1       1.911   6.169  20.532  0.00  0.00    +0.000 A 
ATOM      7  C   UNL     1       1.942   7.423  19.918  0.00  0.00    +0.000 A 
ATOM      8  C   UNL     1       2.485   7.588  18.649  0.00  0.00    +0.000 A 
ATOM      9  C   UNL     1       3.013   6.481  17.957  0.00  0.00    +0.000 A 
ATOM     10  C   UNL     1       2.977   5.203  18.558  0.00  0.00    +0.000 A 
ENDROOT
BRANCH   8  11
ATOM     11  O   UNL     1       2.561   8.771  17.965  0.00  0.00    +0.000 OA
ATOM     12  C   UNL     1       1.550   9.740  18.236  0.00  0.00    +0.000 C 
ENDBRANCH   8  11
BRANCH   1  13
ATOM     13  C   UNL     1       4.019   3.862  16.712  0.00  0.00    +0.000 C 
BRANCH  13  14
ATOM     14  C   UNL     1       5.421   4.427  16.719  0.00  0.00    +0.000 C 
ATOM     15  O   UNL     1       6.224   4.257  17.625  0.00  0.00    +0.000 OA
BRANCH  14  16
ATOM     16  O   UNL     1       5.606   5.201  15.619  0.00  0.00    +0.000 OA
BRANCH  16  18
ATOM     17  C   UNL     1       6.147   3.923  13.683  0.00  0.00    +0.000 C 
ATOM     18  C   UNL     1       6.703   4.829  14.765  0.00  0.00    +0.000 C 
ENDBRANCH  16  18
ENDBRANCH  14  16
ENDBRANCH  13  14
ENDBRANCH   1  13
TORSDOF 5
ENDMDL
