MODEL 1
REMARK VINA RESULT:      -7.1      0.000      0.000
REMARK  Name = 
REMARK  2 active torsions:
REMARK  status: ('A' for Active; 'I' for Inactive)
REMARK    1  A    between atoms: C_1  and  C_2
REMARK    2  A    between atoms: C_13  and  C_15
REMARK                            x       y       z     vdW  Elec       q    Type
REMARK                         _______ _______ _______ _____ _____    ______ ____
ROOT
ATOM      1  C   UNL     1       3.466   6.050  19.899  0.00  0.00    +0.000 C 
ATOM      2  C   UNL     1       4.102   5.835  18.530  0.00  0.00    +0.000 C 
ATOM      3  C   UNL     1       3.545   6.882  17.562  0.00  0.00    +0.000 C 
ATOM      4  C   UNL     1       4.600   7.155  16.511  0.00  0.00    +0.000 C 
ATOM      5  C   UNL     1       5.207   5.882  15.983  0.00  0.00    +0.000 A 
ATOM      6  C   UNL     1       6.029   6.006  14.847  0.00  0.00    +0.000 A 
ATOM      7  C   UNL     1       6.620   4.888  14.295  0.00  0.00    +0.000 A 
ATOM      8  F   UNL     1       7.410   5.012  13.213  0.00  0.00    +0.000 F 
ATOM      9  C   UNL     1       6.435   3.643  14.865  0.00  0.00    +0.000 A 
ATOM     10  C   UNL     1       5.623   3.508  16.000  0.00  0.00    +0.000 A 
ATOM     11  C   UNL     1       4.986   4.615  16.591  0.00  0.00    +0.000 A 
ATOM     12  N   UNL     1       4.158   4.513  17.810  0.00  0.00    +0.000 N 
ATOM     13  C   UNL     1       3.582   3.256  18.152  0.00  0.00    +0.000 C 
ATOM     14  O   UNL     1       3.721   2.217  17.500  0.00  0.00    +0.000 OA
ENDROOT
BRANCH  13  15
ATOM     15  C   UNL     1       2.723   3.042  19.338  0.00  0.00    +0.000 A 
ATOM     16  C   UNL     1       1.340   3.112  19.274  0.00  0.00    +0.000 A 
ATOM     17  C   UNL     1       0.631   3.030  20.460  0.00  0.00    +0.000 A 
ATOM     18  N   UNL     1       1.189   2.715  21.647  0.00  0.00    +0.000 NA
ATOM     19  C   UNL     1       2.512   2.453  21.645  0.00  0.00    +0.000 A 
ATOM     20  C   UNL     1       3.317   2.616  20.532  0.00  0.00    +0.000 A 
ENDBRANCH  13  15
TORSDOF 1
ENDMDL
MODEL 2
REMARK VINA RESULT:      -6.8      0.114      1.054
REMARK  Name = 
REMARK  2 active torsions:
REMARK  status: ('A' for Active; 'I' for Inactive)
REMARK    1  A    between atoms: C_1  and  C_2
REMARK    2  A    between atoms: C_13  and  C_15
REMARK                            x       y       z     vdW  Elec       q    Type
REMARK                         _______ _______ _______ _____ _____    ______ ____
ROOT
ATOM      1  C   UNL     1       3.582   6.055  19.862  0.00  0.00    +0.000 C 
ATOM      2  C   UNL     1       4.184   5.822  18.480  0.00  0.00    +0.000 C 
ATOM      3  C   UNL     1       3.614   6.864  17.515  0.00  0.00    +0.000 C 
ATOM      4  C   UNL     1       4.647   7.118  16.438  0.00  0.00    +0.000 C 
ATOM      5  C   UNL     1       5.231   5.835  15.908  0.00  0.00    +0.000 A 
ATOM      6  C   UNL     1       6.028   5.941  14.753  0.00  0.00    +0.000 A 
ATOM      7  C   UNL     1       6.597   4.813  14.199  0.00  0.00    +0.000 A 
ATOM      8  F   UNL     1       7.362   4.920  13.098  0.00  0.00    +0.000 F 
ATOM      9  C   UNL     1       6.414   3.576  14.784  0.00  0.00    +0.000 A 
ATOM     10  C   UNL     1       5.628   3.457  15.939  0.00  0.00    +0.000 A 
ATOM     11  C   UNL     1       5.014   4.576  16.534  0.00  0.00    +0.000 A 
ATOM     12  N   UNL     1       4.212   4.492  17.772  0.00  0.00    +0.000 N 
ATOM     13  C   UNL     1       3.634   3.244  18.139  0.00  0.00    +0.000 C 
ATOM     14  O   UNL     1       3.750   2.197  17.495  0.00  0.00    +0.000 OA
ENDROOT
BRANCH  13  15
ATOM     15  C   UNL     1       2.801   3.048  19.347  0.00  0.00    +0.000 A 
ATOM     16  C   UNL     1       3.345   2.714  20.577  0.00  0.00    +0.000 A 
ATOM     17  C   UNL     1       2.475   2.422  21.612  0.00  0.00    +0.000 A 
ATOM     18  N   UNL     1       1.141   2.608  21.547  0.00  0.00    +0.000 NA
ATOM     19  C   UNL     1       0.657   3.127  20.400  0.00  0.00    +0.000 A 
ATOM     20  C   UNL     1       1.435   3.348  19.279  0.00  0.00    +0.000 A 
ENDBRANCH  13  15
TORSDOF 1
ENDMDL
MODEL 3
REMARK VINA RESULT:      -6.8      1.509      1.685
REMARK  Name = 
REMARK  2 active torsions:
REMARK  status: ('A' for Active; 'I' for Inactive)
REMARK    1  A    between atoms: C_1  and  C_2
REMARK    2  A    between atoms: C_13  and  C_15
REMARK                            x       y       z     vdW  Elec       q    Type
REMARK                         _______ _______ _______ _____ _____    ______ ____
ROOT
ATOM      1  C   UNL     1       5.435   4.706  19.741  0.00  0.00    +0.000 C 
ATOM      2  C   UNL     1       5.721   4.784  18.245  0.00  0.00    +0.000 C 
ATOM      3  C   UNL     1       6.183   6.204  17.908  0.00  0.00    +0.000 C 
ATOM      4  C   UNL     1       7.103   6.123  16.708  0.00  0.00    +0.000 C 
ATOM      5  C   UNL     1       6.542   5.234  15.631  0.00  0.00    +0.000 A 
ATOM      6  C   UNL     1       7.200   5.268  14.387  0.00  0.00    +0.000 A 
ATOM      7  C   UNL     1       6.747   4.487  13.343  0.00  0.00    +0.000 A 
ATOM      8  F   UNL     1       7.383   4.519  12.158  0.00  0.00    +0.000 F 
ATOM      9  C   UNL     1       5.665   3.647  13.514  0.00  0.00    +0.000 A 
ATOM     10  C   UNL     1       5.005   3.599  14.750  0.00  0.00    +0.000 A 
ATOM     11  C   UNL     1       5.419   4.387  15.841  0.00  0.00    +0.000 A 
ATOM     12  N   UNL     1       4.770   4.331  17.167  0.00  0.00    +0.000 N 
ATOM     13  C   UNL     1       3.432   3.856  17.264  0.00  0.00    +0.000 C 
ATOM     14  O   UNL     1       2.749   3.474  16.309  0.00  0.00    +0.000 OA
ENDROOT
BRANCH  13  15
ATOM     15  C   UNL     1       2.680   3.772  18.536  0.00  0.00    +0.000 A 
ATOM     16  C   UNL     1       2.037   4.868  19.090  0.00  0.00    +0.000 A 
ATOM     17  C   UNL     1       1.474   4.723  20.346  0.00  0.00    +0.000 A 
ATOM     18  N   UNL     1       1.364   3.541  20.987  0.00  0.00    +0.000 NA
ATOM     19  C   UNL     1       1.820   2.452  20.334  0.00  0.00    +0.000 A 
ATOM     20  C   UNL     1       2.492   2.516  19.127  0.00  0.00    +0.000 A 
ENDBRANCH  13  15
TORSDOF 1
ENDMDL
MODEL 4
REMARK VINA RESULT:      -6.7      1.509      1.833
REMARK  Name = 
REMARK  2 active torsions:
REMARK  status: ('A' for Active; 'I' for Inactive)
REMARK    1  A    between atoms: C_1  and  C_2
REMARK    2  A    between atoms: C_13  and  C_15
REMARK                            x       y       z     vdW  Elec       q    Type
REMARK                         _______ _______ _______ _____ _____    ______ ____
ROOT
ATOM      1  C   UNL     1       5.444   4.670  19.722  0.00  0.00    +0.000 C 
ATOM      2  C   UNL     1       5.741   4.760  18.229  0.00  0.00    +0.000 C 
ATOM      3  C   UNL     1       6.193   6.187  17.905  0.00  0.00    +0.000 C 
ATOM      4  C   UNL     1       7.124   6.122  16.713  0.00  0.00    +0.000 C 
ATOM      5  C   UNL     1       6.581   5.234  15.625  0.00  0.00    +0.000 A 
ATOM      6  C   UNL     1       7.249   5.282  14.387  0.00  0.00    +0.000 A 
ATOM      7  C   UNL     1       6.812   4.504  13.334  0.00  0.00    +0.000 A 
ATOM      8  F   UNL     1       7.458   4.549  12.155  0.00  0.00    +0.000 F 
ATOM      9  C   UNL     1       5.736   3.652  13.491  0.00  0.00    +0.000 A 
ATOM     10  C   UNL     1       5.066   3.591  14.721  0.00  0.00    +0.000 A 
ATOM     11  C   UNL     1       5.463   4.376  15.820  0.00  0.00    +0.000 A 
ATOM     12  N   UNL     1       4.804   4.306  17.140  0.00  0.00    +0.000 N 
ATOM     13  C   UNL     1       3.469   3.817  17.223  0.00  0.00    +0.000 C 
ATOM     14  O   UNL     1       2.798   3.436  16.259  0.00  0.00    +0.000 OA
ENDROOT
BRANCH  13  15
ATOM     15  C   UNL     1       2.707   3.719  18.488  0.00  0.00    +0.000 A 
ATOM     16  C   UNL     1       2.663   2.555  19.238  0.00  0.00    +0.000 A 
ATOM     17  C   UNL     1       1.817   2.521  20.333  0.00  0.00    +0.000 A 
ATOM     18  N   UNL     1       1.167   3.601  20.813  0.00  0.00    +0.000 NA
ATOM     19  C   UNL     1       1.387   4.772  20.181  0.00  0.00    +0.000 A 
ATOM     20  C   UNL     1       2.128   4.879  19.018  0.00  0.00    +0.000 A 
ENDBRANCH  13  15
TORSDOF 1
ENDMDL
MODEL 5
REMARK VINA RESULT:      -6.5      3.280      6.342
REMARK  Name = 
REMARK  2 active torsions:
REMARK  status: ('A' for Active; 'I' for Inactive)
REMARK    1  A    between atoms: C_1  and  C_2
REMARK    2  A    between atoms: C_13  and  C_15
REMARK                            x       y       z     vdW  Elec       q    Type
REMARK                         _______ _______ _______ _____ _____    ______ ____
ROOT
ATOM      1  C   UNL     1       3.574   6.943  17.258  0.00  0.00    +0.000 C 
ATOM      2  C   UNL     1       3.098   6.048  18.396  0.00  0.00    +0.000 C 
ATOM      3  C   UNL     1       2.645   6.935  19.559  0.00  0.00    +0.000 C 
ATOM      4  C   UNL     1       1.573   6.188  20.325  0.00  0.00    +0.000 C 
ATOM      5  C   UNL     1       1.956   4.754  20.572  0.00  0.00    +0.000 A 
ATOM      6  C   UNL     1       1.143   4.034  21.467  0.00  0.00    +0.000 A 
ATOM      7  C   UNL     1       1.427   2.714  21.753  0.00  0.00    +0.000 A 
ATOM      8  F   UNL     1       0.643   2.029  22.604  0.00  0.00    +0.000 F 
ATOM      9  C   UNL     1       2.493   2.079  21.146  0.00  0.00    +0.000 A 
ATOM     10  C   UNL     1       3.308   2.784  20.249  0.00  0.00    +0.000 A 
ATOM     11  C   UNL     1       3.068   4.135  19.935  0.00  0.00    +0.000 A 
ATOM     12  N   UNL     1       3.882   4.894  18.964  0.00  0.00    +0.000 N 
ATOM     13  C   UNL     1       5.205   4.453  18.675  0.00  0.00    +0.000 C 
ATOM     14  O   UNL     1       5.743   3.462  19.179  0.00  0.00    +0.000 OA
ENDROOT
BRANCH  13  15
ATOM     15  C   UNL     1       6.114   5.144  17.733  0.00  0.00    +0.000 A 
ATOM     16  C   UNL     1       6.888   6.229  18.112  0.00  0.00    +0.000 A 
ATOM     17  C   UNL     1       7.604   6.890  17.129  0.00  0.00    +0.000 A 
ATOM     18  N   UNL     1       7.730   6.441  15.864  0.00  0.00    +0.000 NA
ATOM     19  C   UNL     1       7.129   5.270  15.572  0.00  0.00    +0.000 A 
ATOM     20  C   UNL     1       6.306   4.598  16.458  0.00  0.00    +0.000 A 
ENDBRANCH  13  15
TORSDOF 1
ENDMDL
MODEL 6
REMARK VINA RESULT:      -6.3      2.966      6.183
REMARK  Name = 
REMARK  2 active torsions:
REMARK  status: ('A' for Active; 'I' for Inactive)
REMARK    1  A    between atoms: C_1  and  C_2
REMARK    2  A    between atoms: C_13  and  C_15
REMARK                            x       y       z     vdW  Elec       q    Type
REMARK                         _______ _______ _______ _____ _____    ______ ____
ROOT
ATOM      1  C   UNL     1       4.267   6.965  16.536  0.00  0.00    +0.000 C 
ATOM      2  C   UNL     1       3.646   6.099  17.626  0.00  0.00    +0.000 C 
ATOM      3  C   UNL     1       3.874   6.777  18.979  0.00  0.00    +0.000 C 
ATOM      4  C   UNL     1       2.738   6.380  19.898  0.00  0.00    +0.000 C 
ATOM      5  C   UNL     1       2.451   4.904  19.829  0.00  0.00    +0.000 A 
ATOM      6  C   UNL     1       1.575   4.391  20.804  0.00  0.00    +0.000 A 
ATOM      7  C   UNL     1       1.263   3.047  20.816  0.00  0.00    +0.000 A 
ATOM      8  F   UNL     1       0.419   2.563  21.746  0.00  0.00    +0.000 F 
ATOM      9  C   UNL     1       1.783   2.198  19.860  0.00  0.00    +0.000 A 
ATOM     10  C   UNL     1       2.654   2.697  18.880  0.00  0.00    +0.000 A 
ATOM     11  C   UNL     1       3.014   4.057  18.834  0.00  0.00    +0.000 A 
ATOM     12  N   UNL     1       3.896   4.622  17.793  0.00  0.00    +0.000 N 
ATOM     13  C   UNL     1       4.787   3.758  17.095  0.00  0.00    +0.000 C 
ATOM     14  O   UNL     1       4.887   2.543  17.291  0.00  0.00    +0.000 OA
ENDROOT
BRANCH  13  15
ATOM     15  C   UNL     1       5.725   4.217  16.046  0.00  0.00    +0.000 A 
ATOM     16  C   UNL     1       6.945   4.800  16.347  0.00  0.00    +0.000 A 
ATOM     17  C   UNL     1       7.692   5.317  15.303  0.00  0.00    +0.000 A 
ATOM     18  N   UNL     1       7.387   5.137  14.002  0.00  0.00    +0.000 NA
ATOM     19  C   UNL     1       6.297   4.389  13.732  0.00  0.00    +0.000 A 
ATOM     20  C   UNL     1       5.434   3.925  14.708  0.00  0.00    +0.000 A 
ENDBRANCH  13  15
TORSDOF 1
ENDMDL
MODEL 7
REMARK VINA RESULT:      -6.2      3.286      6.318
REMARK  Name = 
REMARK  2 active torsions:
REMARK  status: ('A' for Active; 'I' for Inactive)
REMARK    1  A    between atoms: C_1  and  C_2
REMARK    2  A    between atoms: C_13  and  C_15
REMARK                            x       y       z     vdW  Elec       q    Type
REMARK                         _______ _______ _______ _____ _____    ______ ____
ROOT
ATOM      1  C   UNL     1       3.483   6.996  17.330  0.00  0.00    +0.000 C 
ATOM      2  C   UNL     1       3.047   6.070  18.459  0.00  0.00    +0.000 C 
ATOM      3  C   UNL     1       2.596   6.924  19.647  0.00  0.00    +0.000 C 
ATOM      4  C   UNL     1       1.555   6.140  20.418  0.00  0.00    +0.000 C 
ATOM      5  C   UNL     1       1.974   4.710  20.630  0.00  0.00    +0.000 A 
ATOM      6  C   UNL     1       1.193   3.956  21.526  0.00  0.00    +0.000 A 
ATOM      7  C   UNL     1       1.511   2.638  21.782  0.00  0.00    +0.000 A 
ATOM      8  F   UNL     1       0.758   1.920  22.634  0.00  0.00    +0.000 F 
ATOM      9  C   UNL     1       2.579   2.038  21.144  0.00  0.00    +0.000 A 
ATOM     10  C   UNL     1       3.362   2.777  20.246  0.00  0.00    +0.000 A 
ATOM     11  C   UNL     1       3.087   4.128  19.962  0.00  0.00    +0.000 A 
ATOM     12  N   UNL     1       3.867   4.923  18.991  0.00  0.00    +0.000 N 
ATOM     13  C   UNL     1       5.193   4.516  18.670  0.00  0.00    +0.000 C 
ATOM     14  O   UNL     1       5.762   3.528  19.145  0.00  0.00    +0.000 OA
ENDROOT
BRANCH  13  15
ATOM     15  C   UNL     1       6.070   5.244  17.725  0.00  0.00    +0.000 A 
ATOM     16  C   UNL     1       6.142   4.919  16.380  0.00  0.00    +0.000 A 
ATOM     17  C   UNL     1       7.087   5.568  15.606  0.00  0.00    +0.000 A 
ATOM     18  N   UNL     1       7.821   6.614  16.038  0.00  0.00    +0.000 NA
ATOM     19  C   UNL     1       7.586   7.042  17.296  0.00  0.00    +0.000 A 
ATOM     20  C   UNL     1       6.740   6.389  18.174  0.00  0.00    +0.000 A 
ENDBRANCH  13  15
TORSDOF 1
ENDMDL
MODEL 8
REMARK VINA RESULT:      -6.2      3.634      6.578
REMARK  Name = 
REMARK  2 active torsions:
REMARK  status: ('A' for Active; 'I' for Inactive)
REMARK    1  A    between atoms: C_1  and  C_2
REMARK    2  A    between atoms: C_13  and  C_15
REMARK                            x       y       z     vdW  Elec       q    Type
REMARK                         _______ _______ _______ _____ _____    ______ ____
ROOT
ATOM      1  C   UNL     1       5.142   3.975  19.313  0.00  0.00    +0.000 C 
ATOM      2  C   UNL     1       3.976   4.900  19.645  0.00  0.00    +0.000 C 
ATOM      3  C   UNL     1       2.734   4.045  19.911  0.00  0.00    +0.000 C 
ATOM      4  C   UNL     1       1.849   4.798  20.881  0.00  0.00    +0.000 C 
ATOM      5  C   UNL     1       1.703   6.247  20.499  0.00  0.00    +0.000 A 
ATOM      6  C   UNL     1       0.725   6.982  21.196  0.00  0.00    +0.000 A 
ATOM      7  C   UNL     1       0.523   8.315  20.903  0.00  0.00    +0.000 A 
ATOM      8  F   UNL     1      -0.408   9.015  21.576  0.00  0.00    +0.000 F 
ATOM      9  C   UNL     1       1.293   8.948  19.947  0.00  0.00    +0.000 A 
ATOM     10  C   UNL     1       2.274   8.228  19.251  0.00  0.00    +0.000 A 
ATOM     11  C   UNL     1       2.509   6.863  19.502  0.00  0.00    +0.000 A 
ATOM     12  N   UNL     1       3.561   6.086  18.815  0.00  0.00    +0.000 N 
ATOM     13  C   UNL     1       4.047   6.541  17.556  0.00  0.00    +0.000 C 
ATOM     14  O   UNL     1       3.654   7.557  16.975  0.00  0.00    +0.000 OA
ENDROOT
BRANCH  13  15
ATOM     15  C   UNL     1       5.085   5.835  16.772  0.00  0.00    +0.000 A 
ATOM     16  C   UNL     1       4.778   4.818  15.882  0.00  0.00    +0.000 A 
ATOM     17  C   UNL     1       5.826   4.130  15.297  0.00  0.00    +0.000 A 
ATOM     18  N   UNL     1       7.119   4.497  15.407  0.00  0.00    +0.000 NA
ATOM     19  C   UNL     1       7.373   5.615  16.118  0.00  0.00    +0.000 A 
ATOM     20  C   UNL     1       6.404   6.303  16.824  0.00  0.00    +0.000 A 
ENDBRANCH  13  15
TORSDOF 1
ENDMDL
MODEL 9
REMARK VINA RESULT:      -6.2      2.979      6.117
REMARK  Name = 
REMARK  2 active torsions:
REMARK  status: ('A' for Active; 'I' for Inactive)
REMARK    1  A    between atoms: C_1  and  C_2
REMARK    2  A    between atoms: C_13  and  C_15
REMARK                            x       y       z     vdW  Elec       q    Type
REMARK                         _______ _______ _______ _____ _____    ______ ____
ROOT
ATOM      1  C   UNL     1       4.146   6.953  16.605  0.00  0.00    +0.000 C 
ATOM      2  C   UNL     1       3.562   6.074  17.706  0.00  0.00    +0.000 C 
ATOM      3  C   UNL     1       3.808   6.752  19.056  0.00  0.00    +0.000 C 
ATOM      4  C   UNL     1       2.697   6.335  19.997  0.00  0.00    +0.000 C 
ATOM      5  C   UNL     1       2.433   4.854  19.930  0.00  0.00    +0.000 A 
ATOM      6  C   UNL     1       1.585   4.325  20.921  0.00  0.00    +0.000 A 
ATOM      7  C   UNL     1       1.295   2.976  20.935  0.00  0.00    +0.000 A 
ATOM      8  F   UNL     1       0.479   2.476  21.881  0.00  0.00    +0.000 F 
ATOM      9  C   UNL     1       1.809   2.138  19.966  0.00  0.00    +0.000 A 
ATOM     10  C   UNL     1       2.650   2.653  18.970  0.00  0.00    +0.000 A 
ATOM     11  C   UNL     1       2.988   4.019  18.921  0.00  0.00    +0.000 A 
ATOM     12  N   UNL     1       3.839   4.601  17.862  0.00  0.00    +0.000 N 
ATOM     13  C   UNL     1       4.728   3.753  17.144  0.00  0.00    +0.000 C 
ATOM     14  O   UNL     1       4.852   2.539  17.334  0.00  0.00    +0.000 OA
ENDROOT
BRANCH  13  15
ATOM     15  C   UNL     1       5.637   4.230  16.077  0.00  0.00    +0.000 A 
ATOM     16  C   UNL     1       5.301   4.166  14.734  0.00  0.00    +0.000 A 
ATOM     17  C   UNL     1       6.268   4.512  13.807  0.00  0.00    +0.000 A 
ATOM     18  N   UNL     1       7.453   5.068  14.131  0.00  0.00    +0.000 NA
ATOM     19  C   UNL     1       7.674   5.307  15.440  0.00  0.00    +0.000 A 
ATOM     20  C   UNL     1       6.813   4.898  16.442  0.00  0.00    +0.000 A 
ENDBRANCH  13  15
TORSDOF 1
ENDMDL
