MODEL 1
REMARK VINA RESULT:      -7.6      0.000      0.000
REMARK  Name = 
REMARK  4 active torsions:
REMARK  status: ('A' for Active; 'I' for Inactive)
REMARK    1  A    between atoms: C_1  and  C_2
REMARK    2  A    between atoms: C_2  and  C_3
REMARK    3  A    between atoms: C_2  and  C_4
REMARK    4  A    between atoms: N_13  and  C_14
REMARK                            x       y       z     vdW  Elec       q    Type
REMARK                         _______ _______ _______ _____ _____    ______ ____
ROOT
ATOM      1  C   UNL     1      -1.838  12.352  21.874  0.00  0.00    +0.000 C 
ATOM      2  O   UNL     1      -1.450  12.403  23.044  0.00  0.00    +0.000 OA
ATOM      3  N   UNL     1      -1.322  11.412  20.982  0.00  0.00    +0.000 N 
ATOM      4  C   UNL     1      -1.565  11.400  19.541  0.00  0.00    +0.000 C 
ATOM      5  C   UNL     1      -0.616  12.304  18.760  0.00  0.00    +0.000 C 
ATOM      6  C   UNL     1       0.885  12.029  18.904  0.00  0.00    +0.000 C 
ATOM      7  N   UNL     1       1.245  10.748  19.509  0.00  0.00    +0.000 N 
ATOM      8  C   UNL     1       1.520   9.688  18.655  0.00  0.00    +0.000 C 
ATOM      9  O   UNL     1       1.457   9.799  17.433  0.00  0.00    +0.000 OA
ATOM     10  N   UNL     1       1.846   8.495  19.248  0.00  0.00    +0.000 N 
ATOM     11  C   UNL     1       1.104  10.695  20.976  0.00  0.00    +0.000 C 
ATOM     12  C   UNL     1      -0.333  10.433  21.458  0.00  0.00    +0.000 C 
ATOM     13  H   UNL     1       2.283   8.550  20.152  0.00  0.00    +0.000 HD
ENDROOT
BRANCH  10  14
ATOM     14  C   UNL     1       2.226   7.323  18.440  0.00  0.00    +0.000 C 
ATOM     15  C   UNL     1       2.353   6.085  19.330  0.00  0.00    +0.000 C 
ATOM     16  C   UNL     1       2.619   4.838  18.486  0.00  0.00    +0.000 C 
ATOM     17  C   UNL     1       3.741   5.021  17.497  0.00  0.00    +0.000 A 
ATOM     18  C   UNL     1       4.346   3.885  16.932  0.00  0.00    +0.000 A 
ATOM     19  C   UNL     1       5.368   4.013  15.993  0.00  0.00    +0.000 A 
ATOM     20  C   UNL     1       5.792   5.282  15.603  0.00  0.00    +0.000 A 
ATOM     21  C   UNL     1       5.190   6.415  16.145  0.00  0.00    +0.000 A 
ATOM     22  C   UNL     1       4.151   6.301  17.084  0.00  0.00    +0.000 A 
ATOM     23  C   UNL     1       3.549   7.556  17.679  0.00  0.00    +0.000 C 
ENDBRANCH  10  14
BRANCH   1  25
ATOM     24  C   UNL     1      -4.330  12.710  21.760  0.00  0.00    +0.000 C 
ATOM     25  C   UNL     1      -2.962  13.285  21.387  0.00  0.00    +0.000 C 
ATOM     26  C   UNL     1      -2.831  14.692  21.980  0.00  0.00    +0.000 C 
ENDBRANCH   1  25
TORSDOF 2
ENDMDL
MODEL 2
REMARK VINA RESULT:      -7.2      1.349      1.615
REMARK  Name = 
REMARK  4 active torsions:
REMARK  status: ('A' for Active; 'I' for Inactive)
REMARK    1  A    between atoms: C_1  and  C_2
REMARK    2  A    between atoms: C_2  and  C_3
REMARK    3  A    between atoms: C_2  and  C_4
REMARK    4  A    between atoms: N_13  and  C_14
REMARK                            x       y       z     vdW  Elec       q    Type
REMARK                         _______ _______ _______ _____ _____    ______ ____
ROOT
ATOM      1  C   UNL     1      -0.413  13.808  22.173  0.00  0.00    +0.000 C 
ATOM      2  O   UNL     1       0.546  14.536  22.440  0.00  0.00    +0.000 OA
ATOM      3  N   UNL     1      -0.236  12.591  21.515  0.00  0.00    +0.000 N 
ATOM      4  C   UNL     1      -1.313  11.761  20.980  0.00  0.00    +0.000 C 
ATOM      5  C   UNL     1      -1.759  12.175  19.582  0.00  0.00    +0.000 C 
ATOM      6  C   UNL     1      -0.690  12.182  18.482  0.00  0.00    +0.000 C 
ATOM      7  N   UNL     1       0.559  11.494  18.801  0.00  0.00    +0.000 N 
ATOM      8  C   UNL     1       0.688  10.173  18.389  0.00  0.00    +0.000 C 
ATOM      9  O   UNL     1      -0.207   9.584  17.789  0.00  0.00    +0.000 OA
ATOM     10  N   UNL     1       1.867   9.547  18.709  0.00  0.00    +0.000 N 
ATOM     11  C   UNL     1       1.473  12.245  19.681  0.00  0.00    +0.000 C 
ATOM     12  C   UNL     1       1.125  12.146  21.176  0.00  0.00    +0.000 C 
ATOM     13  H   UNL     1       2.676  10.137  18.798  0.00  0.00    +0.000 HD
ENDROOT
BRANCH  10  14
ATOM     14  C   UNL     1       2.142   8.171  18.262  0.00  0.00    +0.000 C 
ATOM     15  C   UNL     1       2.229   7.230  19.465  0.00  0.00    +0.000 C 
ATOM     16  C   UNL     1       2.384   5.780  19.007  0.00  0.00    +0.000 C 
ATOM     17  C   UNL     1       3.474   5.596  17.984  0.00  0.00    +0.000 A 
ATOM     18  C   UNL     1       3.985   4.306  17.754  0.00  0.00    +0.000 A 
ATOM     19  C   UNL     1       4.974   4.092  16.796  0.00  0.00    +0.000 A 
ATOM     20  C   UNL     1       5.459   5.164  16.050  0.00  0.00    +0.000 A 
ATOM     21  C   UNL     1       4.949   6.444  16.259  0.00  0.00    +0.000 A 
ATOM     22  C   UNL     1       3.944   6.674  17.214  0.00  0.00    +0.000 A 
ATOM     23  C   UNL     1       3.444   8.085  17.437  0.00  0.00    +0.000 C 
ENDBRANCH  10  14
BRANCH   1  25
ATOM     24  C   UNL     1      -1.847  14.495  24.129  0.00  0.00    +0.000 C 
ATOM     25  C   UNL     1      -1.832  14.194  22.629  0.00  0.00    +0.000 C 
ATOM     26  C   UNL     1      -2.361  15.415  21.867  0.00  0.00    +0.000 C 
ENDBRANCH   1  25
TORSDOF 2
ENDMDL
MODEL 3
REMARK VINA RESULT:      -7.2      2.573      5.000
REMARK  Name = 
REMARK  4 active torsions:
REMARK  status: ('A' for Active; 'I' for Inactive)
REMARK    1  A    between atoms: C_1  and  C_2
REMARK    2  A    between atoms: C_2  and  C_3
REMARK    3  A    between atoms: C_2  and  C_4
REMARK    4  A    between atoms: N_13  and  C_14
REMARK                            x       y       z     vdW  Elec       q    Type
REMARK                         _______ _______ _______ _____ _____    ______ ____
ROOT
ATOM      1  C   UNL     1      -5.412  14.741  23.228  0.00  0.00    +0.000 C 
ATOM      2  O   UNL     1      -6.200  13.968  23.779  0.00  0.00    +0.000 OA
ATOM      3  N   UNL     1      -4.273  14.267  22.577  0.00  0.00    +0.000 N 
ATOM      4  C   UNL     1      -3.184  15.103  22.074  0.00  0.00    +0.000 C 
ATOM      5  C   UNL     1      -2.142  15.442  23.134  0.00  0.00    +0.000 C 
ATOM      6  C   UNL     1      -1.442  14.266  23.825  0.00  0.00    +0.000 C 
ATOM      7  N   UNL     1      -1.603  12.962  23.185  0.00  0.00    +0.000 N 
ATOM      8  C   UNL     1      -0.607  12.546  22.311  0.00  0.00    +0.000 C 
ATOM      9  O   UNL     1       0.375  13.241  22.061  0.00  0.00    +0.000 OA
ATOM     10  N   UNL     1      -0.787  11.323  21.717  0.00  0.00    +0.000 N 
ATOM     11  C   UNL     1      -2.906  12.313  23.422  0.00  0.00    +0.000 C 
ATOM     12  C   UNL     1      -4.033  12.817  22.505  0.00  0.00    +0.000 C 
ATOM     13  H   UNL     1      -1.327  10.650  22.235  0.00  0.00    +0.000 HD
ENDROOT
BRANCH  10  14
ATOM     14  C   UNL     1       0.239  10.751  20.827  0.00  0.00    +0.000 C 
ATOM     15  C   UNL     1      -0.202  10.868  19.367  0.00  0.00    +0.000 C 
ATOM     16  C   UNL     1       0.909  10.398  18.429  0.00  0.00    +0.000 C 
ATOM     17  C   UNL     1       1.477   9.056  18.809  0.00  0.00    +0.000 A 
ATOM     18  C   UNL     1       2.214   8.331  17.856  0.00  0.00    +0.000 A 
ATOM     19  C   UNL     1       2.779   7.098  18.179  0.00  0.00    +0.000 A 
ATOM     20  C   UNL     1       2.619   6.580  19.462  0.00  0.00    +0.000 A 
ATOM     21  C   UNL     1       1.902   7.296  20.419  0.00  0.00    +0.000 A 
ATOM     22  C   UNL     1       1.337   8.545  20.111  0.00  0.00    +0.000 A 
ATOM     23  C   UNL     1       0.533   9.274  21.166  0.00  0.00    +0.000 C 
ENDBRANCH  10  14
BRANCH   1  25
ATOM     24  C   UNL     1      -7.182  16.496  22.857  0.00  0.00    +0.000 C 
ATOM     25  C   UNL     1      -5.707  16.251  23.183  0.00  0.00    +0.000 C 
ATOM     26  C   UNL     1      -5.366  16.937  24.510  0.00  0.00    +0.000 C 
ENDBRANCH   1  25
TORSDOF 2
ENDMDL
MODEL 4
REMARK VINA RESULT:      -7.2      5.954      8.758
REMARK  Name = 
REMARK  4 active torsions:
REMARK  status: ('A' for Active; 'I' for Inactive)
REMARK    1  A    between atoms: C_1  and  C_2
REMARK    2  A    between atoms: C_2  and  C_3
REMARK    3  A    between atoms: C_2  and  C_4
REMARK    4  A    between atoms: N_13  and  C_14
REMARK                            x       y       z     vdW  Elec       q    Type
REMARK                         _______ _______ _______ _____ _____    ______ ____
ROOT
ATOM      1  C   UNL     1       2.395   4.854  18.412  0.00  0.00    +0.000 C 
ATOM      2  O   UNL     1       1.556   5.205  17.579  0.00  0.00    +0.000 OA
ATOM      3  N   UNL     1       3.580   5.569  18.589  0.00  0.00    +0.000 N 
ATOM      4  C   UNL     1       4.715   5.127  19.397  0.00  0.00    +0.000 C 
ATOM      5  C   UNL     1       5.668   4.204  18.647  0.00  0.00    +0.000 C 
ATOM      6  C   UNL     1       6.297   4.747  17.359  0.00  0.00    +0.000 C 
ATOM      7  N   UNL     1       6.176   6.188  17.148  0.00  0.00    +0.000 N 
ATOM      8  C   UNL     1       7.237   6.988  17.551  0.00  0.00    +0.000 C 
ATOM      9  O   UNL     1       8.244   6.522  18.080  0.00  0.00    +0.000 OA
ATOM     10  N   UNL     1       7.095   8.338  17.350  0.00  0.00    +0.000 N 
ATOM     11  C   UNL     1       4.851   6.637  16.680  0.00  0.00    +0.000 C 
ATOM     12  C   UNL     1       3.810   6.790  17.801  0.00  0.00    +0.000 C 
ATOM     13  H   UNL     1       6.507   8.616  16.583  0.00  0.00    +0.000 HD
ENDROOT
BRANCH  10  14
ATOM     14  C   UNL     1       8.186   9.274  17.675  0.00  0.00    +0.000 C 
ATOM     15  C   UNL     1       8.566   9.152  19.151  0.00  0.00    +0.000 C 
ATOM     16  C   UNL     1       9.782  10.022  19.469  0.00  0.00    +0.000 C 
ATOM     17  C   UNL     1       9.644  11.437  18.970  0.00  0.00    +0.000 A 
ATOM     18  C   UNL     1      10.481  12.433  19.501  0.00  0.00    +0.000 A 
ATOM     19  C   UNL     1      10.403  13.748  19.044  0.00  0.00    +0.000 A 
ATOM     20  C   UNL     1       9.491  14.079  18.044  0.00  0.00    +0.000 A 
ATOM     21  C   UNL     1       8.666  13.096  17.501  0.00  0.00    +0.000 A 
ATOM     22  C   UNL     1       8.742  11.765  17.943  0.00  0.00    +0.000 A 
ATOM     23  C   UNL     1       7.802  10.734  17.354  0.00  0.00    +0.000 C 
ENDBRANCH  10  14
BRANCH   1  25
ATOM     24  C   UNL     1       1.268   4.082  20.530  0.00  0.00    +0.000 C 
ATOM     25  C   UNL     1       2.120   3.652  19.334  0.00  0.00    +0.000 C 
ATOM     26  C   UNL     1       1.406   2.517  18.591  0.00  0.00    +0.000 C 
ENDBRANCH   1  25
TORSDOF 2
ENDMDL
MODEL 5
REMARK VINA RESULT:      -6.9      2.528      3.806
REMARK  Name = 
REMARK  4 active torsions:
REMARK  status: ('A' for Active; 'I' for Inactive)
REMARK    1  A    between atoms: C_1  and  C_2
REMARK    2  A    between atoms: C_2  and  C_3
REMARK    3  A    between atoms: C_2  and  C_4
REMARK    4  A    between atoms: N_13  and  C_14
REMARK                            x       y       z     vdW  Elec       q    Type
REMARK                         _______ _______ _______ _____ _____    ______ ____
ROOT
ATOM      1  C   UNL     1       0.042  14.290  19.315  0.00  0.00    +0.000 C 
ATOM      2  O   UNL     1      -0.455  14.440  18.197  0.00  0.00    +0.000 OA
ATOM      3  N   UNL     1       0.669  13.096  19.673  0.00  0.00    +0.000 N 
ATOM      4  C   UNL     1       1.105  12.749  21.024  0.00  0.00    +0.000 C 
ATOM      5  C   UNL     1      -0.001  12.143  21.881  0.00  0.00    +0.000 C 
ATOM      6  C   UNL     1      -0.676  10.872  21.352  0.00  0.00    +0.000 C 
ATOM      7  N   UNL     1       0.011  10.193  20.255  0.00  0.00    +0.000 N 
ATOM      8  C   UNL     1       0.864   9.146  20.582  0.00  0.00    +0.000 C 
ATOM      9  O   UNL     1       1.057   8.797  21.744  0.00  0.00    +0.000 OA
ATOM     10  N   UNL     1       1.504   8.531  19.535  0.00  0.00    +0.000 N 
ATOM     11  C   UNL     1      -0.158  10.822  18.933  0.00  0.00    +0.000 C 
ATOM     12  C   UNL     1       0.780  12.015  18.682  0.00  0.00    +0.000 C 
ATOM     13  H   UNL     1       1.028   8.546  18.650  0.00  0.00    +0.000 HD
ENDROOT
BRANCH  10  14
ATOM     14  C   UNL     1       2.376   7.364  19.758  0.00  0.00    +0.000 C 
ATOM     15  C   UNL     1       2.937   6.861  18.427  0.00  0.00    +0.000 C 
ATOM     16  C   UNL     1       3.944   5.734  18.656  0.00  0.00    +0.000 C 
ATOM     17  C   UNL     1       3.425   4.654  19.569  0.00  0.00    +0.000 A 
ATOM     18  C   UNL     1       4.061   3.400  19.574  0.00  0.00    +0.000 A 
ATOM     19  C   UNL     1       3.627   2.384  20.424  0.00  0.00    +0.000 A 
ATOM     20  C   UNL     1       2.557   2.614  21.286  0.00  0.00    +0.000 A 
ATOM     21  C   UNL     1       1.929   3.858  21.301  0.00  0.00    +0.000 A 
ATOM     22  C   UNL     1       2.362   4.895  20.457  0.00  0.00    +0.000 A 
ATOM     23  C   UNL     1       1.629   6.219  20.475  0.00  0.00    +0.000 C 
ENDBRANCH  10  14
BRANCH   1  25
ATOM     24  C   UNL     1       1.152  16.452  19.981  0.00  0.00    +0.000 C 
ATOM     25  C   UNL     1       0.047  15.451  20.326  0.00  0.00    +0.000 C 
ATOM     26  C   UNL     1      -1.300  16.182  20.359  0.00  0.00    +0.000 C 
ENDBRANCH   1  25
TORSDOF 2
ENDMDL
MODEL 6
REMARK VINA RESULT:      -6.9      1.010      1.133
REMARK  Name = 
REMARK  4 active torsions:
REMARK  status: ('A' for Active; 'I' for Inactive)
REMARK    1  A    between atoms: C_1  and  C_2
REMARK    2  A    between atoms: C_2  and  C_3
REMARK    3  A    between atoms: C_2  and  C_4
REMARK    4  A    between atoms: N_13  and  C_14
REMARK                            x       y       z     vdW  Elec       q    Type
REMARK                         _______ _______ _______ _____ _____    ______ ____
ROOT
ATOM      1  C   UNL     1      -1.613  13.564  21.998  0.00  0.00    +0.000 C 
ATOM      2  O   UNL     1      -0.902  13.991  22.911  0.00  0.00    +0.000 OA
ATOM      3  N   UNL     1      -1.271  12.407  21.296  0.00  0.00    +0.000 N 
ATOM      4  C   UNL     1      -1.931  11.936  20.080  0.00  0.00    +0.000 C 
ATOM      5  C   UNL     1      -1.387  12.579  18.809  0.00  0.00    +0.000 C 
ATOM      6  C   UNL     1       0.111  12.410  18.528  0.00  0.00    +0.000 C 
ATOM      7  N   UNL     1       0.800  11.396  19.324  0.00  0.00    +0.000 N 
ATOM      8  C   UNL     1       0.942  10.131  18.768  0.00  0.00    +0.000 C 
ATOM      9  O   UNL     1       0.501   9.851  17.656  0.00  0.00    +0.000 OA
ATOM     10  N   UNL     1       1.584   9.195  19.539  0.00  0.00    +0.000 N 
ATOM     11  C   UNL     1       1.114  11.801  20.706  0.00  0.00    +0.000 C 
ATOM     12  C   UNL     1      -0.064  11.659  21.684  0.00  0.00    +0.000 C 
ATOM     13  H   UNL     1       2.261   9.545  20.195  0.00  0.00    +0.000 HD
ENDROOT
BRANCH  10  14
ATOM     14  C   UNL     1       1.854   7.841  19.024  0.00  0.00    +0.000 C 
ATOM     15  C   UNL     1       2.068   6.866  20.183  0.00  0.00    +0.000 C 
ATOM     16  C   UNL     1       2.219   5.436  19.665  0.00  0.00    +0.000 C 
ATOM     17  C   UNL     1       3.221   5.314  18.547  0.00  0.00    +0.000 A 
ATOM     18  C   UNL     1       3.742   4.048  18.231  0.00  0.00    +0.000 A 
ATOM     19  C   UNL     1       4.650   3.891  17.185  0.00  0.00    +0.000 A 
ATOM     20  C   UNL     1       5.042   4.999  16.437  0.00  0.00    +0.000 A 
ATOM     21  C   UNL     1       4.520   6.257  16.732  0.00  0.00    +0.000 A 
ATOM     22  C   UNL     1       3.596   6.429  17.776  0.00  0.00    +0.000 A 
ATOM     23  C   UNL     1       3.082   7.818  18.089  0.00  0.00    +0.000 C 
ENDBRANCH  10  14
BRANCH   1  25
ATOM     24  C   UNL     1      -3.944  14.085  22.802  0.00  0.00    +0.000 C 
ATOM     25  C   UNL     1      -2.943  14.260  21.658  0.00  0.00    +0.000 C 
ATOM     26  C   UNL     1      -2.749  15.756  21.386  0.00  0.00    +0.000 C 
ENDBRANCH   1  25
TORSDOF 2
ENDMDL
MODEL 7
REMARK VINA RESULT:      -6.8      2.149      3.273
REMARK  Name = 
REMARK  4 active torsions:
REMARK  status: ('A' for Active; 'I' for Inactive)
REMARK    1  A    between atoms: C_1  and  C_2
REMARK    2  A    between atoms: C_2  and  C_3
REMARK    3  A    between atoms: C_2  and  C_4
REMARK    4  A    between atoms: N_13  and  C_14
REMARK                            x       y       z     vdW  Elec       q    Type
REMARK                         _______ _______ _______ _____ _____    ______ ____
ROOT
ATOM      1  C   UNL     1       0.673  14.348  19.673  0.00  0.00    +0.000 C 
ATOM      2  O   UNL     1       0.347  14.812  18.577  0.00  0.00    +0.000 OA
ATOM      3  N   UNL     1       1.184  13.055  19.787  0.00  0.00    +0.000 N 
ATOM      4  C   UNL     1       1.407  12.348  21.046  0.00  0.00    +0.000 C 
ATOM      5  C   UNL     1       0.162  11.641  21.572  0.00  0.00    +0.000 C 
ATOM      6  C   UNL     1      -0.490  10.603  20.653  0.00  0.00    +0.000 C 
ATOM      7  N   UNL     1       0.313  10.163  19.514  0.00  0.00    +0.000 N 
ATOM      8  C   UNL     1       1.060   9.001  19.664  0.00  0.00    +0.000 C 
ATOM      9  O   UNL     1       1.068   8.359  20.712  0.00  0.00    +0.000 OA
ATOM     10  N   UNL     1       1.812   8.615  18.583  0.00  0.00    +0.000 N 
ATOM     11  C   UNL     1       0.364  11.113  18.388  0.00  0.00    +0.000 C 
ATOM     12  C   UNL     1       1.384  12.249  18.572  0.00  0.00    +0.000 C 
ATOM     13  H   UNL     1       1.468   8.889  17.679  0.00  0.00    +0.000 HD
ENDROOT
BRANCH  10  14
ATOM     14  C   UNL     1       2.587   7.362  18.605  0.00  0.00    +0.000 C 
ATOM     15  C   UNL     1       3.709   7.415  17.567  0.00  0.00    +0.000 C 
ATOM     16  C   UNL     1       4.598   6.176  17.669  0.00  0.00    +0.000 C 
ATOM     17  C   UNL     1       3.819   4.888  17.688  0.00  0.00    +0.000 A 
ATOM     18  C   UNL     1       4.483   3.683  17.399  0.00  0.00    +0.000 A 
ATOM     19  C   UNL     1       3.802   2.467  17.434  0.00  0.00    +0.000 A 
ATOM     20  C   UNL     1       2.449   2.442  17.766  0.00  0.00    +0.000 A 
ATOM     21  C   UNL     1       1.784   3.629  18.067  0.00  0.00    +0.000 A 
ATOM     22  C   UNL     1       2.460   4.860  18.048  0.00  0.00    +0.000 A 
ATOM     23  C   UNL     1       1.693   6.131  18.345  0.00  0.00    +0.000 C 
ENDBRANCH  10  14
BRANCH   1  25
ATOM     24  C   UNL     1       1.163  16.610  20.671  0.00  0.00    +0.000 C 
ATOM     25  C   UNL     1       0.589  15.217  20.941  0.00  0.00    +0.000 C 
ATOM     26  C   UNL     1      -0.853  15.357  21.441  0.00  0.00    +0.000 C 
ENDBRANCH   1  25
TORSDOF 2
ENDMDL
MODEL 8
REMARK VINA RESULT:      -6.6      2.207      2.859
REMARK  Name = 
REMARK  4 active torsions:
REMARK  status: ('A' for Active; 'I' for Inactive)
REMARK    1  A    between atoms: C_1  and  C_2
REMARK    2  A    between atoms: C_2  and  C_3
REMARK    3  A    between atoms: C_2  and  C_4
REMARK    4  A    between atoms: N_13  and  C_14
REMARK                            x       y       z     vdW  Elec       q    Type
REMARK                         _______ _______ _______ _____ _____    ______ ____
ROOT
ATOM      1  C   UNL     1       0.964  15.219  21.080  0.00  0.00    +0.000 C 
ATOM      2  O   UNL     1       1.961  15.859  20.735  0.00  0.00    +0.000 OA
ATOM      3  N   UNL     1       0.874  13.845  20.857  0.00  0.00    +0.000 N 
ATOM      4  C   UNL     1      -0.332  13.041  21.042  0.00  0.00    +0.000 C 
ATOM      5  C   UNL     1      -1.259  13.053  19.832  0.00  0.00    +0.000 C 
ATOM      6  C   UNL     1      -0.674  12.574  18.499  0.00  0.00    +0.000 C 
ATOM      7  N   UNL     1       0.598  11.859  18.581  0.00  0.00    +0.000 N 
ATOM      8  C   UNL     1       0.555  10.471  18.625  0.00  0.00    +0.000 C 
ATOM      9  O   UNL     1      -0.505   9.849  18.609  0.00  0.00    +0.000 OA
ATOM     10  N   UNL     1       1.762   9.825  18.710  0.00  0.00    +0.000 N 
ATOM     11  C   UNL     1       1.780  12.718  18.780  0.00  0.00    +0.000 C 
ATOM     12  C   UNL     1       2.009  13.139  20.242  0.00  0.00    +0.000 C 
ATOM     13  H   UNL     1       2.552  10.299  18.308  0.00  0.00    +0.000 HD
ENDROOT
BRANCH  10  14
ATOM     14  C   UNL     1       1.839   8.353  18.691  0.00  0.00    +0.000 C 
ATOM     15  C   UNL     1       1.974   7.812  20.116  0.00  0.00    +0.000 C 
ATOM     16  C   UNL     1       1.924   6.285  20.120  0.00  0.00    +0.000 C 
ATOM     17  C   UNL     1       2.859   5.659  19.118  0.00  0.00    +0.000 A 
ATOM     18  C   UNL     1       3.204   4.304  19.259  0.00  0.00    +0.000 A 
ATOM     19  C   UNL     1       4.044   3.682  18.337  0.00  0.00    +0.000 A 
ATOM     20  C   UNL     1       4.542   4.408  17.257  0.00  0.00    +0.000 A 
ATOM     21  C   UNL     1       4.195   5.748  17.099  0.00  0.00    +0.000 A 
ATOM     22  C   UNL     1       3.341   6.385  18.015  0.00  0.00    +0.000 A 
ATOM     23  C   UNL     1       3.018   7.852  17.830  0.00  0.00    +0.000 C 
ENDBRANCH  10  14
BRANCH   1  25
ATOM     24  C   UNL     1       0.369  16.717  23.017  0.00  0.00    +0.000 C 
ATOM     25  C   UNL     1      -0.182  15.915  21.837  0.00  0.00    +0.000 C 
ATOM     26  C   UNL     1      -0.981  16.850  20.924  0.00  0.00    +0.000 C 
ENDBRANCH   1  25
TORSDOF 2
ENDMDL
MODEL 9
REMARK VINA RESULT:      -6.5      2.925      3.917
REMARK  Name = 
REMARK  4 active torsions:
REMARK  status: ('A' for Active; 'I' for Inactive)
REMARK    1  A    between atoms: C_1  and  C_2
REMARK    2  A    between atoms: C_2  and  C_3
REMARK    3  A    between atoms: C_2  and  C_4
REMARK    4  A    between atoms: N_13  and  C_14
REMARK                            x       y       z     vdW  Elec       q    Type
REMARK                         _______ _______ _______ _____ _____    ______ ____
ROOT
ATOM      1  C   UNL     1       1.931  16.026  20.192  0.00  0.00    +0.000 C 
ATOM      2  O   UNL     1       2.899  16.439  19.549  0.00  0.00    +0.000 OA
ATOM      3  N   UNL     1       1.638  14.663  20.261  0.00  0.00    +0.000 N 
ATOM      4  C   UNL     1       0.414  14.095  20.822  0.00  0.00    +0.000 C 
ATOM      5  C   UNL     1      -0.741  14.046  19.827  0.00  0.00    +0.000 C 
ATOM      6  C   UNL     1      -0.511  13.267  18.528  0.00  0.00    +0.000 C 
ATOM      7  N   UNL     1       0.658  12.391  18.507  0.00  0.00    +0.000 N 
ATOM      8  C   UNL     1       0.465  11.053  18.827  0.00  0.00    +0.000 C 
ATOM      9  O   UNL     1      -0.639  10.606  19.131  0.00  0.00    +0.000 OA
ATOM     10  N   UNL     1       1.580  10.254  18.809  0.00  0.00    +0.000 N 
ATOM     11  C   UNL     1       1.947  13.081  18.311  0.00  0.00    +0.000 C 
ATOM     12  C   UNL     1       2.527  13.700  19.593  0.00  0.00    +0.000 C 
ATOM     13  H   UNL     1       2.316  10.528  18.182  0.00  0.00    +0.000 HD
ENDROOT
BRANCH  10  14
ATOM     14  C   UNL     1       1.481   8.805  19.062  0.00  0.00    +0.000 C 
ATOM     15  C   UNL     1       1.659   8.515  20.554  0.00  0.00    +0.000 C 
ATOM     16  C   UNL     1       1.429   7.033  20.847  0.00  0.00    +0.000 C 
ATOM     17  C   UNL     1       2.204   6.121  19.932  0.00  0.00    +0.000 A 
ATOM     18  C   UNL     1       2.396   4.780  20.306  0.00  0.00    +0.000 A 
ATOM     19  C   UNL     1       3.084   3.899  19.473  0.00  0.00    +0.000 A 
ATOM     20  C   UNL     1       3.581   4.349  18.252  0.00  0.00    +0.000 A 
ATOM     21  C   UNL     1       3.384   5.672  17.864  0.00  0.00    +0.000 A 
ATOM     22  C   UNL     1       2.683   6.569  18.688  0.00  0.00    +0.000 A 
ATOM     23  C   UNL     1       2.523   8.009  18.248  0.00  0.00    +0.000 C 
ENDBRANCH  10  14
BRANCH   1  25
ATOM     24  C   UNL     1       1.934  17.867  21.913  0.00  0.00    +0.000 C 
ATOM     25  C   UNL     1       1.060  17.004  21.001  0.00  0.00    +0.000 C 
ATOM     26  C   UNL     1       0.233  17.916  20.088  0.00  0.00    +0.000 C 
ENDBRANCH   1  25
TORSDOF 2
ENDMDL
