MODEL 1
REMARK VINA RESULT:      -7.9      0.000      0.000
REMARK  Name = 
REMARK  1 active torsions:
REMARK  status: ('A' for Active; 'I' for Inactive)
REMARK    1  A    between atoms: C_5  and  C_6
REMARK                            x       y       z     vdW  Elec       q    Type
REMARK                         _______ _______ _______ _____ _____    ______ ____
ROOT
ATOM      1  C   UNL     1       4.544   4.193  18.422  0.00  0.00    +0.000 A 
ATOM      2  N   UNL     1       4.568   3.117  19.191  0.00  0.00    +0.000 NA
ATOM      3  N   UNL     1       3.703   3.303  20.245  0.00  0.00    +0.000 NA
ATOM      4  C   UNL     1       3.147   4.485  20.101  0.00  0.00    +0.000 A 
ATOM      5  N   UNL     1       2.233   5.158  20.831  0.00  0.00    +0.000 NA
ATOM      6  N   UNL     1       1.852   6.291  20.448  0.00  0.00    +0.000 NA
ATOM      7  C   UNL     1       2.365   6.872  19.290  0.00  0.00    +0.000 A 
ATOM      8  N   UNL     1       1.907   8.122  18.937  0.00  0.00    +0.000 N 
ATOM      9  C   UNL     1       2.358   8.878  17.783  0.00  0.00    +0.000 C 
ATOM     10  C   UNL     1       2.198  10.321  18.241  0.00  0.00    +0.000 C 
ATOM     11  C   UNL     1       0.932  10.277  19.082  0.00  0.00    +0.000 C 
ATOM     12  C   UNL     1       0.935   8.883  19.711  0.00  0.00    +0.000 C 
ATOM     13  N   UNL     1       3.259   6.300  18.524  0.00  0.00    +0.000 NA
ATOM     14  N   UNL     1       3.634   5.079  18.969  0.00  0.00    +0.000 N 
ENDROOT
BRANCH   1  19
ATOM     15 CL   UNL     1       7.694   5.101  13.380  0.00  0.00    +0.000 Cl
ATOM     16  C   UNL     1       6.808   4.835  14.828  0.00  0.00    +0.000 A 
ATOM     17  C   UNL     1       5.538   4.271  14.768  0.00  0.00    +0.000 A 
ATOM     18  C   UNL     1       4.816   4.061  15.944  0.00  0.00    +0.000 A 
ATOM     19  C   UNL     1       5.338   4.420  17.205  0.00  0.00    +0.000 A 
ATOM     20  C   UNL     1       6.632   4.981  17.236  0.00  0.00    +0.000 A 
ATOM     21 CL   UNL     1       7.405   5.494  18.698  0.00  0.00    +0.000 Cl
ATOM     22  C   UNL     1       7.359   5.185  16.054  0.00  0.00    +0.000 A 
ENDBRANCH   1  19
TORSDOF 1
ENDMDL
MODEL 2
REMARK VINA RESULT:      -7.8      3.717      6.815
REMARK  Name = 
REMARK  1 active torsions:
REMARK  status: ('A' for Active; 'I' for Inactive)
REMARK    1  A    between atoms: C_5  and  C_6
REMARK                            x       y       z     vdW  Elec       q    Type
REMARK                         _______ _______ _______ _____ _____    ______ ____
ROOT
ATOM      1  C   UNL     1       5.206   5.079  17.886  0.00  0.00    +0.000 A 
ATOM      2  N   UNL     1       5.841   5.832  18.769  0.00  0.00    +0.000 NA
ATOM      3  N   UNL     1       6.976   6.344  18.183  0.00  0.00    +0.000 NA
ATOM      4  C   UNL     1       7.015   5.912  16.943  0.00  0.00    +0.000 A 
ATOM      5  N   UNL     1       7.890   6.111  15.934  0.00  0.00    +0.000 NA
ATOM      6  N   UNL     1       7.673   5.582  14.817  0.00  0.00    +0.000 NA
ATOM      7  C   UNL     1       6.552   4.782  14.603  0.00  0.00    +0.000 A 
ATOM      8  N   UNL     1       6.384   4.227  13.354  0.00  0.00    +0.000 N 
ATOM      9  C   UNL     1       5.293   3.349  12.973  0.00  0.00    +0.000 C 
ATOM     10  C   UNL     1       5.926   2.465  11.909  0.00  0.00    +0.000 C 
ATOM     11  C   UNL     1       6.857   3.419  11.176  0.00  0.00    +0.000 C 
ATOM     12  C   UNL     1       7.317   4.407  12.249  0.00  0.00    +0.000 C 
ATOM     13  N   UNL     1       5.655   4.526  15.521  0.00  0.00    +0.000 NA
ATOM     14  N   UNL     1       5.924   5.123  16.705  0.00  0.00    +0.000 N 
ENDROOT
BRANCH   1  19
ATOM     15 CL   UNL     1       0.189   1.898  18.827  0.00  0.00    +0.000 Cl
ATOM     16  C   UNL     1       1.615   2.815  18.546  0.00  0.00    +0.000 A 
ATOM     17  C   UNL     1       2.847   2.175  18.475  0.00  0.00    +0.000 A 
ATOM     18  C   UNL     1       4.006   2.921  18.253  0.00  0.00    +0.000 A 
ATOM     19  C   UNL     1       3.964   4.325  18.109  0.00  0.00    +0.000 A 
ATOM     20  C   UNL     1       2.699   4.945  18.175  0.00  0.00    +0.000 A 
ATOM     21 CL   UNL     1       2.479   6.659  18.040  0.00  0.00    +0.000 Cl
ATOM     22  C   UNL     1       1.535   4.194  18.392  0.00  0.00    +0.000 A 
ENDBRANCH   1  19
TORSDOF 1
ENDMDL
MODEL 3
REMARK VINA RESULT:      -7.4      4.638      6.594
REMARK  Name = 
REMARK  1 active torsions:
REMARK  status: ('A' for Active; 'I' for Inactive)
REMARK    1  A    between atoms: C_5  and  C_6
REMARK                            x       y       z     vdW  Elec       q    Type
REMARK                         _______ _______ _______ _____ _____    ______ ____
ROOT
ATOM      1  C   UNL     1       0.821   9.562  20.652  0.00  0.00    +0.000 A 
ATOM      2  N   UNL     1       1.164  10.159  21.781  0.00  0.00    +0.000 NA
ATOM      3  N   UNL     1       0.338  11.240  21.983  0.00  0.00    +0.000 NA
ATOM      4  C   UNL     1      -0.514  11.284  20.982  0.00  0.00    +0.000 A 
ATOM      5  N   UNL     1      -1.531  12.119  20.686  0.00  0.00    +0.000 NA
ATOM      6  N   UNL     1      -2.213  11.918  19.652  0.00  0.00    +0.000 NA
ATOM      7  C   UNL     1      -1.930  10.854  18.797  0.00  0.00    +0.000 A 
ATOM      8  N   UNL     1      -2.715  10.701  17.675  0.00  0.00    +0.000 N 
ATOM      9  C   UNL     1      -2.537   9.668  16.671  0.00  0.00    +0.000 C 
ATOM     10  C   UNL     1      -3.041  10.342  15.402  0.00  0.00    +0.000 C 
ATOM     11  C   UNL     1      -4.207  11.184  15.899  0.00  0.00    +0.000 C 
ATOM     12  C   UNL     1      -3.809  11.593  17.318  0.00  0.00    +0.000 C 
ATOM     13  N   UNL     1      -0.960   9.998  18.997  0.00  0.00    +0.000 NA
ATOM     14  N   UNL     1      -0.258  10.249  20.126  0.00  0.00    +0.000 N 
ENDROOT
BRANCH   1  19
ATOM     15 CL   UNL     1       3.398   4.673  18.279  0.00  0.00    +0.000 Cl
ATOM     16  C   UNL     1       2.676   6.079  18.952  0.00  0.00    +0.000 A 
ATOM     17  C   UNL     1       2.066   6.013  20.201  0.00  0.00    +0.000 A 
ATOM     18  C   UNL     1       1.474   7.154  20.745  0.00  0.00    +0.000 A 
ATOM     19  C   UNL     1       1.464   8.383  20.052  0.00  0.00    +0.000 A 
ATOM     20  C   UNL     1       2.099   8.422  18.793  0.00  0.00    +0.000 A 
ATOM     21 CL   UNL     1       2.156   9.846  17.807  0.00  0.00    +0.000 Cl
ATOM     22  C   UNL     1       2.699   7.277  18.250  0.00  0.00    +0.000 A 
ENDBRANCH   1  19
TORSDOF 1
ENDMDL
MODEL 4
REMARK VINA RESULT:      -7.3      3.660      6.509
REMARK  Name = 
REMARK  1 active torsions:
REMARK  status: ('A' for Active; 'I' for Inactive)
REMARK    1  A    between atoms: C_5  and  C_6
REMARK                            x       y       z     vdW  Elec       q    Type
REMARK                         _______ _______ _______ _____ _____    ______ ____
ROOT
ATOM      1  C   UNL     1       5.084   4.905  18.455  0.00  0.00    +0.000 A 
ATOM      2  N   UNL     1       5.688   5.539  19.446  0.00  0.00    +0.000 NA
ATOM      3  N   UNL     1       6.846   6.110  18.970  0.00  0.00    +0.000 NA
ATOM      4  C   UNL     1       6.930   5.833  17.688  0.00  0.00    +0.000 A 
ATOM      5  N   UNL     1       7.842   6.147  16.744  0.00  0.00    +0.000 NA
ATOM      6  N   UNL     1       7.665   5.761  15.563  0.00  0.00    +0.000 NA
ATOM      7  C   UNL     1       6.549   5.001  15.211  0.00  0.00    +0.000 A 
ATOM      8  N   UNL     1       6.427   4.605  13.898  0.00  0.00    +0.000 N 
ATOM      9  C   UNL     1       5.347   3.789  13.373  0.00  0.00    +0.000 C 
ATOM     10  C   UNL     1       6.016   3.037  12.232  0.00  0.00    +0.000 C 
ATOM     11  C   UNL     1       6.976   4.067  11.657  0.00  0.00    +0.000 C 
ATOM     12  C   UNL     1       7.400   4.912  12.859  0.00  0.00    +0.000 C 
ATOM     13  N   UNL     1       5.618   4.642  16.058  0.00  0.00    +0.000 NA
ATOM     14  N   UNL     1       5.846   5.087  17.315  0.00  0.00    +0.000 N 
ENDROOT
BRANCH   1  19
ATOM     15 CL   UNL     1      -0.082   1.835  18.704  0.00  0.00    +0.000 Cl
ATOM     16  C   UNL     1       1.396   2.710  18.650  0.00  0.00    +0.000 A 
ATOM     17  C   UNL     1       1.477   3.884  17.908  0.00  0.00    +0.000 A 
ATOM     18  C   UNL     1       2.680   4.592  17.860  0.00  0.00    +0.000 A 
ATOM     19  C   UNL     1       3.832   4.139  18.538  0.00  0.00    +0.000 A 
ATOM     20  C   UNL     1       3.716   2.951  19.290  0.00  0.00    +0.000 A 
ATOM     21 CL   UNL     1       5.039   2.251  20.161  0.00  0.00    +0.000 Cl
ATOM     22  C   UNL     1       2.505   2.244  19.343  0.00  0.00    +0.000 A 
ENDBRANCH   1  19
TORSDOF 1
ENDMDL
MODEL 5
REMARK VINA RESULT:      -7.0      1.694      2.264
REMARK  Name = 
REMARK  1 active torsions:
REMARK  status: ('A' for Active; 'I' for Inactive)
REMARK    1  A    between atoms: C_5  and  C_6
REMARK                            x       y       z     vdW  Elec       q    Type
REMARK                         _______ _______ _______ _____ _____    ______ ____
ROOT
ATOM      1  C   UNL     1       3.338   5.215  19.270  0.00  0.00    +0.000 A 
ATOM      2  N   UNL     1       3.101   4.269  20.163  0.00  0.00    +0.000 NA
ATOM      3  N   UNL     1       2.215   4.750  21.099  0.00  0.00    +0.000 NA
ATOM      4  C   UNL     1       1.906   5.982  20.760  0.00  0.00    +0.000 A 
ATOM      5  N   UNL     1       1.088   6.902  21.313  0.00  0.00    +0.000 NA
ATOM      6  N   UNL     1       0.959   8.022  20.760  0.00  0.00    +0.000 NA
ATOM      7  C   UNL     1       1.655   8.337  19.594  0.00  0.00    +0.000 A 
ATOM      8  N   UNL     1       1.470   9.588  19.050  0.00  0.00    +0.000 N 
ATOM      9  C   UNL     1       2.138  10.085  17.861  0.00  0.00    +0.000 C 
ATOM     10  C   UNL     1       2.225  11.582  18.123  0.00  0.00    +0.000 C 
ATOM     11  C   UNL     1       0.918  11.883  18.839  0.00  0.00    +0.000 C 
ATOM     12  C   UNL     1       0.609  10.610  19.629  0.00  0.00    +0.000 C 
ATOM     13  N   UNL     1       2.475   7.513  18.992  0.00  0.00    +0.000 NA
ATOM     14  N   UNL     1       2.577   6.317  19.617  0.00  0.00    +0.000 N 
ENDROOT
BRANCH   1  19
ATOM     15 CL   UNL     1       7.130   4.914  14.612  0.00  0.00    +0.000 Cl
ATOM     16  C   UNL     1       6.034   5.000  15.932  0.00  0.00    +0.000 A 
ATOM     17  C   UNL     1       6.286   5.874  16.985  0.00  0.00    +0.000 A 
ATOM     18  C   UNL     1       5.397   5.939  18.060  0.00  0.00    +0.000 A 
ATOM     19  C   UNL     1       4.245   5.126  18.116  0.00  0.00    +0.000 A 
ATOM     20  C   UNL     1       4.011   4.258  17.030  0.00  0.00    +0.000 A 
ATOM     21 CL   UNL     1       2.655   3.181  16.957  0.00  0.00    +0.000 Cl
ATOM     22  C   UNL     1       4.900   4.198  15.947  0.00  0.00    +0.000 A 
ENDBRANCH   1  19
TORSDOF 1
ENDMDL
MODEL 6
REMARK VINA RESULT:      -6.6      3.043      4.824
REMARK  Name = 
REMARK  1 active torsions:
REMARK  status: ('A' for Active; 'I' for Inactive)
REMARK    1  A    between atoms: C_5  and  C_6
REMARK                            x       y       z     vdW  Elec       q    Type
REMARK                         _______ _______ _______ _____ _____    ______ ____
ROOT
ATOM      1  C   UNL     1       6.901   5.848  16.620  0.00  0.00    +0.000 A 
ATOM      2  N   UNL     1       7.402   5.301  15.526  0.00  0.00    +0.000 NA
ATOM      3  N   UNL     1       6.566   4.290  15.110  0.00  0.00    +0.000 NA
ATOM      4  C   UNL     1       5.553   4.240  15.946  0.00  0.00    +0.000 A 
ATOM      5  N   UNL     1       4.457   3.456  16.005  0.00  0.00    +0.000 NA
ATOM      6  N   UNL     1       3.618   3.637  16.921  0.00  0.00    +0.000 NA
ATOM      7  C   UNL     1       3.806   4.626  17.887  0.00  0.00    +0.000 A 
ATOM      8  N   UNL     1       2.848   4.760  18.867  0.00  0.00    +0.000 N 
ATOM      9  C   UNL     1       2.904   5.715  19.959  0.00  0.00    +0.000 C 
ATOM     10  C   UNL     1       2.153   4.999  21.072  0.00  0.00    +0.000 C 
ATOM     11  C   UNL     1       1.048   4.267  20.327  0.00  0.00    +0.000 C 
ATOM     12  C   UNL     1       1.662   3.921  18.969  0.00  0.00    +0.000 C 
ATOM     13  N   UNL     1       4.840   5.427  17.915  0.00  0.00    +0.000 NA
ATOM     14  N   UNL     1       5.712   5.201  16.906  0.00  0.00    +0.000 N 
ENDROOT
BRANCH   1  19
ATOM     15 CL   UNL     1       9.266  10.405  19.754  0.00  0.00    +0.000 Cl
ATOM     16  C   UNL     1       8.604   9.094  18.862  0.00  0.00    +0.000 A 
ATOM     17  C   UNL     1       7.994   9.330  17.634  0.00  0.00    +0.000 A 
ATOM     18  C   UNL     1       7.451   8.265  16.913  0.00  0.00    +0.000 A 
ATOM     19  C   UNL     1       7.493   6.943  17.404  0.00  0.00    +0.000 A 
ATOM     20  C   UNL     1       8.126   6.732  18.646  0.00  0.00    +0.000 A 
ATOM     21 CL   UNL     1       8.242   5.175  19.396  0.00  0.00    +0.000 Cl
ATOM     22  C   UNL     1       8.677   7.802  19.367  0.00  0.00    +0.000 A 
ENDBRANCH   1  19
TORSDOF 1
ENDMDL
MODEL 7
REMARK VINA RESULT:      -6.6      3.065      6.117
REMARK  Name = 
REMARK  1 active torsions:
REMARK  status: ('A' for Active; 'I' for Inactive)
REMARK    1  A    between atoms: C_5  and  C_6
REMARK                            x       y       z     vdW  Elec       q    Type
REMARK                         _______ _______ _______ _____ _____    ______ ____
ROOT
ATOM      1  C   UNL     1       2.033   6.427  19.845  0.00  0.00    +0.000 A 
ATOM      2  N   UNL     1       1.474   5.783  20.856  0.00  0.00    +0.000 NA
ATOM      3  N   UNL     1       1.899   4.474  20.840  0.00  0.00    +0.000 NA
ATOM      4  C   UNL     1       2.726   4.335  19.827  0.00  0.00    +0.000 A 
ATOM      5  N   UNL     1       3.428   3.281  19.361  0.00  0.00    +0.000 NA
ATOM      6  N   UNL     1       4.176   3.432  18.364  0.00  0.00    +0.000 NA
ATOM      7  C   UNL     1       4.283   4.664  17.722  0.00  0.00    +0.000 A 
ATOM      8  N   UNL     1       5.116   4.752  16.628  0.00  0.00    +0.000 N 
ATOM      9  C   UNL     1       5.318   5.947  15.831  0.00  0.00    +0.000 C 
ATOM     10  C   UNL     1       5.623   5.384  14.450  0.00  0.00    +0.000 C 
ATOM     11  C   UNL     1       6.434   4.135  14.758  0.00  0.00    +0.000 C 
ATOM     12  C   UNL     1       5.875   3.631  16.089  0.00  0.00    +0.000 C 
ATOM     13  N   UNL     1       3.636   5.738  18.096  0.00  0.00    +0.000 NA
ATOM     14  N   UNL     1       2.850   5.532  19.178  0.00  0.00    +0.000 N 
ENDROOT
BRANCH   1  19
ATOM     15 CL   UNL     1       1.216  12.168  18.249  0.00  0.00    +0.000 Cl
ATOM     16  C   UNL     1       1.456  10.533  18.720  0.00  0.00    +0.000 A 
ATOM     17  C   UNL     1       2.021   9.631  17.825  0.00  0.00    +0.000 A 
ATOM     18  C   UNL     1       2.210   8.301  18.206  0.00  0.00    +0.000 A 
ATOM     19  C   UNL     1       1.828   7.837  19.483  0.00  0.00    +0.000 A 
ATOM     20  C   UNL     1       1.267   8.777  20.373  0.00  0.00    +0.000 A 
ATOM     21 CL   UNL     1       0.727   8.364  21.966  0.00  0.00    +0.000 Cl
ATOM     22  C   UNL     1       1.083  10.114  19.991  0.00  0.00    +0.000 A 
ENDBRANCH   1  19
TORSDOF 1
ENDMDL
MODEL 8
REMARK VINA RESULT:      -6.5      4.264      6.360
REMARK  Name = 
REMARK  1 active torsions:
REMARK  status: ('A' for Active; 'I' for Inactive)
REMARK    1  A    between atoms: C_5  and  C_6
REMARK                            x       y       z     vdW  Elec       q    Type
REMARK                         _______ _______ _______ _____ _____    ______ ____
ROOT
ATOM      1  C   UNL     1       1.049   9.660  20.203  0.00  0.00    +0.000 A 
ATOM      2  N   UNL     1       1.362  10.155  21.388  0.00  0.00    +0.000 NA
ATOM      3  N   UNL     1       0.426  11.102  21.737  0.00  0.00    +0.000 NA
ATOM      4  C   UNL     1      -0.459  11.164  20.768  0.00  0.00    +0.000 A 
ATOM      5  N   UNL     1      -1.575  11.904  20.598  0.00  0.00    +0.000 NA
ATOM      6  N   UNL     1      -2.266  11.748  19.562  0.00  0.00    +0.000 NA
ATOM      7  C   UNL     1      -1.894  10.832  18.578  0.00  0.00    +0.000 A 
ATOM      8  N   UNL     1      -2.696  10.722  17.464  0.00  0.00    +0.000 N 
ATOM      9  C   UNL     1      -2.439   9.843  16.338  0.00  0.00    +0.000 C 
ATOM     10  C   UNL     1      -3.061  10.597  15.171  0.00  0.00    +0.000 C 
ATOM     11  C   UNL     1      -4.295  11.234  15.791  0.00  0.00    +0.000 C 
ATOM     12  C   UNL     1      -3.897  11.517  17.240  0.00  0.00    +0.000 C 
ATOM     13  N   UNL     1      -0.828  10.078  18.652  0.00  0.00    +0.000 NA
ATOM     14  N   UNL     1      -0.119  10.274  19.787  0.00  0.00    +0.000 N 
ENDROOT
BRANCH   1  19
ATOM     15 CL   UNL     1       4.164   5.587  17.059  0.00  0.00    +0.000 Cl
ATOM     16  C   UNL     1       3.262   6.740  17.959  0.00  0.00    +0.000 A 
ATOM     17  C   UNL     1       3.152   8.047  17.496  0.00  0.00    +0.000 A 
ATOM     18  C   UNL     1       2.423   8.984  18.232  0.00  0.00    +0.000 A 
ATOM     19  C   UNL     1       1.799   8.643  19.451  0.00  0.00    +0.000 A 
ATOM     20  C   UNL     1       1.920   7.308  19.890  0.00  0.00    +0.000 A 
ATOM     21 CL   UNL     1       1.232   6.735  21.373  0.00  0.00    +0.000 Cl
ATOM     22  C   UNL     1       2.646   6.366  19.147  0.00  0.00    +0.000 A 
ENDBRANCH   1  19
TORSDOF 1
ENDMDL
MODEL 9
REMARK VINA RESULT:      -6.4      1.294      1.652
REMARK  Name = 
REMARK  1 active torsions:
REMARK  status: ('A' for Active; 'I' for Inactive)
REMARK    1  A    between atoms: C_5  and  C_6
REMARK                            x       y       z     vdW  Elec       q    Type
REMARK                         _______ _______ _______ _____ _____    ______ ____
ROOT
ATOM      1  C   UNL     1       4.206   4.401  18.892  0.00  0.00    +0.000 A 
ATOM      2  N   UNL     1       4.191   3.386  19.739  0.00  0.00    +0.000 NA
ATOM      3  N   UNL     1       3.326   3.677  20.769  0.00  0.00    +0.000 NA
ATOM      4  C   UNL     1       2.808   4.861  20.532  0.00  0.00    +0.000 A 
ATOM      5  N   UNL     1       1.911   5.615  21.202  0.00  0.00    +0.000 NA
ATOM      6  N   UNL     1       1.569   6.728  20.733  0.00  0.00    +0.000 NA
ATOM      7  C   UNL     1       2.108   7.205  19.539  0.00  0.00    +0.000 A 
ATOM      8  N   UNL     1       1.692   8.438  19.090  0.00  0.00    +0.000 N 
ATOM      9  C   UNL     1       2.174   9.091  17.886  0.00  0.00    +0.000 C 
ATOM     10  C   UNL     1       2.058  10.568  18.234  0.00  0.00    +0.000 C 
ATOM     11  C   UNL     1       0.786  10.628  19.066  0.00  0.00    +0.000 C 
ATOM     12  C   UNL     1       0.739   9.285  19.796  0.00  0.00    +0.000 C 
ATOM     13  N   UNL     1       2.988   6.549  18.825  0.00  0.00    +0.000 NA
ATOM     14  N   UNL     1       3.321   5.353  19.364  0.00  0.00    +0.000 N 
ENDROOT
BRANCH   1  19
ATOM     15 CL   UNL     1       7.608   4.880  13.955  0.00  0.00    +0.000 Cl
ATOM     16  C   UNL     1       6.622   4.749  15.357  0.00  0.00    +0.000 A 
ATOM     17  C   UNL     1       7.089   5.223  16.578  0.00  0.00    +0.000 A 
ATOM     18  C   UNL     1       6.291   5.111  17.717  0.00  0.00    +0.000 A 
ATOM     19  C   UNL     1       5.014   4.511  17.668  0.00  0.00    +0.000 A 
ATOM     20  C   UNL     1       4.563   4.048  16.415  0.00  0.00    +0.000 A 
ATOM     21 CL   UNL     1       3.031   3.270  16.190  0.00  0.00    +0.000 Cl
ATOM     22  C   UNL     1       5.363   4.168  15.269  0.00  0.00    +0.000 A 
ENDBRANCH   1  19
TORSDOF 1
ENDMDL
