MODEL 1
REMARK VINA RESULT:      -7.6      0.000      0.000
REMARK  Name = 
REMARK  8 active torsions:
REMARK  status: ('A' for Active; 'I' for Inactive)
REMARK    1  A    between atoms: C_1  and  C_2
REMARK    2  A    between atoms: C_2  and  C_3
REMARK    3  A    between atoms: C_2  and  C_4
REMARK    4  A    between atoms: C_4  and  C_5
REMARK    5  A    between atoms: C_5  and  O_6
REMARK    6  A    between atoms: O_6  and  C_7
REMARK    7  A    between atoms: N_14  and  C_15
REMARK    8  A    between atoms: C_18  and  C_19
REMARK                            x       y       z     vdW  Elec       q    Type
REMARK                         _______ _______ _______ _____ _____    ______ ____
ROOT
ATOM      1  C   UNL     1       5.792   4.934  18.016  0.00  0.00    +0.000 A 
ATOM      2  C   UNL     1       7.166   4.995  18.112  0.00  0.00    +0.000 A 
ATOM      3  C   UNL     1       7.791   6.215  17.866  0.00  0.00    +0.000 A 
ATOM      4  C   UNL     1       7.021   7.319  17.542  0.00  0.00    +0.000 A 
ATOM      5  N   UNL     1       7.588   8.593  17.347  0.00  0.00    +0.000 N 
ATOM      6  C   UNL     1       8.506   9.088  18.241  0.00  0.00    +0.000 C 
ATOM      7  O   UNL     1       8.857   8.516  19.267  0.00  0.00    +0.000 OA
ATOM      8  N   UNL     1       8.968  10.341  17.903  0.00  0.00    +0.000 N 
ATOM      9  N   UNL     1       5.680   7.210  17.392  0.00  0.00    +0.000 NA
ATOM     10  N   UNL     1       5.057   6.011  17.656  0.00  0.00    +0.000 NA
ATOM     11  H   UNL     1       6.926   9.272  16.995  0.00  0.00    +0.000 HD
ATOM     12  H   UNL     1       8.944  10.591  16.916  0.00  0.00    +0.000 HD
ENDROOT
BRANCH   8  13
ATOM     13  C   UNL     1       9.827  11.103  18.820  0.00  0.00    +0.000 C 
ATOM     14  C   UNL     1      11.140  11.606  18.206  0.00  0.00    +0.000 C 
ATOM     15  C   UNL     1      10.978  12.665  17.118  0.00  0.00    +0.000 C 
ATOM     16  C   UNL     1      10.227  13.931  17.537  0.00  0.00    +0.000 C 
ATOM     17  C   UNL     1      11.103  14.902  18.322  0.00  0.00    +0.000 C 
ATOM     18  S   UNL     1       8.688  13.552  18.380  0.00  0.00    +0.000 S 
ATOM     19  O   UNL     1       7.777  12.991  17.400  0.00  0.00    +0.000 OA
ATOM     20  O   UNL     1       8.290  14.700  19.169  0.00  0.00    +0.000 OA
ATOM     21  C   UNL     1       9.090  12.244  19.510  0.00  0.00    +0.000 C 
ENDBRANCH   8  13
BRANCH   1  22
ATOM     22  O   UNL     1       5.189   3.727  18.319  0.00  0.00    +0.000 OA
BRANCH  22  23
ATOM     23  C   UNL     1       4.016   3.494  17.534  0.00  0.00    +0.000 C 
BRANCH  23  24
ATOM     24  C   UNL     1       3.021   2.663  18.348  0.00  0.00    +0.000 C 
BRANCH  24  26
ATOM     25  C   UNL     1       0.918   3.136  19.656  0.00  0.00    +0.000 C 
ATOM     26  C   UNL     1       1.581   3.207  18.279  0.00  0.00    +0.000 C 
ATOM     27  C   UNL     1       1.517   4.643  17.754  0.00  0.00    +0.000 C 
ENDBRANCH  24  26
ENDBRANCH  23  24
ENDBRANCH  22  23
ENDBRANCH   1  22
TORSDOF 5
ENDMDL
MODEL 2
REMARK VINA RESULT:      -7.4      2.887      9.429
REMARK  Name = 
REMARK  8 active torsions:
REMARK  status: ('A' for Active; 'I' for Inactive)
REMARK    1  A    between atoms: C_1  and  C_2
REMARK    2  A    between atoms: C_2  and  C_3
REMARK    3  A    between atoms: C_2  and  C_4
REMARK    4  A    between atoms: C_4  and  C_5
REMARK    5  A    between atoms: C_5  and  O_6
REMARK    6  A    between atoms: O_6  and  C_7
REMARK    7  A    between atoms: N_14  and  C_15
REMARK    8  A    between atoms: C_18  and  C_19
REMARK                            x       y       z     vdW  Elec       q    Type
REMARK                         _______ _______ _______ _____ _____    ______ ____
ROOT
ATOM      1  C   UNL     1      10.851  12.080  19.531  0.00  0.00    +0.000 A 
ATOM      2  C   UNL     1      10.018  11.349  20.350  0.00  0.00    +0.000 A 
ATOM      3  C   UNL     1       9.115  10.469  19.757  0.00  0.00    +0.000 A 
ATOM      4  C   UNL     1       9.089  10.353  18.377  0.00  0.00    +0.000 A 
ATOM      5  N   UNL     1       8.247   9.434  17.722  0.00  0.00    +0.000 N 
ATOM      6  C   UNL     1       8.163   8.134  18.160  0.00  0.00    +0.000 C 
ATOM      7  O   UNL     1       8.823   7.667  19.082  0.00  0.00    +0.000 OA
ATOM      8  N   UNL     1       7.292   7.369  17.418  0.00  0.00    +0.000 N 
ATOM      9  N   UNL     1       9.876  11.132  17.599  0.00  0.00    +0.000 NA
ATOM     10  N   UNL     1      10.784  11.986  18.184  0.00  0.00    +0.000 NA
ATOM     11  H   UNL     1       8.243   9.546  16.717  0.00  0.00    +0.000 HD
ATOM     12  H   UNL     1       6.534   7.859  16.945  0.00  0.00    +0.000 HD
ENDROOT
BRANCH   8  13
ATOM     13  C   UNL     1       7.194   5.917  17.628  0.00  0.00    +0.000 C 
ATOM     14  C   UNL     1       6.142   5.485  18.658  0.00  0.00    +0.000 C 
ATOM     15  C   UNL     1       4.695   5.752  18.252  0.00  0.00    +0.000 C 
ATOM     16  C   UNL     1       4.249   5.106  16.937  0.00  0.00    +0.000 C 
ATOM     17  C   UNL     1       3.910   3.627  17.093  0.00  0.00    +0.000 C 
ATOM     18  S   UNL     1       5.417   5.411  15.609  0.00  0.00    +0.000 S 
ATOM     19  O   UNL     1       5.343   6.821  15.274  0.00  0.00    +0.000 OA
ATOM     20  O   UNL     1       5.229   4.409  14.580  0.00  0.00    +0.000 OA
ATOM     21  C   UNL     1       7.017   5.141  16.329  0.00  0.00    +0.000 C 
ENDBRANCH   8  13
BRANCH   1  22
ATOM     22  O   UNL     1      11.777  12.904  20.144  0.00  0.00    +0.000 OA
BRANCH  22  23
ATOM     23  C   UNL     1      11.679  14.259  19.694  0.00  0.00    +0.000 C 
BRANCH  23  24
ATOM     24  C   UNL     1      10.684  15.014  20.579  0.00  0.00    +0.000 C 
BRANCH  24  26
ATOM     25  C   UNL     1       9.676  15.456  18.311  0.00  0.00    +0.000 C 
ATOM     26  C   UNL     1       9.424  15.471  19.819  0.00  0.00    +0.000 C 
ATOM     27  C   UNL     1       8.197  14.613  20.142  0.00  0.00    +0.000 C 
ENDBRANCH  24  26
ENDBRANCH  23  24
ENDBRANCH  22  23
ENDBRANCH   1  22
TORSDOF 5
ENDMDL
MODEL 3
REMARK VINA RESULT:      -7.4      0.832      1.151
REMARK  Name = 
REMARK  8 active torsions:
REMARK  status: ('A' for Active; 'I' for Inactive)
REMARK    1  A    between atoms: C_1  and  C_2
REMARK    2  A    between atoms: C_2  and  C_3
REMARK    3  A    between atoms: C_2  and  C_4
REMARK    4  A    between atoms: C_4  and  C_5
REMARK    5  A    between atoms: C_5  and  O_6
REMARK    6  A    between atoms: O_6  and  C_7
REMARK    7  A    between atoms: N_14  and  C_15
REMARK    8  A    between atoms: C_18  and  C_19
REMARK                            x       y       z     vdW  Elec       q    Type
REMARK                         _______ _______ _______ _____ _____    ______ ____
ROOT
ATOM      1  C   UNL     1       5.659   5.436  18.065  0.00  0.00    +0.000 A 
ATOM      2  C   UNL     1       6.967   5.410  18.498  0.00  0.00    +0.000 A 
ATOM      3  C   UNL     1       7.775   6.511  18.222  0.00  0.00    +0.000 A 
ATOM      4  C   UNL     1       7.242   7.589  17.536  0.00  0.00    +0.000 A 
ATOM      5  N   UNL     1       7.987   8.757  17.286  0.00  0.00    +0.000 N 
ATOM      6  C   UNL     1       8.719   9.341  18.291  0.00  0.00    +0.000 C 
ATOM      7  O   UNL     1       8.745   8.948  19.452  0.00  0.00    +0.000 OA
ATOM      8  N   UNL     1       9.395  10.469  17.881  0.00  0.00    +0.000 N 
ATOM      9  N   UNL     1       5.972   7.555  17.069  0.00  0.00    +0.000 NA
ATOM     10  N   UNL     1       5.165   6.477  17.359  0.00  0.00    +0.000 NA
ATOM     11  H   UNL     1       7.514   9.406  16.671  0.00  0.00    +0.000 HD
ATOM     12  H   UNL     1       9.637  10.529  16.894  0.00  0.00    +0.000 HD
ENDROOT
BRANCH   8  13
ATOM     13  C   UNL     1      10.096  11.324  18.850  0.00  0.00    +0.000 C 
ATOM     14  C   UNL     1      11.389  11.964  18.327  0.00  0.00    +0.000 C 
ATOM     15  C   UNL     1      11.194  12.995  17.218  0.00  0.00    +0.000 C 
ATOM     16  C   UNL     1      10.282  14.174  17.565  0.00  0.00    +0.000 C 
ATOM     17  C   UNL     1      10.987  15.238  18.400  0.00  0.00    +0.000 C 
ATOM     18  S   UNL     1       8.735  13.633  18.299  0.00  0.00    +0.000 S 
ATOM     19  O   UNL     1       7.965  12.972  17.261  0.00  0.00    +0.000 OA
ATOM     20  O   UNL     1       8.158  14.734  19.042  0.00  0.00    +0.000 OA
ATOM     21  C   UNL     1       9.192  12.381  19.471  0.00  0.00    +0.000 C 
ENDBRANCH   8  13
BRANCH   1  22
ATOM     22  O   UNL     1       4.861   4.356  18.398  0.00  0.00    +0.000 OA
BRANCH  22  23
ATOM     23  C   UNL     1       3.567   4.759  18.855  0.00  0.00    +0.000 C 
BRANCH  23  24
ATOM     24  C   UNL     1       3.188   3.935  20.088  0.00  0.00    +0.000 C 
BRANCH  24  26
ATOM     25  C   UNL     1       1.332   2.684  18.928  0.00  0.00    +0.000 C 
ATOM     26  C   UNL     1       1.694   3.559  20.129  0.00  0.00    +0.000 C 
ATOM     27  C   UNL     1       1.301   2.842  21.422  0.00  0.00    +0.000 C 
ENDBRANCH  24  26
ENDBRANCH  23  24
ENDBRANCH  22  23
ENDBRANCH   1  22
TORSDOF 5
ENDMDL
MODEL 4
REMARK VINA RESULT:      -7.1      0.981      1.285
REMARK  Name = 
REMARK  8 active torsions:
REMARK  status: ('A' for Active; 'I' for Inactive)
REMARK    1  A    between atoms: C_1  and  C_2
REMARK    2  A    between atoms: C_2  and  C_3
REMARK    3  A    between atoms: C_2  and  C_4
REMARK    4  A    between atoms: C_4  and  C_5
REMARK    5  A    between atoms: C_5  and  O_6
REMARK    6  A    between atoms: O_6  and  C_7
REMARK    7  A    between atoms: N_14  and  C_15
REMARK    8  A    between atoms: C_18  and  C_19
REMARK                            x       y       z     vdW  Elec       q    Type
REMARK                         _______ _______ _______ _____ _____    ______ ____
ROOT
ATOM      1  C   UNL     1       6.205   5.809  18.158  0.00  0.00    +0.000 A 
ATOM      2  C   UNL     1       7.450   5.899  18.741  0.00  0.00    +0.000 A 
ATOM      3  C   UNL     1       8.211   7.041  18.497  0.00  0.00    +0.000 A 
ATOM      4  C   UNL     1       7.694   8.041  17.692  0.00  0.00    +0.000 A 
ATOM      5  N   UNL     1       8.386   9.246  17.462  0.00  0.00    +0.000 N 
ATOM      6  C   UNL     1       8.953   9.932  18.509  0.00  0.00    +0.000 C 
ATOM      7  O   UNL     1       8.865   9.600  19.686  0.00  0.00    +0.000 OA
ATOM      8  N   UNL     1       9.597  11.083  18.116  0.00  0.00    +0.000 N 
ATOM      9  N   UNL     1       6.495   7.892  17.083  0.00  0.00    +0.000 NA
ATOM     10  N   UNL     1       5.731   6.775  17.340  0.00  0.00    +0.000 NA
ATOM     11  H   UNL     1       7.948   9.827  16.759  0.00  0.00    +0.000 HD
ATOM     12  H   UNL     1       9.951  11.111  17.161  0.00  0.00    +0.000 HD
ENDROOT
BRANCH   8  13
ATOM     13  C   UNL     1      10.119  12.034  19.108  0.00  0.00    +0.000 C 
ATOM     14  C   UNL     1      11.311  12.874  18.630  0.00  0.00    +0.000 C 
ATOM     15  C   UNL     1      10.993  13.866  17.513  0.00  0.00    +0.000 C 
ATOM     16  C   UNL     1       9.894  14.883  17.828  0.00  0.00    +0.000 C 
ATOM     17  C   UNL     1      10.391  16.042  18.686  0.00  0.00    +0.000 C 
ATOM     18  S   UNL     1       8.428  14.100  18.507  0.00  0.00    +0.000 S 
ATOM     19  O   UNL     1       7.809  13.329  17.445  0.00  0.00    +0.000 OA
ATOM     20  O   UNL     1       7.658  15.092  19.229  0.00  0.00    +0.000 OA
ATOM     21  C   UNL     1       9.038  12.931  19.696  0.00  0.00    +0.000 C 
ENDBRANCH   8  13
BRANCH   1  22
ATOM     22  O   UNL     1       5.445   4.693  18.459  0.00  0.00    +0.000 OA
BRANCH  22  23
ATOM     23  C   UNL     1       5.155   3.906  17.300  0.00  0.00    +0.000 C 
BRANCH  23  24
ATOM     24  C   UNL     1       3.638   3.832  17.107  0.00  0.00    +0.000 C 
BRANCH  24  26
ATOM     25  C   UNL     1       1.414   3.701  18.287  0.00  0.00    +0.000 C 
ATOM     26  C   UNL     1       2.894   3.320  18.355  0.00  0.00    +0.000 C 
ATOM     27  C   UNL     1       3.024   1.806  18.541  0.00  0.00    +0.000 C 
ENDBRANCH  24  26
ENDBRANCH  23  24
ENDBRANCH  22  23
ENDBRANCH   1  22
TORSDOF 5
ENDMDL
MODEL 5
REMARK VINA RESULT:      -7.1      2.864      9.843
REMARK  Name = 
REMARK  8 active torsions:
REMARK  status: ('A' for Active; 'I' for Inactive)
REMARK    1  A    between atoms: C_1  and  C_2
REMARK    2  A    between atoms: C_2  and  C_3
REMARK    3  A    between atoms: C_2  and  C_4
REMARK    4  A    between atoms: C_4  and  C_5
REMARK    5  A    between atoms: C_5  and  O_6
REMARK    6  A    between atoms: O_6  and  C_7
REMARK    7  A    between atoms: N_14  and  C_15
REMARK    8  A    between atoms: C_18  and  C_19
REMARK                            x       y       z     vdW  Elec       q    Type
REMARK                         _______ _______ _______ _____ _____    ______ ____
ROOT
ATOM      1  C   UNL     1      10.767  12.216  19.494  0.00  0.00    +0.000 A 
ATOM      2  C   UNL     1       9.948  11.473  20.316  0.00  0.00    +0.000 A 
ATOM      3  C   UNL     1       9.062  10.575  19.726  0.00  0.00    +0.000 A 
ATOM      4  C   UNL     1       9.037  10.453  18.346  0.00  0.00    +0.000 A 
ATOM      5  N   UNL     1       8.212   9.517  17.695  0.00  0.00    +0.000 N 
ATOM      6  C   UNL     1       8.154   8.217  18.137  0.00  0.00    +0.000 C 
ATOM      7  O   UNL     1       8.822   7.765  19.060  0.00  0.00    +0.000 OA
ATOM      8  N   UNL     1       7.296   7.433  17.397  0.00  0.00    +0.000 N 
ATOM      9  N   UNL     1       9.809  11.245  17.566  0.00  0.00    +0.000 NA
ATOM     10  N   UNL     1      10.702  12.118  18.148  0.00  0.00    +0.000 NA
ATOM     11  H   UNL     1       8.206   9.625  16.689  0.00  0.00    +0.000 HD
ATOM     12  H   UNL     1       6.530   7.907  16.924  0.00  0.00    +0.000 HD
ENDROOT
BRANCH   8  13
ATOM     13  C   UNL     1       7.226   5.981  17.612  0.00  0.00    +0.000 C 
ATOM     14  C   UNL     1       6.190   5.533  18.651  0.00  0.00    +0.000 C 
ATOM     15  C   UNL     1       4.735   5.772  18.256  0.00  0.00    +0.000 C 
ATOM     16  C   UNL     1       4.290   5.115  16.947  0.00  0.00    +0.000 C 
ATOM     17  C   UNL     1       3.979   3.631  17.110  0.00  0.00    +0.000 C 
ATOM     18  S   UNL     1       5.442   5.437  15.608  0.00  0.00    +0.000 S 
ATOM     19  O   UNL     1       5.341   6.845  15.270  0.00  0.00    +0.000 OA
ATOM     20  O   UNL     1       5.264   4.429  14.584  0.00  0.00    +0.000 OA
ATOM     21  C   UNL     1       7.052   5.198  16.317  0.00  0.00    +0.000 C 
ENDBRANCH   8  13
BRANCH   1  22
ATOM     22  O   UNL     1      11.677  13.061  20.104  0.00  0.00    +0.000 OA
BRANCH  22  23
ATOM     23  C   UNL     1      11.223  14.417  20.136  0.00  0.00    +0.000 C 
BRANCH  23  24
ATOM     24  C   UNL     1      12.138  15.276  19.259  0.00  0.00    +0.000 C 
BRANCH  24  26
ATOM     25  C   UNL     1      10.148  15.665  17.760  0.00  0.00    +0.000 C 
ATOM     26  C   UNL     1      11.369  16.312  18.416  0.00  0.00    +0.000 C 
ATOM     27  C   UNL     1      10.927  17.527  19.235  0.00  0.00    +0.000 C 
ENDBRANCH  24  26
ENDBRANCH  23  24
ENDBRANCH  22  23
ENDBRANCH   1  22
TORSDOF 5
ENDMDL
MODEL 6
REMARK VINA RESULT:      -7.0      5.805      7.395
REMARK  Name = 
REMARK  8 active torsions:
REMARK  status: ('A' for Active; 'I' for Inactive)
REMARK    1  A    between atoms: C_1  and  C_2
REMARK    2  A    between atoms: C_2  and  C_3
REMARK    3  A    between atoms: C_2  and  C_4
REMARK    4  A    between atoms: C_4  and  C_5
REMARK    5  A    between atoms: C_5  and  O_6
REMARK    6  A    between atoms: O_6  and  C_7
REMARK    7  A    between atoms: N_14  and  C_15
REMARK    8  A    between atoms: C_18  and  C_19
REMARK                            x       y       z     vdW  Elec       q    Type
REMARK                         _______ _______ _______ _____ _____    ______ ____
ROOT
ATOM      1  C   UNL     1       5.521   4.679  15.301  0.00  0.00    +0.000 A 
ATOM      2  C   UNL     1       4.891   4.311  16.470  0.00  0.00    +0.000 A 
ATOM      3  C   UNL     1       4.361   5.314  17.278  0.00  0.00    +0.000 A 
ATOM      4  C   UNL     1       4.478   6.636  16.882  0.00  0.00    +0.000 A 
ATOM      5  N   UNL     1       3.906   7.689  17.622  0.00  0.00    +0.000 N 
ATOM      6  C   UNL     1       2.612   7.598  18.073  0.00  0.00    +0.000 C 
ATOM      7  O   UNL     1       1.858   6.660  17.839  0.00  0.00    +0.000 OA
ATOM      8  N   UNL     1       2.208   8.706  18.785  0.00  0.00    +0.000 N 
ATOM      9  N   UNL     1       5.159   6.967  15.761  0.00  0.00    +0.000 NA
ATOM     10  N   UNL     1       5.664   5.976  14.949  0.00  0.00    +0.000 NA
ATOM     11  H   UNL     1       4.176   8.604  17.283  0.00  0.00    +0.000 HD
ATOM     12  H   UNL     1       2.935   9.246  19.250  0.00  0.00    +0.000 HD
ENDROOT
BRANCH   8  13
ATOM     13  C   UNL     1       0.809   8.866  19.205  0.00  0.00    +0.000 C 
ATOM     14  C   UNL     1       0.596   8.942  20.722  0.00  0.00    +0.000 C 
ATOM     15  C   UNL     1       1.175  10.186  21.392  0.00  0.00    +0.000 C 
ATOM     16  C   UNL     1       0.663  11.524  20.854  0.00  0.00    +0.000 C 
ATOM     17  C   UNL     1      -0.710  11.893  21.405  0.00  0.00    +0.000 C 
ATOM     18  S   UNL     1       0.731  11.598  19.061  0.00  0.00    +0.000 S 
ATOM     19  O   UNL     1       2.129  11.651  18.676  0.00  0.00    +0.000 OA
ATOM     20  O   UNL     1      -0.190  12.615  18.598  0.00  0.00    +0.000 OA
ATOM     21  C   UNL     1       0.111  10.028  18.510  0.00  0.00    +0.000 C 
ENDBRANCH   8  13
BRANCH   1  22
ATOM     22  O   UNL     1       5.989   3.663  14.488  0.00  0.00    +0.000 OA
BRANCH  22  23
ATOM     23  C   UNL     1       7.015   4.110  13.597  0.00  0.00    +0.000 C 
BRANCH  23  24
ATOM     24  C   UNL     1       6.577   3.854  12.153  0.00  0.00    +0.000 C 
BRANCH  24  26
ATOM     25  C   UNL     1       4.273   3.188  11.375  0.00  0.00    +0.000 C 
ATOM     26  C   UNL     1       5.569   2.696  12.023  0.00  0.00    +0.000 C 
ATOM     27  C   UNL     1       6.125   1.515  11.224  0.00  0.00    +0.000 C 
ENDBRANCH  24  26
ENDBRANCH  23  24
ENDBRANCH  22  23
ENDBRANCH   1  22
TORSDOF 5
ENDMDL
MODEL 7
REMARK VINA RESULT:      -7.0      7.685     10.873
REMARK  Name = 
REMARK  8 active torsions:
REMARK  status: ('A' for Active; 'I' for Inactive)
REMARK    1  A    between atoms: C_1  and  C_2
REMARK    2  A    between atoms: C_2  and  C_3
REMARK    3  A    between atoms: C_2  and  C_4
REMARK    4  A    between atoms: C_4  and  C_5
REMARK    5  A    between atoms: C_5  and  O_6
REMARK    6  A    between atoms: O_6  and  C_7
REMARK    7  A    between atoms: N_14  and  C_15
REMARK    8  A    between atoms: C_18  and  C_19
REMARK                            x       y       z     vdW  Elec       q    Type
REMARK                         _______ _______ _______ _____ _____    ______ ____
ROOT
ATOM      1  C   UNL     1      -0.673  11.385  22.531  0.00  0.00    +0.000 A 
ATOM      2  C   UNL     1       0.236  11.553  21.509  0.00  0.00    +0.000 A 
ATOM      3  C   UNL     1       1.069  10.484  21.185  0.00  0.00    +0.000 A 
ATOM      4  C   UNL     1       0.953   9.296  21.888  0.00  0.00    +0.000 A 
ATOM      5  N   UNL     1       1.719   8.160  21.564  0.00  0.00    +0.000 N 
ATOM      6  C   UNL     1       1.840   7.755  20.257  0.00  0.00    +0.000 C 
ATOM      7  O   UNL     1       1.277   8.288  19.307  0.00  0.00    +0.000 OA
ATOM      8  N   UNL     1       2.627   6.634  20.110  0.00  0.00    +0.000 N 
ATOM      9  N   UNL     1       0.094   9.186  22.927  0.00  0.00    +0.000 NA
ATOM     10  N   UNL     1      -0.746  10.234  23.235  0.00  0.00    +0.000 NA
ATOM     11  H   UNL     1       1.619   7.410  22.235  0.00  0.00    +0.000 HD
ATOM     12  H   UNL     1       3.334   6.470  20.824  0.00  0.00    +0.000 HD
ENDROOT
BRANCH   8  13
ATOM     13  C   UNL     1       2.739   5.955  18.811  0.00  0.00    +0.000 C 
ATOM     14  C   UNL     1       4.074   5.236  18.574  0.00  0.00    +0.000 C 
ATOM     15  C   UNL     1       4.328   4.033  19.479  0.00  0.00    +0.000 C 
ATOM     16  C   UNL     1       3.270   2.929  19.423  0.00  0.00    +0.000 C 
ATOM     17  C   UNL     1       3.431   2.021  18.208  0.00  0.00    +0.000 C 
ATOM     18  S   UNL     1       1.606   3.585  19.580  0.00  0.00    +0.000 S 
ATOM     19  O   UNL     1       1.449   4.063  20.941  0.00  0.00    +0.000 OA
ATOM     20  O   UNL     1       0.670   2.624  19.034  0.00  0.00    +0.000 OA
ATOM     21  C   UNL     1       1.572   5.016  18.531  0.00  0.00    +0.000 C 
ENDBRANCH   8  13
BRANCH   1  22
ATOM     22  O   UNL     1      -1.527  12.440  22.798  0.00  0.00    +0.000 OA
BRANCH  22  23
ATOM     23  C   UNL     1      -2.615  12.506  21.870  0.00  0.00    +0.000 C 
BRANCH  23  24
ATOM     24  C   UNL     1      -3.722  13.388  22.454  0.00  0.00    +0.000 C 
BRANCH  24  26
ATOM     25  C   UNL     1      -4.089  14.932  24.413  0.00  0.00    +0.000 C 
ATOM     26  C   UNL     1      -3.634  13.536  23.985  0.00  0.00    +0.000 C 
ATOM     27  C   UNL     1      -4.456  12.480  24.728  0.00  0.00    +0.000 C 
ENDBRANCH  24  26
ENDBRANCH  23  24
ENDBRANCH  22  23
ENDBRANCH   1  22
TORSDOF 5
ENDMDL
MODEL 8
REMARK VINA RESULT:      -6.9      5.418      7.476
REMARK  Name = 
REMARK  8 active torsions:
REMARK  status: ('A' for Active; 'I' for Inactive)
REMARK    1  A    between atoms: C_1  and  C_2
REMARK    2  A    between atoms: C_2  and  C_3
REMARK    3  A    between atoms: C_2  and  C_4
REMARK    4  A    between atoms: C_4  and  C_5
REMARK    5  A    between atoms: C_5  and  O_6
REMARK    6  A    between atoms: O_6  and  C_7
REMARK    7  A    between atoms: N_14  and  C_15
REMARK    8  A    between atoms: C_18  and  C_19
REMARK                            x       y       z     vdW  Elec       q    Type
REMARK                         _______ _______ _______ _____ _____    ______ ____
ROOT
ATOM      1  C   UNL     1       3.981   4.193  18.169  0.00  0.00    +0.000 A 
ATOM      2  C   UNL     1       2.883   4.657  17.477  0.00  0.00    +0.000 A 
ATOM      3  C   UNL     1       2.190   5.748  17.996  0.00  0.00    +0.000 A 
ATOM      4  C   UNL     1       2.625   6.330  19.175  0.00  0.00    +0.000 A 
ATOM      5  N   UNL     1       2.007   7.474  19.714  0.00  0.00    +0.000 N 
ATOM      6  C   UNL     1       1.713   8.549  18.910  0.00  0.00    +0.000 C 
ATOM      7  O   UNL     1       1.998   8.625  17.720  0.00  0.00    +0.000 OA
ATOM      8  N   UNL     1       1.105   9.582  19.588  0.00  0.00    +0.000 N 
ATOM      9  N   UNL     1       3.667   5.809  19.863  0.00  0.00    +0.000 NA
ATOM     10  N   UNL     1       4.368   4.745  19.341  0.00  0.00    +0.000 NA
ATOM     11  H   UNL     1       2.349   7.713  20.636  0.00  0.00    +0.000 HD
ATOM     12  H   UNL     1       0.578   9.338  20.424  0.00  0.00    +0.000 HD
ENDROOT
BRANCH   8  13
ATOM     13  C   UNL     1       0.867  10.877  18.936  0.00  0.00    +0.000 C 
ATOM     14  C   UNL     1      -0.594  11.145  18.550  0.00  0.00    +0.000 C 
ATOM     15  C   UNL     1      -1.553  11.306  19.727  0.00  0.00    +0.000 C 
ATOM     16  C   UNL     1      -1.197  12.415  20.720  0.00  0.00    +0.000 C 
ATOM     17  C   UNL     1      -1.605  13.800  20.227  0.00  0.00    +0.000 C 
ATOM     18  S   UNL     1       0.524  12.340  21.224  0.00  0.00    +0.000 S 
ATOM     19  O   UNL     1       0.690  11.156  22.046  0.00  0.00    +0.000 OA
ATOM     20  O   UNL     1       0.922  13.638  21.729  0.00  0.00    +0.000 OA
ATOM     21  C   UNL     1       1.432  12.051  19.726  0.00  0.00    +0.000 C 
ENDBRANCH   8  13
BRANCH   1  22
ATOM     22  O   UNL     1       4.687   3.145  17.607  0.00  0.00    +0.000 OA
BRANCH  22  23
ATOM     23  C   UNL     1       5.398   3.539  16.430  0.00  0.00    +0.000 C 
BRANCH  23  24
ATOM     24  C   UNL     1       6.635   4.346  16.834  0.00  0.00    +0.000 C 
BRANCH  24  26
ATOM     25  C   UNL     1       5.435   5.981  15.336  0.00  0.00    +0.000 C 
ATOM     26  C   UNL     1       6.650   5.767  16.240  0.00  0.00    +0.000 C 
ATOM     27  C   UNL     1       6.684   6.856  17.316  0.00  0.00    +0.000 C 
ENDBRANCH  24  26
ENDBRANCH  23  24
ENDBRANCH  22  23
ENDBRANCH   1  22
TORSDOF 5
ENDMDL
MODEL 9
REMARK VINA RESULT:      -6.9      6.653     10.031
REMARK  Name = 
REMARK  8 active torsions:
REMARK  status: ('A' for Active; 'I' for Inactive)
REMARK    1  A    between atoms: C_1  and  C_2
REMARK    2  A    between atoms: C_2  and  C_3
REMARK    3  A    between atoms: C_2  and  C_4
REMARK    4  A    between atoms: C_4  and  C_5
REMARK    5  A    between atoms: C_5  and  O_6
REMARK    6  A    between atoms: O_6  and  C_7
REMARK    7  A    between atoms: N_14  and  C_15
REMARK    8  A    between atoms: C_18  and  C_19
REMARK                            x       y       z     vdW  Elec       q    Type
REMARK                         _______ _______ _______ _____ _____    ______ ____
ROOT
ATOM      1  C   UNL     1      -0.571  11.507  19.702  0.00  0.00    +0.000 A 
ATOM      2  C   UNL     1       0.490  11.436  18.825  0.00  0.00    +0.000 A 
ATOM      3  C   UNL     1       1.343  10.337  18.910  0.00  0.00    +0.000 A 
ATOM      4  C   UNL     1       1.095   9.358  19.858  0.00  0.00    +0.000 A 
ATOM      5  N   UNL     1       1.880   8.193  19.949  0.00  0.00    +0.000 N 
ATOM      6  C   UNL     1       2.197   7.479  18.819  0.00  0.00    +0.000 C 
ATOM      7  O   UNL     1       1.799   7.749  17.691  0.00  0.00    +0.000 OA
ATOM      8  N   UNL     1       2.975   6.373  19.079  0.00  0.00    +0.000 N 
ATOM      9  N   UNL     1       0.082   9.491  20.745  0.00  0.00    +0.000 NA
ATOM     10  N   UNL     1      -0.775  10.565  20.649  0.00  0.00    +0.000 NA
ATOM     11  H   UNL     1       1.663   7.630  20.762  0.00  0.00    +0.000 HD
ATOM     12  H   UNL     1       3.559   6.405  19.913  0.00  0.00    +0.000 HD
ENDROOT
BRANCH   8  13
ATOM     13  C   UNL     1       3.276   5.396  18.023  0.00  0.00    +0.000 C 
ATOM     14  C   UNL     1       4.515   4.528  18.283  0.00  0.00    +0.000 C 
ATOM     15  C   UNL     1       4.389   3.559  19.456  0.00  0.00    +0.000 C 
ATOM     16  C   UNL     1       3.224   2.570  19.373  0.00  0.00    +0.000 C 
ATOM     17  C   UNL     1       3.521   1.387  18.457  0.00  0.00    +0.000 C 
ATOM     18  S   UNL     1       1.677   3.386  18.969  0.00  0.00    +0.000 S 
ATOM     19  O   UNL     1       1.290   4.187  20.115  0.00  0.00    +0.000 OA
ATOM     20  O   UNL     1       0.759   2.407  18.423  0.00  0.00    +0.000 OA
ATOM     21  C   UNL     1       2.080   4.522  17.666  0.00  0.00    +0.000 C 
ENDBRANCH   8  13
BRANCH   1  22
ATOM     22  O   UNL     1      -1.436  12.578  19.562  0.00  0.00    +0.000 OA
BRANCH  22  23
ATOM     23  C   UNL     1      -2.774  12.161  19.276  0.00  0.00    +0.000 C 
BRANCH  23  24
ATOM     24  C   UNL     1      -2.741  11.027  18.248  0.00  0.00    +0.000 C 
BRANCH  24  26
ATOM     25  C   UNL     1      -2.714  10.565  15.769  0.00  0.00    +0.000 C 
ATOM     26  C   UNL     1      -3.308  11.439  16.876  0.00  0.00    +0.000 C 
ATOM     27  C   UNL     1      -4.835  11.365  16.822  0.00  0.00    +0.000 C 
ENDBRANCH  24  26
ENDBRANCH  23  24
ENDBRANCH  22  23
ENDBRANCH   1  22
TORSDOF 5
ENDMDL
