MODEL 1
REMARK VINA RESULT:      -8.0      0.000      0.000
REMARK  Name = 
REMARK  6 active torsions:
REMARK  status: ('A' for Active; 'I' for Inactive)
REMARK    1  A    between atoms: N_1  and  C_2
REMARK    2  A    between atoms: C_7  and  C_8
REMARK    3  A    between atoms: C_8  and  O_10
REMARK    4  A    between atoms: O_10  and  C_11
REMARK    5  A    between atoms: C_11  and  C_12
REMARK    6  A    between atoms: N_14  and  C_15
REMARK                            x       y       z     vdW  Elec       q    Type
REMARK                         _______ _______ _______ _____ _____    ______ ____
ROOT
ATOM      1  C   UNL     1       5.173   6.721  17.153  0.00  0.00    +0.000 C 
ATOM      2  O   UNL     1       4.816   7.047  16.024  0.00  0.00    +0.000 OA
ATOM      3  N   UNL     1       4.299   6.349  18.151  0.00  0.00    +0.000 N 
ATOM      4  H   UNL     1       4.683   5.810  18.919  0.00  0.00    +0.000 HD
ENDROOT
BRANCH   3   5
ATOM      5  C   UNL     1       2.864   6.212  17.926  0.00  0.00    +0.000 C 
ATOM      6  C   UNL     1       2.046   7.265  18.691  0.00  0.00    +0.000 C 
ATOM      7  C   UNL     1       2.139   7.021  20.194  0.00  0.00    +0.000 C 
ATOM      8  C   UNL     1       1.516   5.675  20.555  0.00  0.00    +0.000 C 
ATOM      9  C   UNL     1       1.872   4.557  19.602  0.00  0.00    +0.000 A 
ATOM     10  C   UNL     1       1.548   3.240  19.962  0.00  0.00    +0.000 A 
ATOM     11  C   UNL     1       1.800   2.182  19.090  0.00  0.00    +0.000 A 
ATOM     12  C   UNL     1       2.370   2.428  17.844  0.00  0.00    +0.000 A 
ATOM     13  C   UNL     1       2.696   3.731  17.472  0.00  0.00    +0.000 A 
ATOM     14  C   UNL     1       2.446   4.809  18.340  0.00  0.00    +0.000 A 
ENDBRANCH   3   5
BRANCH   1  15
ATOM     15  C   UNL     1       6.647   6.689  17.568  0.00  0.00    +0.000 C 
BRANCH  15  16
ATOM     16  O   UNL     1       7.505   6.381  16.475  0.00  0.00    +0.000 OA
BRANCH  16  17
ATOM     17  C   UNL     1       7.652   5.051  16.233  0.00  0.00    +0.000 C 
ATOM     18  O   UNL     1       8.017   4.218  17.051  0.00  0.00    +0.000 OA
BRANCH  17  24
ATOM     19  C   UNL     1       6.374   3.752  14.513  0.00  0.00    +0.000 A 
ATOM     20  N   UNL     1       6.068   3.463  13.226  0.00  0.00    +0.000 NA
ATOM     21  C   UNL     1       6.702   4.190  12.276  0.00  0.00    +0.000 A 
ATOM     22  C   UNL     1       7.621   5.179  12.582  0.00  0.00    +0.000 A 
ATOM     23  N   UNL     1       7.953   5.482  13.852  0.00  0.00    +0.000 NA
ATOM     24  C   UNL     1       7.302   4.760  14.816  0.00  0.00    +0.000 A 
BRANCH  19  25
ATOM     25  N   UNL     1       5.624   3.055  15.456  0.00  0.00    +0.000 N 
ATOM     26  H   UNL     1       4.637   3.221  15.282  0.00  0.00    +0.000 HD
ATOM     27  H   UNL     1       5.876   2.071  15.515  0.00  0.00    +0.000 HD
ENDBRANCH  19  25
ENDBRANCH  17  24
ENDBRANCH  16  17
ENDBRANCH  15  16
ENDBRANCH   1  15
TORSDOF 6
ENDMDL
MODEL 2
REMARK VINA RESULT:      -7.7      1.671      3.297
REMARK  Name = 
REMARK  6 active torsions:
REMARK  status: ('A' for Active; 'I' for Inactive)
REMARK    1  A    between atoms: N_1  and  C_2
REMARK    2  A    between atoms: C_7  and  C_8
REMARK    3  A    between atoms: C_8  and  O_10
REMARK    4  A    between atoms: O_10  and  C_11
REMARK    5  A    between atoms: C_11  and  C_12
REMARK    6  A    between atoms: N_14  and  C_15
REMARK                            x       y       z     vdW  Elec       q    Type
REMARK                         _______ _______ _______ _____ _____    ______ ____
ROOT
ATOM      1  C   UNL     1       6.801   4.637  18.896  0.00  0.00    +0.000 C 
ATOM      2  O   UNL     1       6.828   5.370  19.881  0.00  0.00    +0.000 OA
ATOM      3  N   UNL     1       5.823   3.693  18.675  0.00  0.00    +0.000 N 
ATOM      4  H   UNL     1       5.706   3.370  17.721  0.00  0.00    +0.000 HD
ENDROOT
BRANCH   3   5
ATOM      5  C   UNL     1       4.665   3.543  19.550  0.00  0.00    +0.000 C 
ATOM      6  C   UNL     1       4.246   2.074  19.723  0.00  0.00    +0.000 C 
ATOM      7  C   UNL     1       3.705   1.518  18.410  0.00  0.00    +0.000 C 
ATOM      8  C   UNL     1       2.436   2.262  18.000  0.00  0.00    +0.000 C 
ATOM      9  C   UNL     1       2.511   3.758  18.192  0.00  0.00    +0.000 A 
ATOM     10  C   UNL     1       1.500   4.558  17.636  0.00  0.00    +0.000 A 
ATOM     11  C   UNL     1       1.492   5.937  17.840  0.00  0.00    +0.000 A 
ATOM     12  C   UNL     1       2.488   6.533  18.606  0.00  0.00    +0.000 A 
ATOM     13  C   UNL     1       3.498   5.752  19.165  0.00  0.00    +0.000 A 
ATOM     14  C   UNL     1       3.519   4.359  18.972  0.00  0.00    +0.000 A 
ENDBRANCH   3   5
BRANCH   1  15
ATOM     15  C   UNL     1       7.865   4.707  17.796  0.00  0.00    +0.000 C 
BRANCH  15  16
ATOM     16  O   UNL     1       7.370   4.252  16.542  0.00  0.00    +0.000 OA
BRANCH  16  17
ATOM     17  C   UNL     1       7.006   5.243  15.686  0.00  0.00    +0.000 C 
ATOM     18  O   UNL     1       6.845   6.418  15.990  0.00  0.00    +0.000 OA
BRANCH  17  24
ATOM     19  C   UNL     1       7.681   5.086  13.278  0.00  0.00    +0.000 A 
ATOM     20  N   UNL     1       7.513   4.602  12.026  0.00  0.00    +0.000 NA
ATOM     21  C   UNL     1       6.494   3.727  11.847  0.00  0.00    +0.000 A 
ATOM     22  C   UNL     1       5.655   3.339  12.877  0.00  0.00    +0.000 A 
ATOM     23  N   UNL     1       5.791   3.812  14.131  0.00  0.00    +0.000 NA
ATOM     24  C   UNL     1       6.830   4.683  14.319  0.00  0.00    +0.000 A 
BRANCH  19  25
ATOM     25  N   UNL     1       8.800   5.898  13.439  0.00  0.00    +0.000 N 
ATOM     26  H   UNL     1       8.574   6.648  14.087  0.00  0.00    +0.000 HD
ATOM     27  H   UNL     1       9.638   5.375  13.686  0.00  0.00    +0.000 HD
ENDBRANCH  19  25
ENDBRANCH  17  24
ENDBRANCH  16  17
ENDBRANCH  15  16
ENDBRANCH   1  15
TORSDOF 6
ENDMDL
MODEL 3
REMARK VINA RESULT:      -7.6      0.753      1.463
REMARK  Name = 
REMARK  6 active torsions:
REMARK  status: ('A' for Active; 'I' for Inactive)
REMARK    1  A    between atoms: N_1  and  C_2
REMARK    2  A    between atoms: C_7  and  C_8
REMARK    3  A    between atoms: C_8  and  O_10
REMARK    4  A    between atoms: O_10  and  C_11
REMARK    5  A    between atoms: C_11  and  C_12
REMARK    6  A    between atoms: N_14  and  C_15
REMARK                            x       y       z     vdW  Elec       q    Type
REMARK                         _______ _______ _______ _____ _____    ______ ____
ROOT
ATOM      1  C   UNL     1       5.312   6.875  16.698  0.00  0.00    +0.000 C 
ATOM      2  O   UNL     1       4.860   7.280  15.630  0.00  0.00    +0.000 OA
ATOM      3  N   UNL     1       4.531   6.370  17.714  0.00  0.00    +0.000 N 
ATOM      4  H   UNL     1       4.995   5.787  18.402  0.00  0.00    +0.000 HD
ENDROOT
BRANCH   3   5
ATOM      5  C   UNL     1       3.091   6.177  17.575  0.00  0.00    +0.000 C 
ATOM      6  C   UNL     1       2.280   7.211  18.373  0.00  0.00    +0.000 C 
ATOM      7  C   UNL     1       2.469   6.994  19.870  0.00  0.00    +0.000 C 
ATOM      8  C   UNL     1       1.919   5.631  20.285  0.00  0.00    +0.000 C 
ATOM      9  C   UNL     1       2.261   4.513  19.328  0.00  0.00    +0.000 A 
ATOM     10  C   UNL     1       2.009   3.190  19.724  0.00  0.00    +0.000 A 
ATOM     11  C   UNL     1       2.249   2.129  18.852  0.00  0.00    +0.000 A 
ATOM     12  C   UNL     1       2.737   2.376  17.573  0.00  0.00    +0.000 A 
ATOM     13  C   UNL     1       2.992   3.684  17.165  0.00  0.00    +0.000 A 
ATOM     14  C   UNL     1       2.752   4.766  18.032  0.00  0.00    +0.000 A 
ENDBRANCH   3   5
BRANCH   1  15
ATOM     15  C   UNL     1       6.812   6.886  17.007  0.00  0.00    +0.000 C 
BRANCH  15  16
ATOM     16  O   UNL     1       7.582   6.326  15.949  0.00  0.00    +0.000 OA
BRANCH  16  17
ATOM     17  C   UNL     1       7.524   4.970  15.868  0.00  0.00    +0.000 C 
ATOM     18  O   UNL     1       7.764   4.194  16.783  0.00  0.00    +0.000 OA
BRANCH  17  24
ATOM     19  C   UNL     1       7.771   5.129  13.380  0.00  0.00    +0.000 A 
ATOM     20  N   UNL     1       7.397   4.790  12.124  0.00  0.00    +0.000 NA
ATOM     21  C   UNL     1       6.382   3.899  12.014  0.00  0.00    +0.000 A 
ATOM     22  C   UNL     1       5.745   3.356  13.116  0.00  0.00    +0.000 A 
ATOM     23  N   UNL     1       6.088   3.682  14.377  0.00  0.00    +0.000 NA
ATOM     24  C   UNL     1       7.124   4.569  14.492  0.00  0.00    +0.000 A 
BRANCH  19  25
ATOM     25  N   UNL     1       8.883   5.964  13.447  0.00  0.00    +0.000 N 
ATOM     26  H   UNL     1       8.568   6.926  13.531  0.00  0.00    +0.000 HD
ATOM     27  H   UNL     1       9.549   5.680  14.163  0.00  0.00    +0.000 HD
ENDBRANCH  19  25
ENDBRANCH  17  24
ENDBRANCH  16  17
ENDBRANCH  15  16
ENDBRANCH   1  15
TORSDOF 6
ENDMDL
MODEL 4
REMARK VINA RESULT:      -7.4      1.586      3.015
REMARK  Name = 
REMARK  6 active torsions:
REMARK  status: ('A' for Active; 'I' for Inactive)
REMARK    1  A    between atoms: N_1  and  C_2
REMARK    2  A    between atoms: C_7  and  C_8
REMARK    3  A    between atoms: C_8  and  O_10
REMARK    4  A    between atoms: O_10  and  C_11
REMARK    5  A    between atoms: C_11  and  C_12
REMARK    6  A    between atoms: N_14  and  C_15
REMARK                            x       y       z     vdW  Elec       q    Type
REMARK                         _______ _______ _______ _____ _____    ______ ____
ROOT
ATOM      1  C   UNL     1       6.823   4.669  19.106  0.00  0.00    +0.000 C 
ATOM      2  O   UNL     1       6.780   5.400  20.092  0.00  0.00    +0.000 OA
ATOM      3  N   UNL     1       5.873   3.713  18.825  0.00  0.00    +0.000 N 
ATOM      4  H   UNL     1       5.818   3.390  17.865  0.00  0.00    +0.000 HD
ENDROOT
BRANCH   3   5
ATOM      5  C   UNL     1       4.666   3.546  19.627  0.00  0.00    +0.000 C 
ATOM      6  C   UNL     1       4.233   2.074  19.739  0.00  0.00    +0.000 C 
ATOM      7  C   UNL     1       3.767   1.553  18.384  0.00  0.00    +0.000 C 
ATOM      8  C   UNL     1       2.527   2.312  17.919  0.00  0.00    +0.000 C 
ATOM      9  C   UNL     1       2.594   3.803  18.153  0.00  0.00    +0.000 A 
ATOM     10  C   UNL     1       1.620   4.620  17.559  0.00  0.00    +0.000 A 
ATOM     11  C   UNL     1       1.604   5.994  17.796  0.00  0.00    +0.000 A 
ATOM     12  C   UNL     1       2.555   6.567  18.634  0.00  0.00    +0.000 A 
ATOM     13  C   UNL     1       3.529   5.769  19.231  0.00  0.00    +0.000 A 
ATOM     14  C   UNL     1       3.557   4.381  19.004  0.00  0.00    +0.000 A 
ENDBRANCH   3   5
BRANCH   1  15
ATOM     15  C   UNL     1       7.951   4.755  18.073  0.00  0.00    +0.000 C 
BRANCH  15  16
ATOM     16  O   UNL     1       7.512   4.392  16.769  0.00  0.00    +0.000 OA
BRANCH  16  17
ATOM     17  C   UNL     1       7.240   5.445  15.953  0.00  0.00    +0.000 C 
ATOM     18  O   UNL     1       7.178   6.615  16.303  0.00  0.00    +0.000 OA
BRANCH  17  24
ATOM     19  C   UNL     1       6.019   4.016  14.296  0.00  0.00    +0.000 A 
ATOM     20  N   UNL     1       5.834   3.547  13.040  0.00  0.00    +0.000 NA
ATOM     21  C   UNL     1       6.662   4.032  12.084  0.00  0.00    +0.000 A 
ATOM     22  C   UNL     1       7.656   4.955  12.357  0.00  0.00    +0.000 A 
ATOM     23  N   UNL     1       7.871   5.432  13.598  0.00  0.00    +0.000 NA
ATOM     24  C   UNL     1       7.025   4.957  14.563  0.00  0.00    +0.000 A 
BRANCH  19  25
ATOM     25  N   UNL     1       5.081   3.572  15.224  0.00  0.00    +0.000 N 
ATOM     26  H   UNL     1       4.151   3.815  14.895  0.00  0.00    +0.000 HD
ATOM     27  H   UNL     1       5.194   2.589  15.462  0.00  0.00    +0.000 HD
ENDBRANCH  19  25
ENDBRANCH  17  24
ENDBRANCH  16  17
ENDBRANCH  15  16
ENDBRANCH   1  15
TORSDOF 6
ENDMDL
MODEL 5
REMARK VINA RESULT:      -7.2      4.765      6.896
REMARK  Name = 
REMARK  6 active torsions:
REMARK  status: ('A' for Active; 'I' for Inactive)
REMARK    1  A    between atoms: N_1  and  C_2
REMARK    2  A    between atoms: C_7  and  C_8
REMARK    3  A    between atoms: C_8  and  O_10
REMARK    4  A    between atoms: O_10  and  C_11
REMARK    5  A    between atoms: C_11  and  C_12
REMARK    6  A    between atoms: N_14  and  C_15
REMARK                            x       y       z     vdW  Elec       q    Type
REMARK                         _______ _______ _______ _____ _____    ______ ____
ROOT
ATOM      1  C   UNL     1       7.835   7.389  17.935  0.00  0.00    +0.000 C 
ATOM      2  O   UNL     1       8.380   6.942  18.941  0.00  0.00    +0.000 OA
ATOM      3  N   UNL     1       7.209   6.602  16.994  0.00  0.00    +0.000 N 
ATOM      4  H   UNL     1       6.536   7.059  16.389  0.00  0.00    +0.000 HD
ENDROOT
BRANCH   3   5
ATOM      5  C   UNL     1       7.049   5.161  17.157  0.00  0.00    +0.000 C 
ATOM      6  C   UNL     1       7.286   4.391  15.847  0.00  0.00    +0.000 C 
ATOM      7  C   UNL     1       6.183   4.703  14.842  0.00  0.00    +0.000 C 
ATOM      8  C   UNL     1       4.833   4.219  15.364  0.00  0.00    +0.000 C 
ATOM      9  C   UNL     1       4.600   4.510  16.828  0.00  0.00    +0.000 A 
ATOM     10  C   UNL     1       3.312   4.321  17.353  0.00  0.00    +0.000 A 
ATOM     11  C   UNL     1       3.063   4.516  18.711  0.00  0.00    +0.000 A 
ATOM     12  C   UNL     1       4.096   4.895  19.562  0.00  0.00    +0.000 A 
ATOM     13  C   UNL     1       5.380   5.086  19.055  0.00  0.00    +0.000 A 
ATOM     14  C   UNL     1       5.649   4.891  17.688  0.00  0.00    +0.000 A 
ENDBRANCH   3   5
BRANCH   1  15
ATOM     15  C   UNL     1       7.791   8.889  17.627  0.00  0.00    +0.000 C 
BRANCH  15  16
ATOM     16  O   UNL     1       8.721   9.625  18.413  0.00  0.00    +0.000 OA
BRANCH  16  17
ATOM     17  C   UNL     1       8.806  10.945  18.096  0.00  0.00    +0.000 C 
ATOM     18  O   UNL     1       7.968  11.578  17.469  0.00  0.00    +0.000 OA
BRANCH  17  24
ATOM     19  C   UNL     1      10.315  11.523  20.010  0.00  0.00    +0.000 A 
ATOM     20  N   UNL     1      11.458  12.054  20.505  0.00  0.00    +0.000 NA
ATOM     21  C   UNL     1      12.333  12.555  19.600  0.00  0.00    +0.000 A 
ATOM     22  C   UNL     1      12.089  12.539  18.238  0.00  0.00    +0.000 A 
ATOM     23  N   UNL     1      10.957  12.027  17.718  0.00  0.00    +0.000 NA
ATOM     24  C   UNL     1      10.078  11.505  18.627  0.00  0.00    +0.000 A 
BRANCH  19  25
ATOM     25  N   UNL     1       9.494  10.927  20.963  0.00  0.00    +0.000 N 
ATOM     26  H   UNL     1       9.954  10.093  21.319  0.00  0.00    +0.000 HD
ATOM     27  H   UNL     1       9.191  11.575  21.687  0.00  0.00    +0.000 HD
ENDBRANCH  19  25
ENDBRANCH  17  24
ENDBRANCH  16  17
ENDBRANCH  15  16
ENDBRANCH   1  15
TORSDOF 6
ENDMDL
MODEL 6
REMARK VINA RESULT:      -7.1      4.882      6.856
REMARK  Name = 
REMARK  6 active torsions:
REMARK  status: ('A' for Active; 'I' for Inactive)
REMARK    1  A    between atoms: N_1  and  C_2
REMARK    2  A    between atoms: C_7  and  C_8
REMARK    3  A    between atoms: C_8  and  O_10
REMARK    4  A    between atoms: O_10  and  C_11
REMARK    5  A    between atoms: C_11  and  C_12
REMARK    6  A    between atoms: N_14  and  C_15
REMARK                            x       y       z     vdW  Elec       q    Type
REMARK                         _______ _______ _______ _____ _____    ______ ____
ROOT
ATOM      1  C   UNL     1       7.882   7.652  17.987  0.00  0.00    +0.000 C 
ATOM      2  O   UNL     1       8.495   7.163  18.933  0.00  0.00    +0.000 OA
ATOM      3  N   UNL     1       7.220   6.903  17.040  0.00  0.00    +0.000 N 
ATOM      4  H   UNL     1       6.503   7.376  16.501  0.00  0.00    +0.000 HD
ENDROOT
BRANCH   3   5
ATOM      5  C   UNL     1       7.102   5.451  17.128  0.00  0.00    +0.000 C 
ATOM      6  C   UNL     1       7.350   4.758  15.778  0.00  0.00    +0.000 C 
ATOM      7  C   UNL     1       6.232   5.091  14.797  0.00  0.00    +0.000 C 
ATOM      8  C   UNL     1       4.899   4.542  15.302  0.00  0.00    +0.000 C 
ATOM      9  C   UNL     1       4.670   4.750  16.781  0.00  0.00    +0.000 A 
ATOM     10  C   UNL     1       3.392   4.497  17.304  0.00  0.00    +0.000 A 
ATOM     11  C   UNL     1       3.147   4.614  18.671  0.00  0.00    +0.000 A 
ATOM     12  C   UNL     1       4.177   4.978  19.534  0.00  0.00    +0.000 A 
ATOM     13  C   UNL     1       5.451   5.231  19.030  0.00  0.00    +0.000 A 
ATOM     14  C   UNL     1       5.714   5.115  17.653  0.00  0.00    +0.000 A 
ENDBRANCH   3   5
BRANCH   1  15
ATOM     15  C   UNL     1       7.787   9.165  17.769  0.00  0.00    +0.000 C 
BRANCH  15  16
ATOM     16  O   UNL     1       9.068   9.785  17.742  0.00  0.00    +0.000 OA
BRANCH  16  17
ATOM     17  C   UNL     1       9.363  10.516  18.850  0.00  0.00    +0.000 C 
ATOM     18  O   UNL     1       8.992  10.260  19.987  0.00  0.00    +0.000 OA
BRANCH  17  24
ATOM     19  C   UNL     1       9.677  12.704  17.669  0.00  0.00    +0.000 A 
ATOM     20  N   UNL     1      10.445  13.753  17.296  0.00  0.00    +0.000 NA
ATOM     21  C   UNL     1      11.727  13.750  17.732  0.00  0.00    +0.000 A 
ATOM     22  C   UNL     1      12.246  12.734  18.515  0.00  0.00    +0.000 A 
ATOM     23  N   UNL     1      11.509  11.672  18.894  0.00  0.00    +0.000 NA
ATOM     24  C   UNL     1      10.208  11.680  18.469  0.00  0.00    +0.000 A 
BRANCH  19  25
ATOM     25  N   UNL     1       8.341  12.799  17.289  0.00  0.00    +0.000 N 
ATOM     26  H   UNL     1       7.764  12.863  18.123  0.00  0.00    +0.000 HD
ATOM     27  H   UNL     1       8.174  13.540  16.611  0.00  0.00    +0.000 HD
ENDBRANCH  19  25
ENDBRANCH  17  24
ENDBRANCH  16  17
ENDBRANCH  15  16
ENDBRANCH   1  15
TORSDOF 6
ENDMDL
MODEL 7
REMARK VINA RESULT:      -7.1      4.399      8.056
REMARK  Name = 
REMARK  6 active torsions:
REMARK  status: ('A' for Active; 'I' for Inactive)
REMARK    1  A    between atoms: N_1  and  C_2
REMARK    2  A    between atoms: C_7  and  C_8
REMARK    3  A    between atoms: C_8  and  O_10
REMARK    4  A    between atoms: O_10  and  C_11
REMARK    5  A    between atoms: C_11  and  C_12
REMARK    6  A    between atoms: N_14  and  C_15
REMARK                            x       y       z     vdW  Elec       q    Type
REMARK                         _______ _______ _______ _____ _____    ______ ____
ROOT
ATOM      1  C   UNL     1       2.347   7.713  18.895  0.00  0.00    +0.000 C 
ATOM      2  O   UNL     1       2.131   7.820  20.099  0.00  0.00    +0.000 OA
ATOM      3  N   UNL     1       3.136   6.726  18.347  0.00  0.00    +0.000 N 
ATOM      4  H   UNL     1       3.004   6.529  17.361  0.00  0.00    +0.000 HD
ENDROOT
BRANCH   3   5
ATOM      5  C   UNL     1       3.714   5.650  19.145  0.00  0.00    +0.000 C 
ATOM      6  C   UNL     1       5.151   5.307  18.717  0.00  0.00    +0.000 C 
ATOM      7  C   UNL     1       5.156   4.686  17.325  0.00  0.00    +0.000 C 
ATOM      8  C   UNL     1       4.402   3.358  17.331  0.00  0.00    +0.000 C 
ATOM      9  C   UNL     1       3.115   3.386  18.122  0.00  0.00    +0.000 A 
ATOM     10  C   UNL     1       2.232   2.301  18.005  0.00  0.00    +0.000 A 
ATOM     11  C   UNL     1       1.062   2.252  18.761  0.00  0.00    +0.000 A 
ATOM     12  C   UNL     1       0.763   3.281  19.648  0.00  0.00    +0.000 A 
ATOM     13  C   UNL     1       1.630   4.365  19.776  0.00  0.00    +0.000 A 
ATOM     14  C   UNL     1       2.816   4.427  19.022  0.00  0.00    +0.000 A 
ENDBRANCH   3   5
BRANCH   1  15
ATOM     15  C   UNL     1       1.744   8.676  17.868  0.00  0.00    +0.000 C 
BRANCH  15  16
ATOM     16  O   UNL     1       1.404   9.932  18.445  0.00  0.00    +0.000 OA
BRANCH  16  17
ATOM     17  C   UNL     1       0.086  10.255  18.355  0.00  0.00    +0.000 C 
ATOM     18  O   UNL     1      -0.714   9.755  17.576  0.00  0.00    +0.000 OA
BRANCH  17  24
ATOM     19  C   UNL     1      -0.730  12.555  18.920  0.00  0.00    +0.000 A 
ATOM     20  N   UNL     1      -1.003  13.533  19.816  0.00  0.00    +0.000 NA
ATOM     21  C   UNL     1      -0.772  13.242  21.118  0.00  0.00    +0.000 A 
ATOM     22  C   UNL     1      -0.280  12.017  21.533  0.00  0.00    +0.000 A 
ATOM     23  N   UNL     1       0.010  11.029  20.665  0.00  0.00    +0.000 NA
ATOM     24  C   UNL     1      -0.237  11.314  19.349  0.00  0.00    +0.000 A 
BRANCH  19  25
ATOM     25  N   UNL     1      -1.080  12.858  17.608  0.00  0.00    +0.000 N 
ATOM     26  H   UNL     1      -1.388  12.009  17.143  0.00  0.00    +0.000 HD
ATOM     27  H   UNL     1      -1.739  13.631  17.541  0.00  0.00    +0.000 HD
ENDBRANCH  19  25
ENDBRANCH  17  24
ENDBRANCH  16  17
ENDBRANCH  15  16
ENDBRANCH   1  15
TORSDOF 6
ENDMDL
MODEL 8
REMARK VINA RESULT:      -7.0      4.625      7.977
REMARK  Name = 
REMARK  6 active torsions:
REMARK  status: ('A' for Active; 'I' for Inactive)
REMARK    1  A    between atoms: N_1  and  C_2
REMARK    2  A    between atoms: C_7  and  C_8
REMARK    3  A    between atoms: C_8  and  O_10
REMARK    4  A    between atoms: O_10  and  C_11
REMARK    5  A    between atoms: C_11  and  C_12
REMARK    6  A    between atoms: N_14  and  C_15
REMARK                            x       y       z     vdW  Elec       q    Type
REMARK                         _______ _______ _______ _____ _____    ______ ____
ROOT
ATOM      1  C   UNL     1       2.195   7.878  18.953  0.00  0.00    +0.000 C 
ATOM      2  O   UNL     1       2.086   7.933  20.175  0.00  0.00    +0.000 OA
ATOM      3  N   UNL     1       2.957   6.935  18.299  0.00  0.00    +0.000 N 
ATOM      4  H   UNL     1       2.742   6.771  17.321  0.00  0.00    +0.000 HD
ENDROOT
BRANCH   3   5
ATOM      5  C   UNL     1       3.630   5.846  18.999  0.00  0.00    +0.000 C 
ATOM      6  C   UNL     1       5.017   5.537  18.410  0.00  0.00    +0.000 C 
ATOM      7  C   UNL     1       4.880   4.954  17.008  0.00  0.00    +0.000 C 
ATOM      8  C   UNL     1       4.148   3.615  17.057  0.00  0.00    +0.000 C 
ATOM      9  C   UNL     1       2.953   3.602  17.981  0.00  0.00    +0.000 A 
ATOM     10  C   UNL     1       2.075   2.507  17.928  0.00  0.00    +0.000 A 
ATOM     11  C   UNL     1       0.994   2.420  18.803  0.00  0.00    +0.000 A 
ATOM     12  C   UNL     1       0.780   3.419  19.747  0.00  0.00    +0.000 A 
ATOM     13  C   UNL     1       1.642   4.512  19.812  0.00  0.00    +0.000 A 
ATOM     14  C   UNL     1       2.739   4.614  18.938  0.00  0.00    +0.000 A 
ENDBRANCH   3   5
BRANCH   1  15
ATOM     15  C   UNL     1       1.480   8.861  18.022  0.00  0.00    +0.000 C 
BRANCH  15  16
ATOM     16  O   UNL     1       1.524  10.195  18.516  0.00  0.00    +0.000 OA
BRANCH  16  17
ATOM     17  C   UNL     1       0.329  10.673  18.956  0.00  0.00    +0.000 C 
ATOM     18  O   UNL     1      -0.683  10.007  19.121  0.00  0.00    +0.000 OA
BRANCH  17  24
ATOM     19  C   UNL     1      -0.294  13.041  18.425  0.00  0.00    +0.000 A 
ATOM     20  N   UNL     1      -0.181  14.375  18.628  0.00  0.00    +0.000 NA
ATOM     21  C   UNL     1       0.665  14.767  19.610  0.00  0.00    +0.000 A 
ATOM     22  C   UNL     1       1.390  13.868  20.373  0.00  0.00    +0.000 A 
ATOM     23  N   UNL     1       1.306  12.537  20.187  0.00  0.00    +0.000 NA
ATOM     24  C   UNL     1       0.439  12.136  19.207  0.00  0.00    +0.000 A 
BRANCH  19  25
ATOM     25  N   UNL     1      -1.251  12.679  17.481  0.00  0.00    +0.000 N 
ATOM     26  H   UNL     1      -1.803  13.497  17.240  0.00  0.00    +0.000 HD
ATOM     27  H   UNL     1      -0.853  12.195  16.678  0.00  0.00    +0.000 HD
ENDBRANCH  19  25
ENDBRANCH  17  24
ENDBRANCH  16  17
ENDBRANCH  15  16
ENDBRANCH   1  15
TORSDOF 6
ENDMDL
MODEL 9
REMARK VINA RESULT:      -7.0      1.355      2.095
REMARK  Name = 
REMARK  6 active torsions:
REMARK  status: ('A' for Active; 'I' for Inactive)
REMARK    1  A    between atoms: N_1  and  C_2
REMARK    2  A    between atoms: C_7  and  C_8
REMARK    3  A    between atoms: C_8  and  O_10
REMARK    4  A    between atoms: O_10  and  C_11
REMARK    5  A    between atoms: C_11  and  C_12
REMARK    6  A    between atoms: N_14  and  C_15
REMARK                            x       y       z     vdW  Elec       q    Type
REMARK                         _______ _______ _______ _____ _____    ______ ____
ROOT
ATOM      1  C   UNL     1       5.001   4.248  17.430  0.00  0.00    +0.000 C 
ATOM      2  O   UNL     1       4.514   3.325  16.783  0.00  0.00    +0.000 OA
ATOM      3  N   UNL     1       4.257   5.269  17.979  0.00  0.00    +0.000 N 
ATOM      4  H   UNL     1       4.685   5.791  18.736  0.00  0.00    +0.000 HD
ENDROOT
BRANCH   3   5
ATOM      5  C   UNL     1       2.800   5.295  17.925  0.00  0.00    +0.000 C 
ATOM      6  C   UNL     1       2.230   6.711  18.113  0.00  0.00    +0.000 C 
ATOM      7  C   UNL     1       2.487   7.203  19.533  0.00  0.00    +0.000 C 
ATOM      8  C   UNL     1       1.749   6.326  20.542  0.00  0.00    +0.000 C 
ATOM      9  C   UNL     1       1.832   4.847  20.247  0.00  0.00    +0.000 A 
ATOM     10  C   UNL     1       1.392   3.941  21.226  0.00  0.00    +0.000 A 
ATOM     11  C   UNL     1       1.391   2.570  20.976  0.00  0.00    +0.000 A 
ATOM     12  C   UNL     1       1.820   2.086  19.745  0.00  0.00    +0.000 A 
ATOM     13  C   UNL     1       2.259   2.972  18.763  0.00  0.00    +0.000 A 
ATOM     14  C   UNL     1       2.264   4.359  18.998  0.00  0.00    +0.000 A 
ENDBRANCH   3   5
BRANCH   1  15
ATOM     15  C   UNL     1       6.505   4.353  17.700  0.00  0.00    +0.000 C 
BRANCH  15  16
ATOM     16  O   UNL     1       7.272   4.266  16.505  0.00  0.00    +0.000 OA
BRANCH  16  17
ATOM     17  C   UNL     1       7.055   5.277  15.622  0.00  0.00    +0.000 C 
ATOM     18  O   UNL     1       6.985   6.465  15.908  0.00  0.00    +0.000 OA
BRANCH  17  24
ATOM     19  C   UNL     1       7.772   5.143  13.225  0.00  0.00    +0.000 A 
ATOM     20  N   UNL     1       7.633   4.661  11.968  0.00  0.00    +0.000 NA
ATOM     21  C   UNL     1       6.634   3.768  11.769  0.00  0.00    +0.000 A 
ATOM     22  C   UNL     1       5.786   3.360  12.784  0.00  0.00    +0.000 A 
ATOM     23  N   UNL     1       5.893   3.830  14.041  0.00  0.00    +0.000 NA
ATOM     24  C   UNL     1       6.912   4.720  14.249  0.00  0.00    +0.000 A 
BRANCH  19  25
ATOM     25  N   UNL     1       8.873   5.975  13.407  0.00  0.00    +0.000 N 
ATOM     26  H   UNL     1       9.421   5.630  14.190  0.00  0.00    +0.000 HD
ATOM     27  H   UNL     1       9.410   6.116  12.554  0.00  0.00    +0.000 HD
ENDBRANCH  19  25
ENDBRANCH  17  24
ENDBRANCH  16  17
ENDBRANCH  15  16
ENDBRANCH   1  15
TORSDOF 6
ENDMDL
