MODEL 1
REMARK VINA RESULT:      -8.5      0.000      0.000
REMARK  Name = 
REMARK  8 active torsions:
REMARK  status: ('A' for Active; 'I' for Inactive)
REMARK    1  A    between atoms: C_1  and  O_2
REMARK    2  A    between atoms: O_2  and  C_3
REMARK    3  A    between atoms: C_6  and  C_7
REMARK    4  A    between atoms: C_10  and  C_11
REMARK    5  A    between atoms: N_14  and  C_15
REMARK    6  A    between atoms: C_15  and  C_16
REMARK    7  A    between atoms: C_20  and  O_21
REMARK    8  A    between atoms: O_21  and  C_22
REMARK                            x       y       z     vdW  Elec       q    Type
REMARK                         _______ _______ _______ _____ _____    ______ ____
ROOT
ATOM      1  C   UNL     1       3.268   3.924  19.240  0.00  0.00    +0.000 C 
ATOM      2  C   UNL     1       3.268   3.131  17.889  0.00  0.00    +0.000 C 
ATOM      3  C   UNL     1       3.772   3.897  16.640  0.00  0.00    +0.000 C 
ATOM      4  N   UNL     1       5.161   4.345  16.782  0.00  0.00    +0.000 NA
ATOM      5  C   UNL     1       5.626   4.467  18.163  0.00  0.00    +0.000 C 
ATOM      6  C   UNL     1       4.794   3.603  19.146  0.00  0.00    +0.000 C 
ATOM      7  N   UNL     1       4.374   2.285  18.503  0.00  0.00    +0.000 NA
ATOM      8  H   UNL     1       4.029   1.597  19.171  0.00  0.00    +0.000 HD
ENDROOT
BRANCH   1  12
ATOM      9  C   UNL     1       1.641   8.085  19.598  0.00  0.00    +0.000 A 
ATOM     10  C   UNL     1       1.521   7.142  20.630  0.00  0.00    +0.000 A 
ATOM     11  C   UNL     1       2.036   5.843  20.507  0.00  0.00    +0.000 A 
ATOM     12  C   UNL     1       2.696   5.401  19.347  0.00  0.00    +0.000 A 
ATOM     13  C   UNL     1       2.864   6.372  18.345  0.00  0.00    +0.000 A 
ATOM     14  C   UNL     1       2.343   7.672  18.458  0.00  0.00    +0.000 A 
BRANCH   9  18
ATOM     15  C   UNL     1      -0.174  12.003  19.880  0.00  0.00    +0.000 A 
ATOM     16  C   UNL     1      -0.402  11.042  20.861  0.00  0.00    +0.000 A 
ATOM     17  C   UNL     1       0.208   9.786  20.786  0.00  0.00    +0.000 A 
ATOM     18  C   UNL     1       1.042   9.436  19.708  0.00  0.00    +0.000 A 
ATOM     19  C   UNL     1       1.251  10.422  18.724  0.00  0.00    +0.000 A 
ATOM     20  C   UNL     1       0.654  11.689  18.805  0.00  0.00    +0.000 A 
BRANCH  15  22
ATOM     21  C   UNL     1      -1.856  13.184  21.047  0.00  0.00    +0.000 C 
ATOM     22  O   UNL     1      -0.837  13.185  20.053  0.00  0.00    +0.000 OA
ENDBRANCH  15  22
ENDBRANCH   9  18
ENDBRANCH   1  12
BRANCH   4  23
ATOM     23  C   UNL     1       5.632   5.360  15.847  0.00  0.00    +0.000 C 
BRANCH  23  24
ATOM     24  C   UNL     1       6.148   4.853  14.514  0.00  0.00    +0.000 A 
ATOM     25  C   UNL     1       7.363   5.310  13.990  0.00  0.00    +0.000 A 
ATOM     26  C   UNL     1       7.823   4.845  12.758  0.00  0.00    +0.000 A 
ATOM     27  C   UNL     1       7.070   3.922  12.035  0.00  0.00    +0.000 A 
ATOM     28  C   UNL     1       5.856   3.455  12.537  0.00  0.00    +0.000 A 
ATOM     29  C   UNL     1       5.408   3.904  13.780  0.00  0.00    +0.000 A 
BRANCH  28  30
ATOM     30  O   UNL     1       5.216   2.542  11.744  0.00  0.00    +0.000 OA
ATOM     31  C   UNL     1       6.007   1.446  11.300  0.00  0.00    +0.000 C 
ENDBRANCH  28  30
ENDBRANCH  23  24
ENDBRANCH   4  23
TORSDOF 6
ENDMDL
MODEL 2
REMARK VINA RESULT:      -8.4      0.893      1.528
REMARK  Name = 
REMARK  8 active torsions:
REMARK  status: ('A' for Active; 'I' for Inactive)
REMARK    1  A    between atoms: C_1  and  O_2
REMARK    2  A    between atoms: O_2  and  C_3
REMARK    3  A    between atoms: C_6  and  C_7
REMARK    4  A    between atoms: C_10  and  C_11
REMARK    5  A    between atoms: N_14  and  C_15
REMARK    6  A    between atoms: C_15  and  C_16
REMARK    7  A    between atoms: C_20  and  O_21
REMARK    8  A    between atoms: O_21  and  C_22
REMARK                            x       y       z     vdW  Elec       q    Type
REMARK                         _______ _______ _______ _____ _____    ______ ____
ROOT
ATOM      1  C   UNL     1       3.686   4.495  19.530  0.00  0.00    +0.000 C 
ATOM      2  C   UNL     1       3.667   3.505  18.316  0.00  0.00    +0.000 C 
ATOM      3  C   UNL     1       3.942   4.121  16.921  0.00  0.00    +0.000 C 
ATOM      4  N   UNL     1       5.264   4.749  16.837  0.00  0.00    +0.000 NA
ATOM      5  C   UNL     1       5.836   5.142  18.125  0.00  0.00    +0.000 C 
ATOM      6  C   UNL     1       5.227   4.349  19.310  0.00  0.00    +0.000 C 
ATOM      7  N   UNL     1       4.931   2.906  18.915  0.00  0.00    +0.000 NA
ATOM      8  H   UNL     1       4.747   2.295  19.710  0.00  0.00    +0.000 HD
ENDROOT
BRANCH   1  12
ATOM      9  C   UNL     1       1.564   8.438  19.354  0.00  0.00    +0.000 A 
ATOM     10  C   UNL     1       2.275   7.921  18.261  0.00  0.00    +0.000 A 
ATOM     11  C   UNL     1       2.934   6.684  18.328  0.00  0.00    +0.000 A 
ATOM     12  C   UNL     1       2.931   5.891  19.488  0.00  0.00    +0.000 A 
ATOM     13  C   UNL     1       2.164   6.390  20.555  0.00  0.00    +0.000 A 
ATOM     14  C   UNL     1       1.510   7.632  20.498  0.00  0.00    +0.000 A 
BRANCH   9  18
ATOM     15  C   UNL     1      -0.281  12.352  19.266  0.00  0.00    +0.000 A 
ATOM     16  C   UNL     1       1.010  12.164  18.782  0.00  0.00    +0.000 A 
ATOM     17  C   UNL     1       1.596  10.895  18.783  0.00  0.00    +0.000 A 
ATOM     18  C   UNL     1       0.921   9.773  19.299  0.00  0.00    +0.000 A 
ATOM     19  C   UNL     1      -0.381   9.989  19.790  0.00  0.00    +0.000 A 
ATOM     20  C   UNL     1      -0.978  11.259  19.775  0.00  0.00    +0.000 A 
BRANCH  15  22
ATOM     21  C   UNL     1       0.182  14.611  18.746  0.00  0.00    +0.000 C 
ATOM     22  O   UNL     1      -0.739  13.638  19.229  0.00  0.00    +0.000 OA
ENDBRANCH  15  22
ENDBRANCH   9  18
ENDBRANCH   1  12
BRANCH   4  23
ATOM     23  C   UNL     1       5.502   5.654  15.719  0.00  0.00    +0.000 C 
BRANCH  23  24
ATOM     24  C   UNL     1       6.069   5.026  14.461  0.00  0.00    +0.000 A 
ATOM     25  C   UNL     1       7.348   5.361  14.000  0.00  0.00    +0.000 A 
ATOM     26  C   UNL     1       7.855   4.786  12.835  0.00  0.00    +0.000 A 
ATOM     27  C   UNL     1       7.087   3.873  12.116  0.00  0.00    +0.000 A 
ATOM     28  C   UNL     1       5.810   3.526  12.555  0.00  0.00    +0.000 A 
ATOM     29  C   UNL     1       5.312   4.085  13.733  0.00  0.00    +0.000 A 
BRANCH  28  30
ATOM     30  O   UNL     1       5.159   2.610  11.774  0.00  0.00    +0.000 OA
ATOM     31  C   UNL     1       3.972   3.073  11.137  0.00  0.00    +0.000 C 
ENDBRANCH  28  30
ENDBRANCH  23  24
ENDBRANCH   4  23
TORSDOF 6
ENDMDL
MODEL 3
REMARK VINA RESULT:      -8.3      0.875      1.157
REMARK  Name = 
REMARK  8 active torsions:
REMARK  status: ('A' for Active; 'I' for Inactive)
REMARK    1  A    between atoms: C_1  and  O_2
REMARK    2  A    between atoms: O_2  and  C_3
REMARK    3  A    between atoms: C_6  and  C_7
REMARK    4  A    between atoms: C_10  and  C_11
REMARK    5  A    between atoms: N_14  and  C_15
REMARK    6  A    between atoms: C_15  and  C_16
REMARK    7  A    between atoms: C_20  and  O_21
REMARK    8  A    between atoms: O_21  and  C_22
REMARK                            x       y       z     vdW  Elec       q    Type
REMARK                         _______ _______ _______ _____ _____    ______ ____
ROOT
ATOM      1  C   UNL     1       3.381   4.489  19.165  0.00  0.00    +0.000 C 
ATOM      2  C   UNL     1       3.447   3.553  17.909  0.00  0.00    +0.000 C 
ATOM      3  C   UNL     1       3.983   4.189  16.603  0.00  0.00    +0.000 C 
ATOM      4  N   UNL     1       5.357   4.682  16.743  0.00  0.00    +0.000 NA
ATOM      5  C   UNL     1       5.766   4.965  18.118  0.00  0.00    +0.000 C 
ATOM      6  C   UNL     1       4.916   4.194  19.160  0.00  0.00    +0.000 C 
ATOM      7  N   UNL     1       4.546   2.805  18.651  0.00  0.00    +0.000 NA
ATOM      8  H   UNL     1       4.189   2.186  19.379  0.00  0.00    +0.000 HD
ENDROOT
BRANCH   1  12
ATOM      9  C   UNL     1       1.671   8.628  19.007  0.00  0.00    +0.000 A 
ATOM     10  C   UNL     1       1.706   7.876  20.191  0.00  0.00    +0.000 A 
ATOM     11  C   UNL     1       2.246   6.582  20.228  0.00  0.00    +0.000 A 
ATOM     12  C   UNL     1       2.777   5.954  19.088  0.00  0.00    +0.000 A 
ATOM     13  C   UNL     1       2.792   6.740  17.923  0.00  0.00    +0.000 A 
ATOM     14  C   UNL     1       2.245   8.033  17.876  0.00  0.00    +0.000 A 
BRANCH   9  18
ATOM     15  C   UNL     1      -0.139  12.558  18.943  0.00  0.00    +0.000 A 
ATOM     16  C   UNL     1       1.211  12.393  18.650  0.00  0.00    +0.000 A 
ATOM     17  C   UNL     1       1.790  11.121  18.641  0.00  0.00    +0.000 A 
ATOM     18  C   UNL     1       1.044   9.971  18.958  0.00  0.00    +0.000 A 
ATOM     19  C   UNL     1      -0.318  10.163  19.259  0.00  0.00    +0.000 A 
ATOM     20  C   UNL     1      -0.905  11.437  19.252  0.00  0.00    +0.000 A 
BRANCH  15  22
ATOM     21  C   UNL     1       0.033  14.725  19.873  0.00  0.00    +0.000 C 
ATOM     22  O   UNL     1      -0.586  13.849  18.936  0.00  0.00    +0.000 OA
ENDBRANCH  15  22
ENDBRANCH   9  18
ENDBRANCH   1  12
BRANCH   4  23
ATOM     23  C   UNL     1       5.842   5.600  15.720  0.00  0.00    +0.000 C 
BRANCH  23  24
ATOM     24  C   UNL     1       6.283   4.970  14.412  0.00  0.00    +0.000 A 
ATOM     25  C   UNL     1       7.474   5.360  13.789  0.00  0.00    +0.000 A 
ATOM     26  C   UNL     1       7.864   4.783  12.580  0.00  0.00    +0.000 A 
ATOM     27  C   UNL     1       7.064   3.812  11.981  0.00  0.00    +0.000 A 
ATOM     28  C   UNL     1       5.873   3.410  12.583  0.00  0.00    +0.000 A 
ATOM     29  C   UNL     1       5.495   3.973  13.803  0.00  0.00    +0.000 A 
BRANCH  28  30
ATOM     30  O   UNL     1       5.182   2.441  11.908  0.00  0.00    +0.000 OA
ATOM     31  C   UNL     1       5.975   1.460  11.250  0.00  0.00    +0.000 C 
ENDBRANCH  28  30
ENDBRANCH  23  24
ENDBRANCH   4  23
TORSDOF 6
ENDMDL
MODEL 4
REMARK VINA RESULT:      -8.3      3.509      9.812
REMARK  Name = 
REMARK  8 active torsions:
REMARK  status: ('A' for Active; 'I' for Inactive)
REMARK    1  A    between atoms: C_1  and  O_2
REMARK    2  A    between atoms: O_2  and  C_3
REMARK    3  A    between atoms: C_6  and  C_7
REMARK    4  A    between atoms: C_10  and  C_11
REMARK    5  A    between atoms: N_14  and  C_15
REMARK    6  A    between atoms: C_15  and  C_16
REMARK    7  A    between atoms: C_20  and  O_21
REMARK    8  A    between atoms: O_21  and  C_22
REMARK                            x       y       z     vdW  Elec       q    Type
REMARK                         _______ _______ _______ _____ _____    ______ ____
ROOT
ATOM      1  C   UNL     1       1.006   8.411  21.595  0.00  0.00    +0.000 C 
ATOM      2  C   UNL     1       1.067   9.955  21.860  0.00  0.00    +0.000 C 
ATOM      3  C   UNL     1       0.905  10.873  20.622  0.00  0.00    +0.000 C 
ATOM      4  N   UNL     1      -0.385  10.685  19.952  0.00  0.00    +0.000 NA
ATOM      5  C   UNL     1      -1.024   9.395  20.207  0.00  0.00    +0.000 C 
ATOM      6  C   UNL     1      -0.521   8.733  21.516  0.00  0.00    +0.000 C 
ATOM      7  N   UNL     1      -0.254   9.778  22.594  0.00  0.00    +0.000 NA
ATOM      8  H   UNL     1      -0.144   9.382  23.527  0.00  0.00    +0.000 HD
ENDROOT
BRANCH   1  12
ATOM      9  C   UNL     1       3.281   6.436  18.277  0.00  0.00    +0.000 A 
ATOM     10  C   UNL     1       3.007   5.785  19.489  0.00  0.00    +0.000 A 
ATOM     11  C   UNL     1       2.292   6.413  20.520  0.00  0.00    +0.000 A 
ATOM     12  C   UNL     1       1.812   7.730  20.410  0.00  0.00    +0.000 A 
ATOM     13  C   UNL     1       2.039   8.349  19.169  0.00  0.00    +0.000 A 
ATOM     14  C   UNL     1       2.762   7.730  18.136  0.00  0.00    +0.000 A 
BRANCH   9  18
ATOM     15  C   UNL     1       5.704   4.551  15.227  0.00  0.00    +0.000 A 
ATOM     16  C   UNL     1       4.988   3.783  16.141  0.00  0.00    +0.000 A 
ATOM     17  C   UNL     1       4.181   4.391  17.108  0.00  0.00    +0.000 A 
ATOM     18  C   UNL     1       4.089   5.791  17.215  0.00  0.00    +0.000 A 
ATOM     19  C   UNL     1       4.829   6.546  16.285  0.00  0.00    +0.000 A 
ATOM     20  C   UNL     1       5.626   5.939  15.303  0.00  0.00    +0.000 A 
BRANCH  15  22
ATOM     21  C   UNL     1       5.889   3.626  13.060  0.00  0.00    +0.000 C 
ATOM     22  O   UNL     1       6.468   3.845  14.342  0.00  0.00    +0.000 OA
ENDBRANCH  15  22
ENDBRANCH   9  18
ENDBRANCH   1  12
BRANCH   4  23
ATOM     23  C   UNL     1      -0.517  11.219  18.601  0.00  0.00    +0.000 C 
BRANCH  23  24
ATOM     24  C   UNL     1      -1.879  11.065  17.952  0.00  0.00    +0.000 A 
ATOM     25  C   UNL     1      -2.051  10.262  16.818  0.00  0.00    +0.000 A 
ATOM     26  C   UNL     1      -3.306  10.137  16.222  0.00  0.00    +0.000 A 
ATOM     27  C   UNL     1      -4.401  10.816  16.752  0.00  0.00    +0.000 A 
ATOM     28  C   UNL     1      -4.252  11.622  17.880  0.00  0.00    +0.000 A 
ATOM     29  C   UNL     1      -3.001  11.729  18.488  0.00  0.00    +0.000 A 
BRANCH  28  30
ATOM     30  O   UNL     1      -5.401  12.225  18.315  0.00  0.00    +0.000 OA
ATOM     31  C   UNL     1      -6.612  11.539  18.016  0.00  0.00    +0.000 C 
ENDBRANCH  28  30
ENDBRANCH  23  24
ENDBRANCH   4  23
TORSDOF 6
ENDMDL
MODEL 5
REMARK VINA RESULT:      -8.3      4.216      9.874
REMARK  Name = 
REMARK  8 active torsions:
REMARK  status: ('A' for Active; 'I' for Inactive)
REMARK    1  A    between atoms: C_1  and  O_2
REMARK    2  A    between atoms: O_2  and  C_3
REMARK    3  A    between atoms: C_6  and  C_7
REMARK    4  A    between atoms: C_10  and  C_11
REMARK    5  A    between atoms: N_14  and  C_15
REMARK    6  A    between atoms: C_15  and  C_16
REMARK    7  A    between atoms: C_20  and  O_21
REMARK    8  A    between atoms: O_21  and  C_22
REMARK                            x       y       z     vdW  Elec       q    Type
REMARK                         _______ _______ _______ _____ _____    ______ ____
ROOT
ATOM      1  C   UNL     1       0.104  10.384  20.634  0.00  0.00    +0.000 C 
ATOM      2  C   UNL     1       0.739  11.663  21.280  0.00  0.00    +0.000 C 
ATOM      3  C   UNL     1       1.720  12.469  20.393  0.00  0.00    +0.000 C 
ATOM      4  N   UNL     1       1.084  12.975  19.172  0.00  0.00    +0.000 NA
ATOM      5  C   UNL     1      -0.112  12.242  18.759  0.00  0.00    +0.000 C 
ATOM      6  C   UNL     1      -0.772  11.473  19.933  0.00  0.00    +0.000 C 
ATOM      7  N   UNL     1      -0.662  12.257  21.236  0.00  0.00    +0.000 NA
ATOM      8  H   UNL     1      -1.270  11.905  21.975  0.00  0.00    +0.000 HD
ENDROOT
BRANCH   1  12
ATOM      9  C   UNL     1       2.566   7.358  18.429  0.00  0.00    +0.000 A 
ATOM     10  C   UNL     1       2.266   7.229  19.793  0.00  0.00    +0.000 A 
ATOM     11  C   UNL     1       1.492   8.182  20.472  0.00  0.00    +0.000 A 
ATOM     12  C   UNL     1       0.977   9.325  19.837  0.00  0.00    +0.000 A 
ATOM     13  C   UNL     1       1.232   9.411  18.457  0.00  0.00    +0.000 A 
ATOM     14  C   UNL     1       2.014   8.466  17.773  0.00  0.00    +0.000 A 
BRANCH   9  18
ATOM     15  C   UNL     1       5.055   4.511  16.325  0.00  0.00    +0.000 A 
ATOM     16  C   UNL     1       5.311   5.877  16.240  0.00  0.00    +0.000 A 
ATOM     17  C   UNL     1       4.525   6.795  16.943  0.00  0.00    +0.000 A 
ATOM     18  C   UNL     1       3.435   6.381  17.730  0.00  0.00    +0.000 A 
ATOM     19  C   UNL     1       3.192   4.995  17.795  0.00  0.00    +0.000 A 
ATOM     20  C   UNL     1       3.989   4.070  17.103  0.00  0.00    +0.000 A 
BRANCH  15  22
ATOM     21  C   UNL     1       6.843   4.394  14.783  0.00  0.00    +0.000 C 
ATOM     22  O   UNL     1       5.880   3.715  15.581  0.00  0.00    +0.000 OA
ENDBRANCH  15  22
ENDBRANCH   9  18
ENDBRANCH   1  12
BRANCH   4  23
ATOM     23  C   UNL     1       1.963  13.436  18.105  0.00  0.00    +0.000 C 
BRANCH  23  24
ATOM     24  C   UNL     1       2.863  14.609  18.441  0.00  0.00    +0.000 A 
ATOM     25  C   UNL     1       2.342  15.781  19.003  0.00  0.00    +0.000 A 
ATOM     26  C   UNL     1       3.178  16.858  19.298  0.00  0.00    +0.000 A 
ATOM     27  C   UNL     1       4.542  16.777  19.030  0.00  0.00    +0.000 A 
ATOM     28  C   UNL     1       5.083  15.621  18.469  0.00  0.00    +0.000 A 
ATOM     29  C   UNL     1       4.249  14.535  18.195  0.00  0.00    +0.000 A 
BRANCH  28  30
ATOM     30  O   UNL     1       6.435  15.655  18.265  0.00  0.00    +0.000 OA
ATOM     31  C   UNL     1       7.010  14.470  17.726  0.00  0.00    +0.000 C 
ENDBRANCH  28  30
ENDBRANCH  23  24
ENDBRANCH   4  23
TORSDOF 6
ENDMDL
MODEL 6
REMARK VINA RESULT:      -8.3      0.637      1.075
REMARK  Name = 
REMARK  8 active torsions:
REMARK  status: ('A' for Active; 'I' for Inactive)
REMARK    1  A    between atoms: C_1  and  O_2
REMARK    2  A    between atoms: O_2  and  C_3
REMARK    3  A    between atoms: C_6  and  C_7
REMARK    4  A    between atoms: C_10  and  C_11
REMARK    5  A    between atoms: N_14  and  C_15
REMARK    6  A    between atoms: C_15  and  C_16
REMARK    7  A    between atoms: C_20  and  O_21
REMARK    8  A    between atoms: O_21  and  C_22
REMARK                            x       y       z     vdW  Elec       q    Type
REMARK                         _______ _______ _______ _____ _____    ______ ____
ROOT
ATOM      1  C   UNL     1       3.181   3.557  19.291  0.00  0.00    +0.000 C 
ATOM      2  C   UNL     1       3.148   2.880  17.878  0.00  0.00    +0.000 C 
ATOM      3  C   UNL     1       3.633   3.746  16.688  0.00  0.00    +0.000 C 
ATOM      4  N   UNL     1       5.027   4.172  16.838  0.00  0.00    +0.000 NA
ATOM      5  C   UNL     1       5.521   4.175  18.214  0.00  0.00    +0.000 C 
ATOM      6  C   UNL     1       4.703   3.235  19.138  0.00  0.00    +0.000 C 
ATOM      7  N   UNL     1       4.260   1.979  18.395  0.00  0.00    +0.000 NA
ATOM      8  H   UNL     1       3.924   1.239  19.010  0.00  0.00    +0.000 HD
ENDROOT
BRANCH   1  12
ATOM      9  C   UNL     1       1.619   7.710  19.921  0.00  0.00    +0.000 A 
ATOM     10  C   UNL     1       2.352   7.350  18.780  0.00  0.00    +0.000 A 
ATOM     11  C   UNL     1       2.834   6.046  18.593  0.00  0.00    +0.000 A 
ATOM     12  C   UNL     1       2.622   5.022  19.533  0.00  0.00    +0.000 A 
ATOM     13  C   UNL     1       1.835   5.379  20.641  0.00  0.00    +0.000 A 
ATOM     14  C   UNL     1       1.357   6.685  20.839  0.00  0.00    +0.000 A 
BRANCH   9  18
ATOM     15  C   UNL     1       0.217  11.755  20.550  0.00  0.00    +0.000 A 
ATOM     16  C   UNL     1       0.194  10.826  21.586  0.00  0.00    +0.000 A 
ATOM     17  C   UNL     1       0.674   9.528  21.392  0.00  0.00    +0.000 A 
ATOM     18  C   UNL     1       1.164   9.103  20.143  0.00  0.00    +0.000 A 
ATOM     19  C   UNL     1       1.171  10.058  19.108  0.00  0.00    +0.000 A 
ATOM     20  C   UNL     1       0.705  11.367  19.305  0.00  0.00    +0.000 A 
BRANCH  15  22
ATOM     21  C   UNL     1      -1.711  13.099  20.803  0.00  0.00    +0.000 C 
ATOM     22  O   UNL     1      -0.293  12.985  20.855  0.00  0.00    +0.000 OA
ENDBRANCH  15  22
ENDBRANCH   9  18
ENDBRANCH   1  12
BRANCH   4  23
ATOM     23  C   UNL     1       5.487   5.260  15.982  0.00  0.00    +0.000 C 
BRANCH  23  24
ATOM     24  C   UNL     1       6.087   4.854  14.650  0.00  0.00    +0.000 A 
ATOM     25  C   UNL     1       7.273   5.435  14.186  0.00  0.00    +0.000 A 
ATOM     26  C   UNL     1       7.810   5.063  12.954  0.00  0.00    +0.000 A 
ATOM     27  C   UNL     1       7.164   4.108  12.171  0.00  0.00    +0.000 A 
ATOM     28  C   UNL     1       5.981   3.518  12.612  0.00  0.00    +0.000 A 
ATOM     29  C   UNL     1       5.456   3.876  13.855  0.00  0.00    +0.000 A 
BRANCH  28  30
ATOM     30  O   UNL     1       5.448   2.586  11.763  0.00  0.00    +0.000 OA
ATOM     31  C   UNL     1       4.174   2.906  11.215  0.00  0.00    +0.000 C 
ENDBRANCH  28  30
ENDBRANCH  23  24
ENDBRANCH   4  23
TORSDOF 6
ENDMDL
MODEL 7
REMARK VINA RESULT:      -8.2      4.049     10.302
REMARK  Name = 
REMARK  8 active torsions:
REMARK  status: ('A' for Active; 'I' for Inactive)
REMARK    1  A    between atoms: C_1  and  O_2
REMARK    2  A    between atoms: O_2  and  C_3
REMARK    3  A    between atoms: C_6  and  C_7
REMARK    4  A    between atoms: C_10  and  C_11
REMARK    5  A    between atoms: N_14  and  C_15
REMARK    6  A    between atoms: C_15  and  C_16
REMARK    7  A    between atoms: C_20  and  O_21
REMARK    8  A    between atoms: O_21  and  C_22
REMARK                            x       y       z     vdW  Elec       q    Type
REMARK                         _______ _______ _______ _____ _____    ______ ____
ROOT
ATOM      1  C   UNL     1       0.115  10.224  20.599  0.00  0.00    +0.000 C 
ATOM      2  C   UNL     1       0.694  11.533  21.239  0.00  0.00    +0.000 C 
ATOM      3  C   UNL     1       1.635  12.379  20.345  0.00  0.00    +0.000 C 
ATOM      4  N   UNL     1       0.973  12.851  19.126  0.00  0.00    +0.000 NA
ATOM      5  C   UNL     1      -0.190  12.064  18.719  0.00  0.00    +0.000 C 
ATOM      6  C   UNL     1      -0.810  11.270  19.897  0.00  0.00    +0.000 C 
ATOM      7  N   UNL     1      -0.732  12.063  21.198  0.00  0.00    +0.000 NA
ATOM      8  H   UNL     1      -1.321  11.687  21.940  0.00  0.00    +0.000 HD
ENDROOT
BRANCH   1  12
ATOM      9  C   UNL     1       2.698   7.300  18.394  0.00  0.00    +0.000 A 
ATOM     10  C   UNL     1       2.303   7.097  19.725  0.00  0.00    +0.000 A 
ATOM     11  C   UNL     1       1.493   8.018  20.404  0.00  0.00    +0.000 A 
ATOM     12  C   UNL     1       1.032   9.203  19.803  0.00  0.00    +0.000 A 
ATOM     13  C   UNL     1       1.382   9.365  18.452  0.00  0.00    +0.000 A 
ATOM     14  C   UNL     1       2.201   8.451  17.768  0.00  0.00    +0.000 A 
BRANCH   9  18
ATOM     15  C   UNL     1       5.298   4.544  16.303  0.00  0.00    +0.000 A 
ATOM     16  C   UNL     1       5.511   5.918  16.229  0.00  0.00    +0.000 A 
ATOM     17  C   UNL     1       4.690   6.807  16.928  0.00  0.00    +0.000 A 
ATOM     18  C   UNL     1       3.605   6.355  17.700  0.00  0.00    +0.000 A 
ATOM     19  C   UNL     1       3.404   4.962  17.755  0.00  0.00    +0.000 A 
ATOM     20  C   UNL     1       4.237   4.066  17.068  0.00  0.00    +0.000 A 
BRANCH  15  22
ATOM     21  C   UNL     1       6.062   3.930  14.152  0.00  0.00    +0.000 C 
ATOM     22  O   UNL     1       6.155   3.778  15.565  0.00  0.00    +0.000 OA
ENDBRANCH  15  22
ENDBRANCH   9  18
ENDBRANCH   1  12
BRANCH   4  23
ATOM     23  C   UNL     1       1.828  13.347  18.054  0.00  0.00    +0.000 C 
BRANCH  23  24
ATOM     24  C   UNL     1       2.720  14.523  18.401  0.00  0.00    +0.000 A 
ATOM     25  C   UNL     1       4.114  14.418  18.328  0.00  0.00    +0.000 A 
ATOM     26  C   UNL     1       4.925  15.503  18.661  0.00  0.00    +0.000 A 
ATOM     27  C   UNL     1       4.351  16.703  19.074  0.00  0.00    +0.000 A 
ATOM     28  C   UNL     1       2.965  16.830  19.155  0.00  0.00    +0.000 A 
ATOM     29  C   UNL     1       2.154  15.751  18.801  0.00  0.00    +0.000 A 
BRANCH  28  30
ATOM     30  O   UNL     1       2.520  18.059  19.560  0.00  0.00    +0.000 OA
ATOM     31  C   UNL     1       2.814  18.411  20.907  0.00  0.00    +0.000 C 
ENDBRANCH  28  30
ENDBRANCH  23  24
ENDBRANCH   4  23
TORSDOF 6
ENDMDL
MODEL 8
REMARK VINA RESULT:      -8.2      0.461      1.245
REMARK  Name = 
REMARK  8 active torsions:
REMARK  status: ('A' for Active; 'I' for Inactive)
REMARK    1  A    between atoms: C_1  and  O_2
REMARK    2  A    between atoms: O_2  and  C_3
REMARK    3  A    between atoms: C_6  and  C_7
REMARK    4  A    between atoms: C_10  and  C_11
REMARK    5  A    between atoms: N_14  and  C_15
REMARK    6  A    between atoms: C_15  and  C_16
REMARK    7  A    between atoms: C_20  and  O_21
REMARK    8  A    between atoms: O_21  and  C_22
REMARK                            x       y       z     vdW  Elec       q    Type
REMARK                         _______ _______ _______ _____ _____    ______ ____
ROOT
ATOM      1  C   UNL     1       3.589   4.073  19.678  0.00  0.00    +0.000 C 
ATOM      2  C   UNL     1       3.495   3.156  18.410  0.00  0.00    +0.000 C 
ATOM      3  C   UNL     1       3.720   3.848  17.042  0.00  0.00    +0.000 C 
ATOM      4  N   UNL     1       5.050   4.457  16.935  0.00  0.00    +0.000 NA
ATOM      5  C   UNL     1       5.686   4.763  18.215  0.00  0.00    +0.000 C 
ATOM      6  C   UNL     1       5.115   3.913  19.380  0.00  0.00    +0.000 C 
ATOM      7  N   UNL     1       4.773   2.501  18.915  0.00  0.00    +0.000 NA
ATOM      8  H   UNL     1       4.613   1.848  19.682  0.00  0.00    +0.000 HD
ENDROOT
BRANCH   1  12
ATOM      9  C   UNL     1       1.550   8.061  19.829  0.00  0.00    +0.000 A 
ATOM     10  C   UNL     1       2.398   7.692  18.774  0.00  0.00    +0.000 A 
ATOM     11  C   UNL     1       3.029   6.440  18.737  0.00  0.00    +0.000 A 
ATOM     12  C   UNL     1       2.860   5.481  19.751  0.00  0.00    +0.000 A 
ATOM     13  C   UNL     1       1.961   5.838  20.770  0.00  0.00    +0.000 A 
ATOM     14  C   UNL     1       1.333   7.093  20.818  0.00  0.00    +0.000 A 
BRANCH   9  18
ATOM     15  C   UNL     1      -0.176  12.026  20.007  0.00  0.00    +0.000 A 
ATOM     16  C   UNL     1      -0.089  11.342  18.798  0.00  0.00    +0.000 A 
ATOM     17  C   UNL     1       0.441  10.050  18.744  0.00  0.00    +0.000 A 
ATOM     18  C   UNL     1       0.934   9.408  19.895  0.00  0.00    +0.000 A 
ATOM     19  C   UNL     1       0.842  10.122  21.106  0.00  0.00    +0.000 A 
ATOM     20  C   UNL     1       0.296  11.412  21.165  0.00  0.00    +0.000 A 
BRANCH  15  22
ATOM     21  C   UNL     1      -2.071  13.411  20.281  0.00  0.00    +0.000 C 
ATOM     22  O   UNL     1      -0.697  13.286  19.931  0.00  0.00    +0.000 OA
ENDBRANCH  15  22
ENDBRANCH   9  18
ENDBRANCH   1  12
BRANCH   4  23
ATOM     23  C   UNL     1       5.255   5.421  15.861  0.00  0.00    +0.000 C 
BRANCH  23  24
ATOM     24  C   UNL     1       5.890   4.884  14.593  0.00  0.00    +0.000 A 
ATOM     25  C   UNL     1       7.178   5.276  14.209  0.00  0.00    +0.000 A 
ATOM     26  C   UNL     1       7.748   4.784  13.035  0.00  0.00    +0.000 A 
ATOM     27  C   UNL     1       7.035   3.898  12.230  0.00  0.00    +0.000 A 
ATOM     28  C   UNL     1       5.750   3.496  12.592  0.00  0.00    +0.000 A 
ATOM     29  C   UNL     1       5.189   3.972  13.779  0.00  0.00    +0.000 A 
BRANCH  28  30
ATOM     30  O   UNL     1       5.156   2.615  11.730  0.00  0.00    +0.000 OA
ATOM     31  C   UNL     1       5.948   1.497  11.345  0.00  0.00    +0.000 C 
ENDBRANCH  28  30
ENDBRANCH  23  24
ENDBRANCH   4  23
TORSDOF 6
ENDMDL
MODEL 9
REMARK VINA RESULT:      -8.2      3.593      9.463
REMARK  Name = 
REMARK  8 active torsions:
REMARK  status: ('A' for Active; 'I' for Inactive)
REMARK    1  A    between atoms: C_1  and  O_2
REMARK    2  A    between atoms: O_2  and  C_3
REMARK    3  A    between atoms: C_6  and  C_7
REMARK    4  A    between atoms: C_10  and  C_11
REMARK    5  A    between atoms: N_14  and  C_15
REMARK    6  A    between atoms: C_15  and  C_16
REMARK    7  A    between atoms: C_20  and  O_21
REMARK    8  A    between atoms: O_21  and  C_22
REMARK                            x       y       z     vdW  Elec       q    Type
REMARK                         _______ _______ _______ _____ _____    ______ ____
ROOT
ATOM      1  C   UNL     1       1.023   8.309  21.547  0.00  0.00    +0.000 C 
ATOM      2  C   UNL     1       1.065   9.859  21.774  0.00  0.00    +0.000 C 
ATOM      3  C   UNL     1       0.897  10.745  20.514  0.00  0.00    +0.000 C 
ATOM      4  N   UNL     1      -0.388  10.525  19.842  0.00  0.00    +0.000 NA
ATOM      5  C   UNL     1      -1.012   9.233  20.126  0.00  0.00    +0.000 C 
ATOM      6  C   UNL     1      -0.508   8.611  21.453  0.00  0.00    +0.000 C 
ATOM      7  N   UNL     1      -0.258   9.685  22.507  0.00  0.00    +0.000 NA
ATOM      8  H   UNL     1      -0.148   9.313  23.450  0.00  0.00    +0.000 HD
ENDROOT
BRANCH   1  12
ATOM      9  C   UNL     1       3.333   6.280  18.286  0.00  0.00    +0.000 A 
ATOM     10  C   UNL     1       2.973   5.622  19.471  0.00  0.00    +0.000 A 
ATOM     11  C   UNL     1       2.249   6.267  20.484  0.00  0.00    +0.000 A 
ATOM     12  C   UNL     1       1.843   7.609  20.382  0.00  0.00    +0.000 A 
ATOM     13  C   UNL     1       2.155   8.239  19.166  0.00  0.00    +0.000 A 
ATOM     14  C   UNL     1       2.889   7.602  18.151  0.00  0.00    +0.000 A 
BRANCH   9  18
ATOM     15  C   UNL     1       5.659   4.334  15.199  0.00  0.00    +0.000 A 
ATOM     16  C   UNL     1       5.581   5.722  15.261  0.00  0.00    +0.000 A 
ATOM     17  C   UNL     1       4.854   6.352  16.275  0.00  0.00    +0.000 A 
ATOM     18  C   UNL     1       4.152   5.614  17.245  0.00  0.00    +0.000 A 
ATOM     19  C   UNL     1       4.240   4.211  17.158  0.00  0.00    +0.000 A 
ATOM     20  C   UNL     1       4.982   3.576  16.151  0.00  0.00    +0.000 A 
BRANCH  15  22
ATOM     21  C   UNL     1       5.663   3.615  12.947  0.00  0.00    +0.000 C 
ATOM     22  O   UNL     1       6.385   3.835  14.155  0.00  0.00    +0.000 OA
ENDBRANCH  15  22
ENDBRANCH   9  18
ENDBRANCH   1  12
BRANCH   4  23
ATOM     23  C   UNL     1      -0.520  11.024  18.478  0.00  0.00    +0.000 C 
BRANCH  23  24
ATOM     24  C   UNL     1      -1.931  11.101  17.929  0.00  0.00    +0.000 A 
ATOM     25  C   UNL     1      -2.947  11.753  18.639  0.00  0.00    +0.000 A 
ATOM     26  C   UNL     1      -4.244  11.808  18.130  0.00  0.00    +0.000 A 
ATOM     27  C   UNL     1      -4.540  11.209  16.908  0.00  0.00    +0.000 A 
ATOM     28  C   UNL     1      -3.545  10.553  16.185  0.00  0.00    +0.000 A 
ATOM     29  C   UNL     1      -2.242  10.517  16.685  0.00  0.00    +0.000 A 
BRANCH  28  30
ATOM     30  O   UNL     1      -3.954  10.016  14.994  0.00  0.00    +0.000 OA
ATOM     31  C   UNL     1      -2.997  10.046  13.941  0.00  0.00    +0.000 C 
ENDBRANCH  28  30
ENDBRANCH  23  24
ENDBRANCH   4  23
TORSDOF 6
ENDMDL
