MODEL 1
REMARK VINA RESULT:      -7.1      0.000      0.000
REMARK  Name = 
REMARK  7 active torsions:
REMARK  status: ('A' for Active; 'I' for Inactive)
REMARK    1  A    between atoms: C_1  and  C_2
REMARK    2  A    between atoms: C_2  and  C_3
REMARK    3  A    between atoms: C_3  and  C_4
REMARK    4  A    between atoms: C_4  and  S_5
REMARK    5  A    between atoms: C_4  and  S_14
REMARK    6  A    between atoms: S_5  and  C_8
REMARK    7  A    between atoms: S_14  and  C_17
REMARK                            x       y       z     vdW  Elec       q    Type
REMARK                         _______ _______ _______ _____ _____    ______ ____
ROOT
ATOM      1  C   UNL     1       5.158   5.311  17.138  0.00  0.00    +0.000 C 
ENDROOT
BRANCH   1   2
ATOM      2  S   UNL     1       6.801   5.391  16.458  0.00  0.00    +0.000 S 
ATOM      3  O   UNL     1       7.169   6.794  16.357  0.00  0.00    +0.000 OA
ATOM      4  O   UNL     1       7.674   4.484  17.174  0.00  0.00    +0.000 OA
BRANCH   2   5
ATOM      5  C   UNL     1       6.709   4.856  14.761  0.00  0.00    +0.000 A 
ATOM      6  C   UNL     1       5.615   4.079  14.356  0.00  0.00    +0.000 A 
ATOM      7  C   UNL     1       5.532   3.644  13.034  0.00  0.00    +0.000 A 
ATOM      8  C   UNL     1       6.523   4.002  12.119  0.00  0.00    +0.000 A 
ATOM      9  C   UNL     1       7.582   4.821  12.515  0.00  0.00    +0.000 A 
ATOM     10  C   UNL     1       7.675   5.259  13.838  0.00  0.00    +0.000 A 
ENDBRANCH   2   5
ENDBRANCH   1   2
BRANCH   1  11
ATOM     11  S   UNL     1       5.009   3.863  18.177  0.00  0.00    +0.000 S 
ATOM     12  O   UNL     1       4.967   2.673  17.352  0.00  0.00    +0.000 OA
ATOM     13  O   UNL     1       5.928   3.959  19.295  0.00  0.00    +0.000 OA
BRANCH  11  14
ATOM     14  C   UNL     1       3.364   3.976  18.877  0.00  0.00    +0.000 A 
ATOM     15  C   UNL     1       2.272   3.552  18.113  0.00  0.00    +0.000 A 
ATOM     16  C   UNL     1       0.990   3.613  18.659  0.00  0.00    +0.000 A 
ATOM     17  C   UNL     1       0.804   4.079  19.962  0.00  0.00    +0.000 A 
ATOM     18  C   UNL     1       1.900   4.480  20.725  0.00  0.00    +0.000 A 
ATOM     19  C   UNL     1       3.187   4.428  20.187  0.00  0.00    +0.000 A 
ENDBRANCH  11  14
ENDBRANCH   1  11
BRANCH   1  20
ATOM     20  C   UNL     1       4.760   6.579  17.922  0.00  0.00    +0.000 C 
BRANCH  20  22
ATOM     21  C   UNL     1       2.389   7.524  18.211  0.00  0.00    +0.000 C 
ATOM     22  C   UNL     1       3.645   7.468  17.359  0.00  0.00    +0.000 C 
ENDBRANCH  20  22
ENDBRANCH   1  20
TORSDOF 6
ENDMDL
MODEL 2
REMARK VINA RESULT:      -7.1      0.128      1.041
REMARK  Name = 
REMARK  7 active torsions:
REMARK  status: ('A' for Active; 'I' for Inactive)
REMARK    1  A    between atoms: C_1  and  C_2
REMARK    2  A    between atoms: C_2  and  C_3
REMARK    3  A    between atoms: C_3  and  C_4
REMARK    4  A    between atoms: C_4  and  S_5
REMARK    5  A    between atoms: C_4  and  S_14
REMARK    6  A    between atoms: S_5  and  C_8
REMARK    7  A    between atoms: S_14  and  C_17
REMARK                            x       y       z     vdW  Elec       q    Type
REMARK                         _______ _______ _______ _____ _____    ______ ____
ROOT
ATOM      1  C   UNL     1       5.149   5.281  17.107  0.00  0.00    +0.000 C 
ENDROOT
BRANCH   1   2
ATOM      2  S   UNL     1       6.803   5.392  16.461  0.00  0.00    +0.000 S 
ATOM      3  O   UNL     1       7.148   6.802  16.367  0.00  0.00    +0.000 OA
ATOM      4  O   UNL     1       7.679   4.501  17.194  0.00  0.00    +0.000 OA
BRANCH   2   5
ATOM      5  C   UNL     1       6.757   4.857  14.762  0.00  0.00    +0.000 A 
ATOM      6  C   UNL     1       5.736   3.986  14.357  0.00  0.00    +0.000 A 
ATOM      7  C   UNL     1       5.689   3.550  13.033  0.00  0.00    +0.000 A 
ATOM      8  C   UNL     1       6.643   3.997  12.117  0.00  0.00    +0.000 A 
ATOM      9  C   UNL     1       7.625   4.907  12.515  0.00  0.00    +0.000 A 
ATOM     10  C   UNL     1       7.681   5.348  13.839  0.00  0.00    +0.000 A 
ENDBRANCH   2   5
ENDBRANCH   1   2
BRANCH   1  11
ATOM     11  S   UNL     1       5.015   3.848  18.168  0.00  0.00    +0.000 S 
ATOM     12  O   UNL     1       4.953   2.647  17.360  0.00  0.00    +0.000 OA
ATOM     13  O   UNL     1       5.955   3.956  19.267  0.00  0.00    +0.000 OA
BRANCH  11  14
ATOM     14  C   UNL     1       3.384   3.976  18.897  0.00  0.00    +0.000 A 
ATOM     15  C   UNL     1       3.259   4.482  20.196  0.00  0.00    +0.000 A 
ATOM     16  C   UNL     1       1.991   4.609  20.762  0.00  0.00    +0.000 A 
ATOM     17  C   UNL     1       0.857   4.248  20.031  0.00  0.00    +0.000 A 
ATOM     18  C   UNL     1       0.988   3.764  18.730  0.00  0.00    +0.000 A 
ATOM     19  C   UNL     1       2.253   3.629  18.155  0.00  0.00    +0.000 A 
ENDBRANCH  11  14
ENDBRANCH   1  11
BRANCH   1  20
ATOM     20  C   UNL     1       4.702   6.551  17.859  0.00  0.00    +0.000 C 
BRANCH  20  22
ATOM     21  C   UNL     1       2.462   7.662  18.451  0.00  0.00    +0.000 C 
ATOM     22  C   UNL     1       3.457   7.297  17.363  0.00  0.00    +0.000 C 
ENDBRANCH  20  22
ENDBRANCH   1  20
TORSDOF 6
ENDMDL
MODEL 3
REMARK VINA RESULT:      -7.0      0.110      1.463
REMARK  Name = 
REMARK  7 active torsions:
REMARK  status: ('A' for Active; 'I' for Inactive)
REMARK    1  A    between atoms: C_1  and  C_2
REMARK    2  A    between atoms: C_2  and  C_3
REMARK    3  A    between atoms: C_3  and  C_4
REMARK    4  A    between atoms: C_4  and  S_5
REMARK    5  A    between atoms: C_4  and  S_14
REMARK    6  A    between atoms: S_5  and  C_8
REMARK    7  A    between atoms: S_14  and  C_17
REMARK                            x       y       z     vdW  Elec       q    Type
REMARK                         _______ _______ _______ _____ _____    ______ ____
ROOT
ATOM      1  C   UNL     1       5.151   5.301  17.133  0.00  0.00    +0.000 C 
ENDROOT
BRANCH   1   2
ATOM      2  S   UNL     1       6.797   5.395  16.463  0.00  0.00    +0.000 S 
ATOM      3  O   UNL     1       7.156   6.801  16.366  0.00  0.00    +0.000 OA
ATOM      4  O   UNL     1       7.674   4.493  17.183  0.00  0.00    +0.000 OA
BRANCH   2   5
ATOM      5  C   UNL     1       6.720   4.862  14.765  0.00  0.00    +0.000 A 
ATOM      6  C   UNL     1       7.671   5.352  13.860  0.00  0.00    +0.000 A 
ATOM      7  C   UNL     1       7.620   4.953  12.525  0.00  0.00    +0.000 A 
ATOM      8  C   UNL     1       6.639   4.054  12.103  0.00  0.00    +0.000 A 
ATOM      9  C   UNL     1       5.728   3.528  13.020  0.00  0.00    +0.000 A 
ATOM     10  C   UNL     1       5.770   3.924  14.359  0.00  0.00    +0.000 A 
ENDBRANCH   2   5
ENDBRANCH   1   2
BRANCH   1  11
ATOM     11  S   UNL     1       5.019   3.872  18.201  0.00  0.00    +0.000 S 
ATOM     12  O   UNL     1       4.982   2.666  17.398  0.00  0.00    +0.000 OA
ATOM     13  O   UNL     1       5.943   3.996  19.311  0.00  0.00    +0.000 OA
BRANCH  11  14
ATOM     14  C   UNL     1       3.377   3.986  18.907  0.00  0.00    +0.000 A 
ATOM     15  C   UNL     1       3.224   4.546  20.180  0.00  0.00    +0.000 A 
ATOM     16  C   UNL     1       1.946   4.662  20.727  0.00  0.00    +0.000 A 
ATOM     17  C   UNL     1       0.831   4.235  20.003  0.00  0.00    +0.000 A 
ATOM     18  C   UNL     1       0.990   3.696  18.726  0.00  0.00    +0.000 A 
ATOM     19  C   UNL     1       2.265   3.572  18.170  0.00  0.00    +0.000 A 
ENDBRANCH  11  14
ENDBRANCH   1  11
BRANCH   1  20
ATOM     20  C   UNL     1       4.727   6.577  17.888  0.00  0.00    +0.000 C 
BRANCH  20  22
ATOM     21  C   UNL     1       2.329   7.464  18.149  0.00  0.00    +0.000 C 
ATOM     22  C   UNL     1       3.592   7.429  17.306  0.00  0.00    +0.000 C 
ENDBRANCH  20  22
ENDBRANCH   1  20
TORSDOF 6
ENDMDL
MODEL 4
REMARK VINA RESULT:      -7.0      0.628      1.251
REMARK  Name = 
REMARK  7 active torsions:
REMARK  status: ('A' for Active; 'I' for Inactive)
REMARK    1  A    between atoms: C_1  and  C_2
REMARK    2  A    between atoms: C_2  and  C_3
REMARK    3  A    between atoms: C_3  and  C_4
REMARK    4  A    between atoms: C_4  and  S_5
REMARK    5  A    between atoms: C_4  and  S_14
REMARK    6  A    between atoms: S_5  and  C_8
REMARK    7  A    between atoms: S_14  and  C_17
REMARK                            x       y       z     vdW  Elec       q    Type
REMARK                         _______ _______ _______ _____ _____    ______ ____
ROOT
ATOM      1  C   UNL     1       5.181   5.463  17.216  0.00  0.00    +0.000 C 
ENDROOT
BRANCH   1   2
ATOM      2  S   UNL     1       6.827   5.456  16.539  0.00  0.00    +0.000 S 
ATOM      3  O   UNL     1       7.256   6.839  16.404  0.00  0.00    +0.000 OA
ATOM      4  O   UNL     1       7.660   4.531  17.280  0.00  0.00    +0.000 OA
BRANCH   2   5
ATOM      5  C   UNL     1       6.716   4.883  14.856  0.00  0.00    +0.000 A 
ATOM      6  C   UNL     1       7.684   5.304  13.934  0.00  0.00    +0.000 A 
ATOM      7  C   UNL     1       7.607   4.873  12.611  0.00  0.00    +0.000 A 
ATOM      8  C   UNL     1       6.584   4.009  12.217  0.00  0.00    +0.000 A 
ATOM      9  C   UNL     1       5.655   3.550  13.152  0.00  0.00    +0.000 A 
ATOM     10  C   UNL     1       5.722   3.978  14.479  0.00  0.00    +0.000 A 
ENDBRANCH   2   5
ENDBRANCH   1   2
BRANCH   1  11
ATOM     11  S   UNL     1       5.185   4.654  18.811  0.00  0.00    +0.000 S 
ATOM     12  O   UNL     1       5.818   3.357  18.698  0.00  0.00    +0.000 OA
ATOM     13  O   UNL     1       5.592   5.592  19.841  0.00  0.00    +0.000 OA
BRANCH  11  14
ATOM     14  C   UNL     1       3.463   4.281  19.133  0.00  0.00    +0.000 A 
ATOM     15  C   UNL     1       2.758   3.493  18.219  0.00  0.00    +0.000 A 
ATOM     16  C   UNL     1       1.423   3.177  18.474  0.00  0.00    +0.000 A 
ATOM     17  C   UNL     1       0.805   3.632  19.640  0.00  0.00    +0.000 A 
ATOM     18  C   UNL     1       1.521   4.401  20.558  0.00  0.00    +0.000 A 
ATOM     19  C   UNL     1       2.856   4.727  20.310  0.00  0.00    +0.000 A 
ENDBRANCH  11  14
ENDBRANCH   1  11
BRANCH   1  20
ATOM     20  C   UNL     1       4.576   6.877  17.331  0.00  0.00    +0.000 C 
BRANCH  20  22
ATOM     21  C   UNL     1       2.595   8.436  17.831  0.00  0.00    +0.000 C 
ATOM     22  C   UNL     1       3.074   7.011  17.614  0.00  0.00    +0.000 C 
ENDBRANCH  20  22
ENDBRANCH   1  20
TORSDOF 6
ENDMDL
MODEL 5
REMARK VINA RESULT:      -6.8      2.529      3.403
REMARK  Name = 
REMARK  7 active torsions:
REMARK  status: ('A' for Active; 'I' for Inactive)
REMARK    1  A    between atoms: C_1  and  C_2
REMARK    2  A    between atoms: C_2  and  C_3
REMARK    3  A    between atoms: C_3  and  C_4
REMARK    4  A    between atoms: C_4  and  S_5
REMARK    5  A    between atoms: C_4  and  S_14
REMARK    6  A    between atoms: S_5  and  C_8
REMARK    7  A    between atoms: S_14  and  C_17
REMARK                            x       y       z     vdW  Elec       q    Type
REMARK                         _______ _______ _______ _____ _____    ______ ____
ROOT
ATOM      1  C   UNL     1       4.213   5.136  17.371  0.00  0.00    +0.000 C 
ENDROOT
BRANCH   1   2
ATOM      2  S   UNL     1       5.610   5.489  16.325  0.00  0.00    +0.000 S 
ATOM      3  O   UNL     1       6.320   4.240  16.099  0.00  0.00    +0.000 OA
ATOM      4  O   UNL     1       5.185   6.273  15.184  0.00  0.00    +0.000 OA
BRANCH   2   5
ATOM      5  C   UNL     1       6.762   6.462  17.274  0.00  0.00    +0.000 A 
ATOM      6  C   UNL     1       6.905   7.823  16.973  0.00  0.00    +0.000 A 
ATOM      7  C   UNL     1       7.809   8.597  17.699  0.00  0.00    +0.000 A 
ATOM      8  C   UNL     1       8.549   8.020  18.732  0.00  0.00    +0.000 A 
ATOM      9  C   UNL     1       8.363   6.677  19.063  0.00  0.00    +0.000 A 
ATOM     10  C   UNL     1       7.461   5.892  18.340  0.00  0.00    +0.000 A 
ENDBRANCH   2   5
ENDBRANCH   1   2
BRANCH   1  11
ATOM     11  S   UNL     1       4.426   3.533  18.134  0.00  0.00    +0.000 S 
ATOM     12  O   UNL     1       4.255   2.494  17.140  0.00  0.00    +0.000 OA
ATOM     13  O   UNL     1       5.588   3.548  19.001  0.00  0.00    +0.000 OA
BRANCH  11  14
ATOM     14  C   UNL     1       3.006   3.355  19.212  0.00  0.00    +0.000 A 
ATOM     15  C   UNL     1       1.737   3.208  18.643  0.00  0.00    +0.000 A 
ATOM     16  C   UNL     1       0.629   3.044  19.475  0.00  0.00    +0.000 A 
ATOM     17  C   UNL     1       0.791   3.010  20.861  0.00  0.00    +0.000 A 
ATOM     18  C   UNL     1       2.063   3.136  21.421  0.00  0.00    +0.000 A 
ATOM     19  C   UNL     1       3.178   3.306  20.598  0.00  0.00    +0.000 A 
ENDBRANCH  11  14
ENDBRANCH   1  11
BRANCH   1  20
ATOM     20  C   UNL     1       3.968   6.216  18.445  0.00  0.00    +0.000 C 
BRANCH  20  22
ATOM     21  C   UNL     1       2.020   6.920  19.965  0.00  0.00    +0.000 C 
ATOM     22  C   UNL     1       2.571   6.840  18.551  0.00  0.00    +0.000 C 
ENDBRANCH  20  22
ENDBRANCH   1  20
TORSDOF 6
ENDMDL
MODEL 6
REMARK VINA RESULT:      -6.8      2.661      3.573
REMARK  Name = 
REMARK  7 active torsions:
REMARK  status: ('A' for Active; 'I' for Inactive)
REMARK    1  A    between atoms: C_1  and  C_2
REMARK    2  A    between atoms: C_2  and  C_3
REMARK    3  A    between atoms: C_3  and  C_4
REMARK    4  A    between atoms: C_4  and  S_5
REMARK    5  A    between atoms: C_4  and  S_14
REMARK    6  A    between atoms: S_5  and  C_8
REMARK    7  A    between atoms: S_14  and  C_17
REMARK                            x       y       z     vdW  Elec       q    Type
REMARK                         _______ _______ _______ _____ _____    ______ ____
ROOT
ATOM      1  C   UNL     1       4.147   4.896  17.512  0.00  0.00    +0.000 C 
ENDROOT
BRANCH   1   2
ATOM      2  S   UNL     1       5.882   4.530  17.658  0.00  0.00    +0.000 S 
ATOM      3  O   UNL     1       6.089   3.866  18.935  0.00  0.00    +0.000 OA
ATOM      4  O   UNL     1       6.353   3.888  16.447  0.00  0.00    +0.000 OA
BRANCH   2   5
ATOM      5  C   UNL     1       6.746   6.076  17.843  0.00  0.00    +0.000 A 
ATOM      6  C   UNL     1       7.785   6.162  18.781  0.00  0.00    +0.000 A 
ATOM      7  C   UNL     1       8.466   7.367  18.945  0.00  0.00    +0.000 A 
ATOM      8  C   UNL     1       8.126   8.472  18.163  0.00  0.00    +0.000 A 
ATOM      9  C   UNL     1       7.128   8.366  17.194  0.00  0.00    +0.000 A 
ATOM     10  C   UNL     1       6.438   7.163  17.023  0.00  0.00    +0.000 A 
ENDBRANCH   2   5
ENDBRANCH   1   2
BRANCH   1  11
ATOM     11  S   UNL     1       3.213   3.371  17.479  0.00  0.00    +0.000 S 
ATOM     12  O   UNL     1       2.034   3.539  16.655  0.00  0.00    +0.000 OA
ATOM     13  O   UNL     1       4.107   2.247  17.276  0.00  0.00    +0.000 OA
BRANCH  11  14
ATOM     14  C   UNL     1       2.571   3.199  19.143  0.00  0.00    +0.000 A 
ATOM     15  C   UNL     1       1.230   3.513  19.388  0.00  0.00    +0.000 A 
ATOM     16  C   UNL     1       0.715   3.357  20.675  0.00  0.00    +0.000 A 
ATOM     17  C   UNL     1       1.529   2.879  21.703  0.00  0.00    +0.000 A 
ATOM     18  C   UNL     1       2.860   2.548  21.447  0.00  0.00    +0.000 A 
ATOM     19  C   UNL     1       3.387   2.704  20.163  0.00  0.00    +0.000 A 
ENDBRANCH  11  14
ENDBRANCH   1  11
BRANCH   1  20
ATOM     20  C   UNL     1       3.624   5.823  18.628  0.00  0.00    +0.000 C 
BRANCH  20  22
ATOM     21  C   UNL     1       2.901   8.155  17.827  0.00  0.00    +0.000 C 
ATOM     22  C   UNL     1       2.469   6.779  18.305  0.00  0.00    +0.000 C 
ENDBRANCH  20  22
ENDBRANCH   1  20
TORSDOF 6
ENDMDL
MODEL 7
REMARK VINA RESULT:      -6.8      2.719      3.713
REMARK  Name = 
REMARK  7 active torsions:
REMARK  status: ('A' for Active; 'I' for Inactive)
REMARK    1  A    between atoms: C_1  and  C_2
REMARK    2  A    between atoms: C_2  and  C_3
REMARK    3  A    between atoms: C_3  and  C_4
REMARK    4  A    between atoms: C_4  and  S_5
REMARK    5  A    between atoms: C_4  and  S_14
REMARK    6  A    between atoms: S_5  and  C_8
REMARK    7  A    between atoms: S_14  and  C_17
REMARK                            x       y       z     vdW  Elec       q    Type
REMARK                         _______ _______ _______ _____ _____    ______ ____
ROOT
ATOM      1  C   UNL     1       3.387   5.266  17.417  0.00  0.00    +0.000 C 
ENDROOT
BRANCH   1   2
ATOM      2  S   UNL     1       4.955   4.680  16.813  0.00  0.00    +0.000 S 
ATOM      3  O   UNL     1       5.216   3.392  17.436  0.00  0.00    +0.000 OA
ATOM      4  O   UNL     1       4.996   4.784  15.369  0.00  0.00    +0.000 OA
BRANCH   2   5
ATOM      5  C   UNL     1       6.222   5.737  17.486  0.00  0.00    +0.000 A 
ATOM      6  C   UNL     1       7.009   5.260  18.543  0.00  0.00    +0.000 A 
ATOM      7  C   UNL     1       7.998   6.077  19.088  0.00  0.00    +0.000 A 
ATOM      8  C   UNL     1       8.214   7.353  18.565  0.00  0.00    +0.000 A 
ATOM      9  C   UNL     1       7.464   7.803  17.478  0.00  0.00    +0.000 A 
ATOM     10  C   UNL     1       6.468   6.992  16.927  0.00  0.00    +0.000 A 
ENDBRANCH   2   5
ENDBRANCH   1   2
BRANCH   1  11
ATOM     11  S   UNL     1       2.219   3.913  17.464  0.00  0.00    +0.000 S 
ATOM     12  O   UNL     1       0.881   4.415  17.229  0.00  0.00    +0.000 OA
ATOM     13  O   UNL     1       2.734   2.788  16.707  0.00  0.00    +0.000 OA
BRANCH  11  14
ATOM     14  C   UNL     1       2.202   3.390  19.178  0.00  0.00    +0.000 A 
ATOM     15  C   UNL     1       3.336   2.766  19.707  0.00  0.00    +0.000 A 
ATOM     16  C   UNL     1       3.341   2.378  21.047  0.00  0.00    +0.000 A 
ATOM     17  C   UNL     1       2.228   2.626  21.853  0.00  0.00    +0.000 A 
ATOM     18  C   UNL     1       1.108   3.267  21.323  0.00  0.00    +0.000 A 
ATOM     19  C   UNL     1       1.091   3.656  19.982  0.00  0.00    +0.000 A 
ENDBRANCH  11  14
ENDBRANCH   1  11
BRANCH   1  20
ATOM     20  C   UNL     1       3.481   5.944  18.799  0.00  0.00    +0.000 C 
BRANCH  20  22
ATOM     21  C   UNL     1       2.393   8.106  17.937  0.00  0.00    +0.000 C 
ATOM     22  C   UNL     1       2.564   7.137  19.094  0.00  0.00    +0.000 C 
ENDBRANCH  20  22
ENDBRANCH   1  20
TORSDOF 6
ENDMDL
MODEL 8
REMARK VINA RESULT:      -6.7      2.737      3.766
REMARK  Name = 
REMARK  7 active torsions:
REMARK  status: ('A' for Active; 'I' for Inactive)
REMARK    1  A    between atoms: C_1  and  C_2
REMARK    2  A    between atoms: C_2  and  C_3
REMARK    3  A    between atoms: C_3  and  C_4
REMARK    4  A    between atoms: C_4  and  S_5
REMARK    5  A    between atoms: C_4  and  S_14
REMARK    6  A    between atoms: S_5  and  C_8
REMARK    7  A    between atoms: S_14  and  C_17
REMARK                            x       y       z     vdW  Elec       q    Type
REMARK                         _______ _______ _______ _____ _____    ______ ____
ROOT
ATOM      1  C   UNL     1       3.400   5.283  17.469  0.00  0.00    +0.000 C 
ENDROOT
BRANCH   1   2
ATOM      2  S   UNL     1       4.958   4.693  16.843  0.00  0.00    +0.000 S 
ATOM      3  O   UNL     1       5.220   3.401  17.456  0.00  0.00    +0.000 OA
ATOM      4  O   UNL     1       4.983   4.805  15.399  0.00  0.00    +0.000 OA
BRANCH   2   5
ATOM      5  C   UNL     1       6.238   5.740  17.506  0.00  0.00    +0.000 A 
ATOM      6  C   UNL     1       6.402   7.027  16.975  0.00  0.00    +0.000 A 
ATOM      7  C   UNL     1       7.404   7.856  17.476  0.00  0.00    +0.000 A 
ATOM      8  C   UNL     1       8.222   7.412  18.515  0.00  0.00    +0.000 A 
ATOM      9  C   UNL     1       8.020   6.150  19.077  0.00  0.00    +0.000 A 
ATOM     10  C   UNL     1       7.020   5.311  18.580  0.00  0.00    +0.000 A 
ENDBRANCH   2   5
ENDBRANCH   1   2
BRANCH   1  11
ATOM     11  S   UNL     1       2.215   3.944  17.485  0.00  0.00    +0.000 S 
ATOM     12  O   UNL     1       0.884   4.469  17.260  0.00  0.00    +0.000 OA
ATOM     13  O   UNL     1       2.716   2.830  16.704  0.00  0.00    +0.000 OA
BRANCH  11  14
ATOM     14  C   UNL     1       2.189   3.385  19.187  0.00  0.00    +0.000 A 
ATOM     15  C   UNL     1       3.331   2.774  19.717  0.00  0.00    +0.000 A 
ATOM     16  C   UNL     1       3.328   2.358  21.048  0.00  0.00    +0.000 A 
ATOM     17  C   UNL     1       2.200   2.564  21.845  0.00  0.00    +0.000 A 
ATOM     18  C   UNL     1       1.073   3.192  21.315  0.00  0.00    +0.000 A 
ATOM     19  C   UNL     1       1.064   3.608  19.983  0.00  0.00    +0.000 A 
ENDBRANCH  11  14
ENDBRANCH   1  11
BRANCH   1  20
ATOM     20  C   UNL     1       3.509   5.924  18.868  0.00  0.00    +0.000 C 
BRANCH  20  22
ATOM     21  C   UNL     1       2.252   7.975  17.965  0.00  0.00    +0.000 C 
ATOM     22  C   UNL     1       2.646   7.152  19.180  0.00  0.00    +0.000 C 
ENDBRANCH  20  22
ENDBRANCH   1  20
TORSDOF 6
ENDMDL
MODEL 9
REMARK VINA RESULT:      -6.7      2.737      3.758
REMARK  Name = 
REMARK  7 active torsions:
REMARK  status: ('A' for Active; 'I' for Inactive)
REMARK    1  A    between atoms: C_1  and  C_2
REMARK    2  A    between atoms: C_2  and  C_3
REMARK    3  A    between atoms: C_3  and  C_4
REMARK    4  A    between atoms: C_4  and  S_5
REMARK    5  A    between atoms: C_4  and  S_14
REMARK    6  A    between atoms: S_5  and  C_8
REMARK    7  A    between atoms: S_14  and  C_17
REMARK                            x       y       z     vdW  Elec       q    Type
REMARK                         _______ _______ _______ _____ _____    ______ ____
ROOT
ATOM      1  C   UNL     1       3.381   5.246  17.378  0.00  0.00    +0.000 C 
ENDROOT
BRANCH   1   2
ATOM      2  S   UNL     1       4.952   4.628  16.815  0.00  0.00    +0.000 S 
ATOM      3  O   UNL     1       5.186   3.350  17.469  0.00  0.00    +0.000 OA
ATOM      4  O   UNL     1       5.021   4.702  15.370  0.00  0.00    +0.000 OA
BRANCH   2   5
ATOM      5  C   UNL     1       6.220   5.683  17.490  0.00  0.00    +0.000 A 
ATOM      6  C   UNL     1       6.369   6.976  16.970  0.00  0.00    +0.000 A 
ATOM      7  C   UNL     1       7.362   7.812  17.480  0.00  0.00    +0.000 A 
ATOM      8  C   UNL     1       8.184   7.367  18.516  0.00  0.00    +0.000 A 
ATOM      9  C   UNL     1       7.995   6.098  19.066  0.00  0.00    +0.000 A 
ATOM     10  C   UNL     1       7.005   5.252  18.560  0.00  0.00    +0.000 A 
ENDBRANCH   2   5
ENDBRANCH   1   2
BRANCH   1  11
ATOM     11  S   UNL     1       2.210   3.898  17.482  0.00  0.00    +0.000 S 
ATOM     12  O   UNL     1       0.869   4.400  17.266  0.00  0.00    +0.000 OA
ATOM     13  O   UNL     1       2.704   2.754  16.739  0.00  0.00    +0.000 OA
BRANCH  11  14
ATOM     14  C   UNL     1       2.230   3.414  19.207  0.00  0.00    +0.000 A 
ATOM     15  C   UNL     1       1.101   3.662  19.994  0.00  0.00    +0.000 A 
ATOM     16  C   UNL     1       1.099   3.267  21.331  0.00  0.00    +0.000 A 
ATOM     17  C   UNL     1       2.209   2.615  21.873  0.00  0.00    +0.000 A 
ATOM     18  C   UNL     1       3.324   2.353  21.076  0.00  0.00    +0.000 A 
ATOM     19  C   UNL     1       3.339   2.749  19.737  0.00  0.00    +0.000 A 
ENDBRANCH  11  14
ENDBRANCH   1  11
BRANCH   1  20
ATOM     20  C   UNL     1       3.466   5.990  18.725  0.00  0.00    +0.000 C 
BRANCH  20  22
ATOM     21  C   UNL     1       1.934   7.305  20.316  0.00  0.00    +0.000 C 
ATOM     22  C   UNL     1       2.575   7.220  18.941  0.00  0.00    +0.000 C 
ENDBRANCH  20  22
ENDBRANCH   1  20
TORSDOF 6
ENDMDL
