MODEL 1
REMARK VINA RESULT:      -7.3      0.000      0.000
REMARK  Name = 
REMARK  5 active torsions:
REMARK  status: ('A' for Active; 'I' for Inactive)
REMARK    1  A    between atoms: C_1  and  C_2
REMARK    2  A    between atoms: C_2  and  O_3
REMARK    3  A    between atoms: O_3  and  C_4
REMARK    4  A    between atoms: C_4  and  C_5
REMARK    5  A    between atoms: C_8  and  C_9
REMARK                            x       y       z     vdW  Elec       q    Type
REMARK                         _______ _______ _______ _____ _____    ______ ____
ROOT
ATOM      1  C   UNL     1       6.473   4.335  14.184  0.00  0.00    +0.000 C 
ATOM      2  C   UNL     1       7.663   5.083  13.647  0.00  0.00    +0.000 C 
ATOM      3  C   UNL     1       5.992   4.545  15.422  0.00  0.00    +0.000 C 
ATOM      4  N   UNL     1       4.937   3.858  15.973  0.00  0.00    +0.000 NA
ATOM      5  C   UNL     1       4.871   4.335  17.172  0.00  0.00    +0.000 C 
ATOM      6  O   UNL     1       5.752   5.303  17.512  0.00  0.00    +0.000 OA
ATOM      7  C   UNL     1       6.539   5.509  16.418  0.00  0.00    +0.000 C 
ATOM      8  O   UNL     1       7.462   6.293  16.327  0.00  0.00    +0.000 OA
ENDROOT
BRANCH   5   9
ATOM      9  C   UNL     1       3.959   3.896  18.237  0.00  0.00    +0.000 A 
ATOM     10  C   UNL     1       4.437   3.015  19.217  0.00  0.00    +0.000 A 
ATOM     11  C   UNL     1       3.622   2.656  20.294  0.00  0.00    +0.000 A 
ATOM     12  C   UNL     1       2.332   3.173  20.388  0.00  0.00    +0.000 A 
ATOM     13 CL   UNL     1       1.345   2.771  21.737  0.00  0.00    +0.000 Cl
ATOM     14  C   UNL     1       1.840   4.028  19.401  0.00  0.00    +0.000 A 
ATOM     15  C   UNL     1       2.651   4.389  18.322  0.00  0.00    +0.000 A 
ENDBRANCH   5   9
BRANCH   1  16
ATOM     16  O   UNL     1       5.829   3.374  13.415  0.00  0.00    +0.000 OA
BRANCH  16  18
ATOM     17  C   UNL     1       4.514   3.175  11.456  0.00  0.00    +0.000 C 
ATOM     18  C   UNL     1       5.912   3.414  11.997  0.00  0.00    +0.000 C 
ENDBRANCH  16  18
ENDBRANCH   1  16
TORSDOF 3
ENDMDL
MODEL 2
REMARK VINA RESULT:      -7.1      0.347      1.183
REMARK  Name = 
REMARK  5 active torsions:
REMARK  status: ('A' for Active; 'I' for Inactive)
REMARK    1  A    between atoms: C_1  and  C_2
REMARK    2  A    between atoms: C_2  and  O_3
REMARK    3  A    between atoms: O_3  and  C_4
REMARK    4  A    between atoms: C_4  and  C_5
REMARK    5  A    between atoms: C_8  and  C_9
REMARK                            x       y       z     vdW  Elec       q    Type
REMARK                         _______ _______ _______ _____ _____    ______ ____
ROOT
ATOM      1  C   UNL     1       6.523   4.535  14.170  0.00  0.00    +0.000 C 
ATOM      2  C   UNL     1       7.724   5.248  13.609  0.00  0.00    +0.000 C 
ATOM      3  C   UNL     1       6.068   4.766  15.414  0.00  0.00    +0.000 C 
ATOM      4  N   UNL     1       5.004   4.110  15.986  0.00  0.00    +0.000 NA
ATOM      5  C   UNL     1       4.970   4.596  17.182  0.00  0.00    +0.000 C 
ATOM      6  O   UNL     1       5.882   5.542  17.502  0.00  0.00    +0.000 OA
ATOM      7  C   UNL     1       6.656   5.721  16.395  0.00  0.00    +0.000 C 
ATOM      8  O   UNL     1       7.598   6.480  16.285  0.00  0.00    +0.000 OA
ENDROOT
BRANCH   5   9
ATOM      9  C   UNL     1       4.064   4.188  18.265  0.00  0.00    +0.000 A 
ATOM     10  C   UNL     1       2.698   4.483  18.151  0.00  0.00    +0.000 A 
ATOM     11  C   UNL     1       1.799   4.023  19.117  0.00  0.00    +0.000 A 
ATOM     12  C   UNL     1       2.266   3.275  20.196  0.00  0.00    +0.000 A 
ATOM     13 CL   UNL     1       1.156   2.667  21.360  0.00  0.00    +0.000 Cl
ATOM     14  C   UNL     1       3.628   3.001  20.330  0.00  0.00    +0.000 A 
ATOM     15  C   UNL     1       4.530   3.460  19.367  0.00  0.00    +0.000 A 
ENDBRANCH   5   9
BRANCH   1  16
ATOM     16  O   UNL     1       5.841   3.588  13.417  0.00  0.00    +0.000 OA
BRANCH  16  18
ATOM     17  C   UNL     1       5.088   2.516  11.446  0.00  0.00    +0.000 C 
ATOM     18  C   UNL     1       6.186   3.367  12.057  0.00  0.00    +0.000 C 
ENDBRANCH  16  18
ENDBRANCH   1  16
TORSDOF 3
ENDMDL
MODEL 3
REMARK VINA RESULT:      -7.0      0.983      1.042
REMARK  Name = 
REMARK  5 active torsions:
REMARK  status: ('A' for Active; 'I' for Inactive)
REMARK    1  A    between atoms: C_1  and  C_2
REMARK    2  A    between atoms: C_2  and  O_3
REMARK    3  A    between atoms: O_3  and  C_4
REMARK    4  A    between atoms: C_4  and  C_5
REMARK    5  A    between atoms: C_8  and  C_9
REMARK                            x       y       z     vdW  Elec       q    Type
REMARK                         _______ _______ _______ _____ _____    ______ ____
ROOT
ATOM      1  C   UNL     1       5.929   4.114  13.904  0.00  0.00    +0.000 C 
ATOM      2  C   UNL     1       7.288   4.373  13.313  0.00  0.00    +0.000 C 
ATOM      3  C   UNL     1       5.703   4.153  15.228  0.00  0.00    +0.000 C 
ATOM      4  N   UNL     1       4.491   3.883  15.818  0.00  0.00    +0.000 NA
ATOM      5  C   UNL     1       4.753   3.974  17.080  0.00  0.00    +0.000 C 
ATOM      6  O   UNL     1       6.015   4.305  17.437  0.00  0.00    +0.000 OA
ATOM      7  C   UNL     1       6.719   4.443  16.278  0.00  0.00    +0.000 C 
ATOM      8  O   UNL     1       7.897   4.722  16.176  0.00  0.00    +0.000 OA
ENDROOT
BRANCH   5   9
ATOM      9  C   UNL     1       3.824   3.704  18.186  0.00  0.00    +0.000 A 
ATOM     10  C   UNL     1       3.135   2.483  18.208  0.00  0.00    +0.000 A 
ATOM     11  C   UNL     1       2.320   2.158  19.295  0.00  0.00    +0.000 A 
ATOM     12  C   UNL     1       2.191   3.054  20.354  0.00  0.00    +0.000 A 
ATOM     13 CL   UNL     1       1.226   2.636  21.715  0.00  0.00    +0.000 Cl
ATOM     14  C   UNL     1       2.852   4.282  20.326  0.00  0.00    +0.000 A 
ATOM     15  C   UNL     1       3.667   4.611  19.241  0.00  0.00    +0.000 A 
ENDBRANCH   5   9
BRANCH   1  16
ATOM     16  O   UNL     1       4.845   3.807  13.090  0.00  0.00    +0.000 OA
BRANCH  16  18
ATOM     17  C   UNL     1       3.800   3.346  11.017  0.00  0.00    +0.000 C 
ATOM     18  C   UNL     1       5.041   3.122  11.861  0.00  0.00    +0.000 C 
ENDBRANCH  16  18
ENDBRANCH   1  16
TORSDOF 3
ENDMDL
MODEL 4
REMARK VINA RESULT:      -6.7      3.906      5.342
REMARK  Name = 
REMARK  5 active torsions:
REMARK  status: ('A' for Active; 'I' for Inactive)
REMARK    1  A    between atoms: C_1  and  C_2
REMARK    2  A    between atoms: C_2  and  O_3
REMARK    3  A    between atoms: O_3  and  C_4
REMARK    4  A    between atoms: C_4  and  C_5
REMARK    5  A    between atoms: C_8  and  C_9
REMARK                            x       y       z     vdW  Elec       q    Type
REMARK                         _______ _______ _______ _____ _____    ______ ____
ROOT
ATOM      1  C   UNL     1       5.485   5.295  16.473  0.00  0.00    +0.000 C 
ATOM      2  C   UNL     1       5.683   3.913  15.914  0.00  0.00    +0.000 C 
ATOM      3  C   UNL     1       4.382   5.642  17.159  0.00  0.00    +0.000 C 
ATOM      4  N   UNL     1       4.137   6.901  17.653  0.00  0.00    +0.000 NA
ATOM      5  C   UNL     1       2.958   6.788  18.169  0.00  0.00    +0.000 C 
ATOM      6  O   UNL     1       2.362   5.576  18.114  0.00  0.00    +0.000 OA
ATOM      7  C   UNL     1       3.227   4.750  17.461  0.00  0.00    +0.000 C 
ATOM      8  O   UNL     1       3.050   3.577  17.198  0.00  0.00    +0.000 OA
ENDROOT
BRANCH   5   9
ATOM      9  C   UNL     1       2.165   7.866  18.776  0.00  0.00    +0.000 A 
ATOM     10  C   UNL     1       1.684   8.896  17.956  0.00  0.00    +0.000 A 
ATOM     11  C   UNL     1       0.847   9.881  18.486  0.00  0.00    +0.000 A 
ATOM     12  C   UNL     1       0.497   9.839  19.834  0.00  0.00    +0.000 A 
ATOM     13 CL   UNL     1      -0.571  11.023  20.479  0.00  0.00    +0.000 Cl
ATOM     14  C   UNL     1       0.995   8.833  20.662  0.00  0.00    +0.000 A 
ATOM     15  C   UNL     1       1.833   7.846  20.136  0.00  0.00    +0.000 A 
ENDBRANCH   5   9
BRANCH   1  16
ATOM     16  O   UNL     1       6.444   6.284  16.284  0.00  0.00    +0.000 OA
BRANCH  16  18
ATOM     17  C   UNL     1       7.651   7.911  17.507  0.00  0.00    +0.000 C 
ATOM     18  C   UNL     1       7.516   6.430  17.204  0.00  0.00    +0.000 C 
ENDBRANCH  16  18
ENDBRANCH   1  16
TORSDOF 3
ENDMDL
MODEL 5
REMARK VINA RESULT:      -6.6      1.259      1.611
REMARK  Name = 
REMARK  5 active torsions:
REMARK  status: ('A' for Active; 'I' for Inactive)
REMARK    1  A    between atoms: C_1  and  C_2
REMARK    2  A    between atoms: C_2  and  O_3
REMARK    3  A    between atoms: O_3  and  C_4
REMARK    4  A    between atoms: C_4  and  C_5
REMARK    5  A    between atoms: C_8  and  C_9
REMARK                            x       y       z     vdW  Elec       q    Type
REMARK                         _______ _______ _______ _____ _____    ______ ____
ROOT
ATOM      1  C   UNL     1       5.796   4.028  13.091  0.00  0.00    +0.000 C 
ATOM      2  C   UNL     1       6.988   4.307  12.215  0.00  0.00    +0.000 C 
ATOM      3  C   UNL     1       5.783   4.326  14.402  0.00  0.00    +0.000 C 
ATOM      4  N   UNL     1       4.736   4.053  15.250  0.00  0.00    +0.000 NA
ATOM      5  C   UNL     1       5.182   4.444  16.398  0.00  0.00    +0.000 C 
ATOM      6  O   UNL     1       6.419   4.987  16.440  0.00  0.00    +0.000 OA
ATOM      7  C   UNL     1       6.899   4.951  15.165  0.00  0.00    +0.000 C 
ATOM      8  O   UNL     1       7.989   5.335  14.790  0.00  0.00    +0.000 OA
ENDROOT
BRANCH   5   9
ATOM      9  C   UNL     1       4.494   4.314  17.691  0.00  0.00    +0.000 A 
ATOM     10  C   UNL     1       4.304   5.460  18.475  0.00  0.00    +0.000 A 
ATOM     11  C   UNL     1       3.571   5.384  19.661  0.00  0.00    +0.000 A 
ATOM     12  C   UNL     1       3.033   4.164  20.065  0.00  0.00    +0.000 A 
ATOM     13 CL   UNL     1       2.090   4.077  21.500  0.00  0.00    +0.000 Cl
ATOM     14  C   UNL     1       3.242   3.013  19.303  0.00  0.00    +0.000 A 
ATOM     15  C   UNL     1       3.975   3.085  18.117  0.00  0.00    +0.000 A 
ENDBRANCH   5   9
BRANCH   1  16
ATOM     16  O   UNL     1       4.655   3.429  12.571  0.00  0.00    +0.000 OA
BRANCH  16  18
ATOM     17  C   UNL     1       3.363   3.368  10.589  0.00  0.00    +0.000 C 
ATOM     18  C   UNL     1       4.653   2.915  11.247  0.00  0.00    +0.000 C 
ENDBRANCH  16  18
ENDBRANCH   1  16
TORSDOF 3
ENDMDL
MODEL 6
REMARK VINA RESULT:      -6.6      1.414      1.867
REMARK  Name = 
REMARK  5 active torsions:
REMARK  status: ('A' for Active; 'I' for Inactive)
REMARK    1  A    between atoms: C_1  and  C_2
REMARK    2  A    between atoms: C_2  and  O_3
REMARK    3  A    between atoms: O_3  and  C_4
REMARK    4  A    between atoms: C_4  and  C_5
REMARK    5  A    between atoms: C_8  and  C_9
REMARK                            x       y       z     vdW  Elec       q    Type
REMARK                         _______ _______ _______ _____ _____    ______ ____
ROOT
ATOM      1  C   UNL     1       5.903   3.795  12.880  0.00  0.00    +0.000 C 
ATOM      2  C   UNL     1       7.131   3.963  12.026  0.00  0.00    +0.000 C 
ATOM      3  C   UNL     1       5.822   4.293  14.126  0.00  0.00    +0.000 C 
ATOM      4  N   UNL     1       4.741   4.131  14.959  0.00  0.00    +0.000 NA
ATOM      5  C   UNL     1       5.124   4.706  16.050  0.00  0.00    +0.000 C 
ATOM      6  O   UNL     1       6.349   5.279  16.062  0.00  0.00    +0.000 OA
ATOM      7  C   UNL     1       6.890   5.055  14.832  0.00  0.00    +0.000 C 
ATOM      8  O   UNL     1       7.990   5.402  14.451  0.00  0.00    +0.000 OA
ENDROOT
BRANCH   5   9
ATOM      9  C   UNL     1       4.377   4.763  17.315  0.00  0.00    +0.000 A 
ATOM     10  C   UNL     1       3.158   4.079  17.412  0.00  0.00    +0.000 A 
ATOM     11  C   UNL     1       2.474   4.035  18.630  0.00  0.00    +0.000 A 
ATOM     12  C   UNL     1       3.007   4.677  19.746  0.00  0.00    +0.000 A 
ATOM     13 CL   UNL     1       2.192   4.584  21.257  0.00  0.00    +0.000 Cl
ATOM     14  C   UNL     1       4.206   5.383  19.649  0.00  0.00    +0.000 A 
ATOM     15  C   UNL     1       4.892   5.430  18.433  0.00  0.00    +0.000 A 
ENDBRANCH   5   9
BRANCH   1  16
ATOM     16  O   UNL     1       4.799   3.096  12.409  0.00  0.00    +0.000 OA
BRANCH  16  18
ATOM     17  C   UNL     1       3.366   3.434  10.556  0.00  0.00    +0.000 C 
ATOM     18  C   UNL     1       4.666   2.808  11.025  0.00  0.00    +0.000 C 
ENDBRANCH  16  18
ENDBRANCH   1  16
TORSDOF 3
ENDMDL
MODEL 7
REMARK VINA RESULT:      -6.4      4.380      6.099
REMARK  Name = 
REMARK  5 active torsions:
REMARK  status: ('A' for Active; 'I' for Inactive)
REMARK    1  A    between atoms: C_1  and  C_2
REMARK    2  A    between atoms: C_2  and  O_3
REMARK    3  A    between atoms: O_3  and  C_4
REMARK    4  A    between atoms: C_4  and  C_5
REMARK    5  A    between atoms: C_8  and  C_9
REMARK                            x       y       z     vdW  Elec       q    Type
REMARK                         _______ _______ _______ _____ _____    ______ ____
ROOT
ATOM      1  C   UNL     1       4.304   3.790  19.208  0.00  0.00    +0.000 C 
ATOM      2  C   UNL     1       4.311   2.414  19.816  0.00  0.00    +0.000 C 
ATOM      3  C   UNL     1       3.484   4.763  19.643  0.00  0.00    +0.000 C 
ATOM      4  N   UNL     1       3.410   6.021  19.094  0.00  0.00    +0.000 NA
ATOM      5  C   UNL     1       2.465   6.581  19.772  0.00  0.00    +0.000 C 
ATOM      6  O   UNL     1       1.885   5.858  20.757  0.00  0.00    +0.000 OA
ATOM      7  C   UNL     1       2.492   4.638  20.747  0.00  0.00    +0.000 C 
ATOM      8  O   UNL     1       2.241   3.699  21.476  0.00  0.00    +0.000 OA
ENDROOT
BRANCH   5   9
ATOM      9  C   UNL     1       1.910   7.924  19.551  0.00  0.00    +0.000 A 
ATOM     10  C   UNL     1       1.992   8.487  18.270  0.00  0.00    +0.000 A 
ATOM     11  C   UNL     1       1.389   9.720  18.007  0.00  0.00    +0.000 A 
ATOM     12  C   UNL     1       0.710  10.389  19.023  0.00  0.00    +0.000 A 
ATOM     13 CL   UNL     1      -0.073  11.883  18.690  0.00  0.00    +0.000 Cl
ATOM     14  C   UNL     1       0.648   9.847  20.307  0.00  0.00    +0.000 A 
ATOM     15  C   UNL     1       1.251   8.615  20.575  0.00  0.00    +0.000 A 
ENDBRANCH   5   9
BRANCH   1  16
ATOM     16  O   UNL     1       5.146   4.105  18.149  0.00  0.00    +0.000 OA
BRANCH  16  18
ATOM     17  C   UNL     1       5.193   4.873  15.911  0.00  0.00    +0.000 C 
ATOM     18  C   UNL     1       4.808   3.723  16.824  0.00  0.00    +0.000 C 
ENDBRANCH  16  18
ENDBRANCH   1  16
TORSDOF 3
ENDMDL
MODEL 8
REMARK VINA RESULT:      -6.4      4.430      6.200
REMARK  Name = 
REMARK  5 active torsions:
REMARK  status: ('A' for Active; 'I' for Inactive)
REMARK    1  A    between atoms: C_1  and  C_2
REMARK    2  A    between atoms: C_2  and  O_3
REMARK    3  A    between atoms: O_3  and  C_4
REMARK    4  A    between atoms: C_4  and  C_5
REMARK    5  A    between atoms: C_8  and  C_9
REMARK                            x       y       z     vdW  Elec       q    Type
REMARK                         _______ _______ _______ _____ _____    ______ ____
ROOT
ATOM      1  C   UNL     1       4.213   3.718  19.395  0.00  0.00    +0.000 C 
ATOM      2  C   UNL     1       4.178   2.364  20.049  0.00  0.00    +0.000 C 
ATOM      3  C   UNL     1       3.392   4.716  19.765  0.00  0.00    +0.000 C 
ATOM      4  N   UNL     1       3.357   5.956  19.171  0.00  0.00    +0.000 NA
ATOM      5  C   UNL     1       2.394   6.551  19.795  0.00  0.00    +0.000 C 
ATOM      6  O   UNL     1       1.768   5.870  20.781  0.00  0.00    +0.000 OA
ATOM      7  C   UNL     1       2.358   4.642  20.835  0.00  0.00    +0.000 C 
ATOM      8  O   UNL     1       2.066   3.732  21.585  0.00  0.00    +0.000 OA
ENDROOT
BRANCH   5   9
ATOM      9  C   UNL     1       1.868   7.893  19.507  0.00  0.00    +0.000 A 
ATOM     10  C   UNL     1       1.211   8.594  20.528  0.00  0.00    +0.000 A 
ATOM     11  C   UNL     1       0.786   9.908  20.313  0.00  0.00    +0.000 A 
ATOM     12  C   UNL     1       1.012  10.515  19.080  0.00  0.00    +0.000 A 
ATOM     13 CL   UNL     1       0.532  12.147  18.828  0.00  0.00    +0.000 Cl
ATOM     14  C   UNL     1       1.640   9.813  18.051  0.00  0.00    +0.000 A 
ATOM     15  C   UNL     1       2.066   8.499  18.261  0.00  0.00    +0.000 A 
ENDBRANCH   5   9
BRANCH   1  16
ATOM     16  O   UNL     1       5.098   3.986  18.358  0.00  0.00    +0.000 OA
BRANCH  16  18
ATOM     17  C   UNL     1       5.058   4.866  16.161  0.00  0.00    +0.000 C 
ATOM     18  C   UNL     1       4.761   3.650  17.019  0.00  0.00    +0.000 C 
ENDBRANCH  16  18
ENDBRANCH   1  16
TORSDOF 3
ENDMDL
MODEL 9
REMARK VINA RESULT:      -6.4      3.965      5.329
REMARK  Name = 
REMARK  5 active torsions:
REMARK  status: ('A' for Active; 'I' for Inactive)
REMARK    1  A    between atoms: C_1  and  C_2
REMARK    2  A    between atoms: C_2  and  O_3
REMARK    3  A    between atoms: O_3  and  C_4
REMARK    4  A    between atoms: C_4  and  C_5
REMARK    5  A    between atoms: C_8  and  C_9
REMARK                            x       y       z     vdW  Elec       q    Type
REMARK                         _______ _______ _______ _____ _____    ______ ____
ROOT
ATOM      1  C   UNL     1       4.438   4.126  17.403  0.00  0.00    +0.000 C 
ATOM      2  C   UNL     1       5.555   3.719  16.480  0.00  0.00    +0.000 C 
ATOM      3  C   UNL     1       4.002   5.395  17.486  0.00  0.00    +0.000 C 
ATOM      4  N   UNL     1       3.016   5.824  18.342  0.00  0.00    +0.000 NA
ATOM      5  C   UNL     1       2.976   7.097  18.128  0.00  0.00    +0.000 C 
ATOM      6  O   UNL     1       3.811   7.603  17.193  0.00  0.00    +0.000 OA
ATOM      7  C   UNL     1       4.533   6.552  16.712  0.00  0.00    +0.000 C 
ATOM      8  O   UNL     1       5.402   6.598  15.865  0.00  0.00    +0.000 OA
ENDROOT
BRANCH   5   9
ATOM      9  C   UNL     1       2.141   8.075  18.839  0.00  0.00    +0.000 A 
ATOM     10  C   UNL     1       1.617   9.162  18.127  0.00  0.00    +0.000 A 
ATOM     11  C   UNL     1       0.742  10.054  18.753  0.00  0.00    +0.000 A 
ATOM     12  C   UNL     1       0.397   9.862  20.089  0.00  0.00    +0.000 A 
ATOM     13 CL   UNL     1      -0.716  10.930  20.848  0.00  0.00    +0.000 Cl
ATOM     14  C   UNL     1       0.937   8.798  20.812  0.00  0.00    +0.000 A 
ATOM     15  C   UNL     1       1.812   7.904  20.190  0.00  0.00    +0.000 A 
ENDBRANCH   5   9
BRANCH   1  16
ATOM     16  O   UNL     1       3.819   3.194  18.226  0.00  0.00    +0.000 OA
BRANCH  16  18
ATOM     17  C   UNL     1       1.798   2.116  18.823  0.00  0.00    +0.000 C 
ATOM     18  C   UNL     1       2.806   2.341  17.711  0.00  0.00    +0.000 C 
ENDBRANCH  16  18
ENDBRANCH   1  16
TORSDOF 3
ENDMDL
