MODEL 1
REMARK VINA RESULT:      -7.8      0.000      0.000
REMARK  Name = 
REMARK  8 active torsions:
REMARK  status: ('A' for Active; 'I' for Inactive)
REMARK    1  A    between atoms: C_1  and  C_2
REMARK    2  A    between atoms: C_11  and  C_12
REMARK    3  A    between atoms: C_14  and  C_15
REMARK    4  A    between atoms: C_15  and  C_16
REMARK    5  A    between atoms: C_16  and  C_17
REMARK    6  A    between atoms: C_17  and  C_18
REMARK    7  A    between atoms: C_17  and  C_19
REMARK    8  A    between atoms: C_17  and  O_20
REMARK                            x       y       z     vdW  Elec       q    Type
REMARK                         _______ _______ _______ _____ _____    ______ ____
ROOT
ATOM      1  C   UNL     1       1.541   2.265  21.889  0.00  0.00    +0.000 C 
ATOM      2  C   UNL     1       1.985   3.462  21.100  0.00  0.00    +0.000 A 
ATOM      3  N   UNL     1       1.377   4.606  21.243  0.00  0.00    +0.000 NA
ATOM      4  C   UNL     1       1.822   5.700  20.462  0.00  0.00    +0.000 A 
ATOM      5  C   UNL     1       1.221   6.943  20.650  0.00  0.00    +0.000 A 
ATOM      6  C   UNL     1       1.637   8.044  19.903  0.00  0.00    +0.000 A 
ATOM      7  C   UNL     1       2.633   7.860  18.961  0.00  0.00    +0.000 A 
ATOM      8  N   UNL     1       3.236   6.673  18.735  0.00  0.00    +0.000 NA
ATOM      9  C   UNL     1       2.849   5.628  19.502  0.00  0.00    +0.000 A 
ATOM     10  N   UNL     1       3.509   4.381  19.419  0.00  0.00    +0.000 N 
ATOM     11  C   UNL     1       4.602   3.902  18.706  0.00  0.00    +0.000 A 
ATOM     12  N   UNL     1       4.766   2.628  19.046  0.00  0.00    +0.000 NA
ATOM     13  N   UNL     1       3.812   2.267  19.965  0.00  0.00    +0.000 NA
ATOM     14  C   UNL     1       3.083   3.330  20.186  0.00  0.00    +0.000 A 
ENDROOT
BRANCH  11  15
ATOM     15  C   UNL     1       5.456   4.626  17.748  0.00  0.00    +0.000 A 
ATOM     16  C   UNL     1       5.143   4.615  16.378  0.00  0.00    +0.000 A 
ATOM     17  C   UNL     1       6.009   5.141  15.407  0.00  0.00    +0.000 A 
ATOM     18  C   UNL     1       7.149   5.824  15.826  0.00  0.00    +0.000 A 
ATOM     19  C   UNL     1       7.423   5.955  17.187  0.00  0.00    +0.000 A 
ATOM     20  C   UNL     1       6.597   5.348  18.143  0.00  0.00    +0.000 A 
ATOM     21 CL   UNL     1       7.094   5.511  19.793  0.00  0.00    +0.000 Cl
BRANCH  17  22
ATOM     22  C   UNL     1       5.773   4.861  13.942  0.00  0.00    +0.000 C 
BRANCH  22  23
ATOM     23  C   UNL     1       5.890   3.382  13.565  0.00  0.00    +0.000 C 
BRANCH  23  24
ATOM     24  C   UNL     1       5.863   3.100  12.049  0.00  0.00    +0.000 C 
ATOM     25  C   UNL     1       4.503   3.405  11.419  0.00  0.00    +0.000 C 
ATOM     26  C   UNL     1       6.972   3.843  11.301  0.00  0.00    +0.000 C 
BRANCH  24  27
ATOM     27  O   UNL     1       6.122   1.701  11.869  0.00  0.00    +0.000 OA
ATOM     28  H   UNL     1       6.849   1.610  11.228  0.00  0.00    +0.000 HD
ENDBRANCH  24  27
ENDBRANCH  23  24
ENDBRANCH  22  23
ENDBRANCH  17  22
ENDBRANCH  11  15
TORSDOF 5
ENDMDL
MODEL 2
REMARK VINA RESULT:      -7.7      4.791      7.438
REMARK  Name = 
REMARK  8 active torsions:
REMARK  status: ('A' for Active; 'I' for Inactive)
REMARK    1  A    between atoms: C_1  and  C_2
REMARK    2  A    between atoms: C_11  and  C_12
REMARK    3  A    between atoms: C_14  and  C_15
REMARK    4  A    between atoms: C_15  and  C_16
REMARK    5  A    between atoms: C_16  and  C_17
REMARK    6  A    between atoms: C_17  and  C_18
REMARK    7  A    between atoms: C_17  and  C_19
REMARK    8  A    between atoms: C_17  and  O_20
REMARK                            x       y       z     vdW  Elec       q    Type
REMARK                         _______ _______ _______ _____ _____    ______ ____
ROOT
ATOM      1  C   UNL     1      -2.115  13.202  22.354  0.00  0.00    +0.000 C 
ATOM      2  C   UNL     1      -1.872  12.339  21.151  0.00  0.00    +0.000 A 
ATOM      3  N   UNL     1      -2.681  12.392  20.129  0.00  0.00    +0.000 NA
ATOM      4  C   UNL     1      -2.418  11.543  19.026  0.00  0.00    +0.000 A 
ATOM      5  C   UNL     1      -3.238  11.635  17.904  0.00  0.00    +0.000 A 
ATOM      6  C   UNL     1      -3.006  10.820  16.798  0.00  0.00    +0.000 A 
ATOM      7  C   UNL     1      -1.966   9.909  16.859  0.00  0.00    +0.000 A 
ATOM      8  N   UNL     1      -1.152   9.778  17.928  0.00  0.00    +0.000 NA
ATOM      9  C   UNL     1      -1.367  10.609  18.973  0.00  0.00    +0.000 A 
ATOM     10  N   UNL     1      -0.490  10.624  20.081  0.00  0.00    +0.000 N 
ATOM     11  C   UNL     1       0.692   9.966  20.400  0.00  0.00    +0.000 A 
ATOM     12  N   UNL     1       1.074  10.397  21.597  0.00  0.00    +0.000 NA
ATOM     13  N   UNL     1       0.173  11.322  22.065  0.00  0.00    +0.000 NA
ATOM     14  C   UNL     1      -0.742  11.456  21.140  0.00  0.00    +0.000 A 
ENDROOT
BRANCH  11  15
ATOM     15  C   UNL     1       1.429   8.974  19.596  0.00  0.00    +0.000 A 
ATOM     16  C   UNL     1       1.463   7.628  19.999  0.00  0.00    +0.000 A 
ATOM     17  C   UNL     1       2.284   6.678  19.371  0.00  0.00    +0.000 A 
ATOM     18  C   UNL     1       2.980   7.050  18.222  0.00  0.00    +0.000 A 
ATOM     19  C   UNL     1       2.870   8.350  17.729  0.00  0.00    +0.000 A 
ATOM     20  C   UNL     1       2.117   9.312  18.417  0.00  0.00    +0.000 A 
ATOM     21 CL   UNL     1       2.131  10.910  17.750  0.00  0.00    +0.000 Cl
BRANCH  17  22
ATOM     22  C   UNL     1       2.505   5.324  20.002  0.00  0.00    +0.000 C 
BRANCH  22  23
ATOM     23  C   UNL     1       3.908   4.755  19.776  0.00  0.00    +0.000 C 
BRANCH  23  24
ATOM     24  C   UNL     1       3.942   3.392  19.055  0.00  0.00    +0.000 C 
ATOM     25  C   UNL     1       2.779   2.485  19.459  0.00  0.00    +0.000 C 
ATOM     26  C   UNL     1       3.991   3.543  17.532  0.00  0.00    +0.000 C 
BRANCH  24  27
ATOM     27  O   UNL     1       5.158   2.736  19.435  0.00  0.00    +0.000 OA
ATOM     28  H   UNL     1       4.924   1.930  19.928  0.00  0.00    +0.000 HD
ENDBRANCH  24  27
ENDBRANCH  23  24
ENDBRANCH  22  23
ENDBRANCH  17  22
ENDBRANCH  11  15
TORSDOF 5
ENDMDL
MODEL 3
REMARK VINA RESULT:      -7.6      5.705      8.066
REMARK  Name = 
REMARK  8 active torsions:
REMARK  status: ('A' for Active; 'I' for Inactive)
REMARK    1  A    between atoms: C_1  and  C_2
REMARK    2  A    between atoms: C_11  and  C_12
REMARK    3  A    between atoms: C_14  and  C_15
REMARK    4  A    between atoms: C_15  and  C_16
REMARK    5  A    between atoms: C_16  and  C_17
REMARK    6  A    between atoms: C_17  and  C_18
REMARK    7  A    between atoms: C_17  and  C_19
REMARK    8  A    between atoms: C_17  and  O_20
REMARK                            x       y       z     vdW  Elec       q    Type
REMARK                         _______ _______ _______ _____ _____    ______ ____
ROOT
ATOM      1  C   UNL     1      -2.118  13.871  22.032  0.00  0.00    +0.000 C 
ATOM      2  C   UNL     1      -1.929  12.836  20.961  0.00  0.00    +0.000 A 
ATOM      3  N   UNL     1      -2.754  12.776  19.952  0.00  0.00    +0.000 NA
ATOM      4  C   UNL     1      -2.544  11.770  18.978  0.00  0.00    +0.000 A 
ATOM      5  C   UNL     1      -3.381  11.734  17.864  0.00  0.00    +0.000 A 
ATOM      6  C   UNL     1      -3.200  10.761  16.883  0.00  0.00    +0.000 A 
ATOM      7  C   UNL     1      -2.195   9.828  17.060  0.00  0.00    +0.000 A 
ATOM      8  N   UNL     1      -1.367   9.816  18.126  0.00  0.00    +0.000 NA
ATOM      9  C   UNL     1      -1.530  10.795  19.046  0.00  0.00    +0.000 A 
ATOM     10  N   UNL     1      -0.634  10.932  20.129  0.00  0.00    +0.000 N 
ATOM     11  C   UNL     1       0.528  10.279  20.523  0.00  0.00    +0.000 A 
ATOM     12  N   UNL     1       0.947  10.859  21.642  0.00  0.00    +0.000 NA
ATOM     13  N   UNL     1       0.091  11.877  21.984  0.00  0.00    +0.000 NA
ATOM     14  C   UNL     1      -0.835  11.916  21.061  0.00  0.00    +0.000 A 
ENDROOT
BRANCH  11  15
ATOM     15  C   UNL     1       1.212   9.154  19.860  0.00  0.00    +0.000 A 
ATOM     16  C   UNL     1       1.175   7.872  20.434  0.00  0.00    +0.000 A 
ATOM     17  C   UNL     1       1.945   6.807  19.940  0.00  0.00    +0.000 A 
ATOM     18  C   UNL     1       2.659   6.989  18.757  0.00  0.00    +0.000 A 
ATOM     19  C   UNL     1       2.617   8.218  18.099  0.00  0.00    +0.000 A 
ATOM     20  C   UNL     1       1.916   9.300  18.652  0.00  0.00    +0.000 A 
ATOM     21 CL   UNL     1       2.014  10.794  17.783  0.00  0.00    +0.000 Cl
BRANCH  17  22
ATOM     22  C   UNL     1       2.095   5.537  20.743  0.00  0.00    +0.000 C 
BRANCH  22  23
ATOM     23  C   UNL     1       2.813   4.410  19.995  0.00  0.00    +0.000 C 
BRANCH  23  24
ATOM     24  C   UNL     1       2.127   3.032  20.094  0.00  0.00    +0.000 C 
ATOM     25  C   UNL     1       1.831   2.625  21.538  0.00  0.00    +0.000 C 
ATOM     26  C   UNL     1       0.851   2.958  19.251  0.00  0.00    +0.000 C 
BRANCH  24  27
ATOM     27  O   UNL     1       3.030   2.064  19.545  0.00  0.00    +0.000 OA
ATOM     28  H   UNL     1       2.945   1.245  20.064  0.00  0.00    +0.000 HD
ENDBRANCH  24  27
ENDBRANCH  23  24
ENDBRANCH  22  23
ENDBRANCH  17  22
ENDBRANCH  11  15
TORSDOF 5
ENDMDL
MODEL 4
REMARK VINA RESULT:      -7.5      3.900      7.570
REMARK  Name = 
REMARK  8 active torsions:
REMARK  status: ('A' for Active; 'I' for Inactive)
REMARK    1  A    between atoms: C_1  and  C_2
REMARK    2  A    between atoms: C_11  and  C_12
REMARK    3  A    between atoms: C_14  and  C_15
REMARK    4  A    between atoms: C_15  and  C_16
REMARK    5  A    between atoms: C_16  and  C_17
REMARK    6  A    between atoms: C_17  and  C_18
REMARK    7  A    between atoms: C_17  and  C_19
REMARK    8  A    between atoms: C_17  and  O_20
REMARK                            x       y       z     vdW  Elec       q    Type
REMARK                         _______ _______ _______ _____ _____    ______ ____
ROOT
ATOM      1  C   UNL     1       6.254   4.018  15.627  0.00  0.00    +0.000 C 
ATOM      2  C   UNL     1       5.012   4.112  16.463  0.00  0.00    +0.000 A 
ATOM      3  N   UNL     1       4.314   3.042  16.727  0.00  0.00    +0.000 NA
ATOM      4  C   UNL     1       3.139   3.187  17.504  0.00  0.00    +0.000 A 
ATOM      5  C   UNL     1       2.419   2.044  17.844  0.00  0.00    +0.000 A 
ATOM      6  C   UNL     1       1.261   2.147  18.612  0.00  0.00    +0.000 A 
ATOM      7  C   UNL     1       0.839   3.407  18.998  0.00  0.00    +0.000 A 
ATOM      8  N   UNL     1       1.497   4.543  18.684  0.00  0.00    +0.000 NA
ATOM      9  C   UNL     1       2.643   4.417  17.975  0.00  0.00    +0.000 A 
ATOM     10  N   UNL     1       3.458   5.539  17.706  0.00  0.00    +0.000 N 
ATOM     11  C   UNL     1       3.411   6.884  18.051  0.00  0.00    +0.000 A 
ATOM     12  N   UNL     1       4.473   7.469  17.507  0.00  0.00    +0.000 NA
ATOM     13  N   UNL     1       5.212   6.537  16.820  0.00  0.00    +0.000 NA
ATOM     14  C   UNL     1       4.600   5.391  16.965  0.00  0.00    +0.000 A 
ENDROOT
BRANCH  11  15
ATOM     15  C   UNL     1       2.403   7.582  18.868  0.00  0.00    +0.000 A 
ATOM     16  C   UNL     1       1.719   8.693  18.345  0.00  0.00    +0.000 A 
ATOM     17  C   UNL     1       0.877   9.495  19.131  0.00  0.00    +0.000 A 
ATOM     18  C   UNL     1       0.599   9.094  20.437  0.00  0.00    +0.000 A 
ATOM     19  C   UNL     1       1.170   7.928  20.945  0.00  0.00    +0.000 A 
ATOM     20  C   UNL     1       2.079   7.185  20.178  0.00  0.00    +0.000 A 
ATOM     21 CL   UNL     1       2.784   5.808  20.955  0.00  0.00    +0.000 Cl
BRANCH  17  22
ATOM     22  C   UNL     1       0.389  10.827  18.614  0.00  0.00    +0.000 C 
BRANCH  22  23
ATOM     23  C   UNL     1      -1.051  11.158  19.013  0.00  0.00    +0.000 C 
BRANCH  23  24
ATOM     24  C   UNL     1      -2.046  11.230  17.836  0.00  0.00    +0.000 C 
ATOM     25  C   UNL     1      -2.026   9.968  16.972  0.00  0.00    +0.000 C 
ATOM     26  C   UNL     1      -3.473  11.531  18.301  0.00  0.00    +0.000 C 
BRANCH  24  27
ATOM     27  O   UNL     1      -1.650  12.331  17.008  0.00  0.00    +0.000 OA
ATOM     28  H   UNL     1      -0.931  12.027  16.427  0.00  0.00    +0.000 HD
ENDBRANCH  24  27
ENDBRANCH  23  24
ENDBRANCH  22  23
ENDBRANCH  17  22
ENDBRANCH  11  15
TORSDOF 5
ENDMDL
MODEL 5
REMARK VINA RESULT:      -7.4      1.024      2.993
REMARK  Name = 
REMARK  8 active torsions:
REMARK  status: ('A' for Active; 'I' for Inactive)
REMARK    1  A    between atoms: C_1  and  C_2
REMARK    2  A    between atoms: C_11  and  C_12
REMARK    3  A    between atoms: C_14  and  C_15
REMARK    4  A    between atoms: C_15  and  C_16
REMARK    5  A    between atoms: C_16  and  C_17
REMARK    6  A    between atoms: C_17  and  C_18
REMARK    7  A    between atoms: C_17  and  C_19
REMARK    8  A    between atoms: C_17  and  O_20
REMARK                            x       y       z     vdW  Elec       q    Type
REMARK                         _______ _______ _______ _____ _____    ______ ____
ROOT
ATOM      1  C   UNL     1       0.712   8.140  20.912  0.00  0.00    +0.000 C 
ATOM      2  C   UNL     1       1.564   6.968  20.521  0.00  0.00    +0.000 A 
ATOM      3  N   UNL     1       1.426   5.823  21.130  0.00  0.00    +0.000 NA
ATOM      4  C   UNL     1       2.268   4.753  20.736  0.00  0.00    +0.000 A 
ATOM      5  C   UNL     1       2.089   3.508  21.336  0.00  0.00    +0.000 A 
ATOM      6  C   UNL     1       2.894   2.432  20.970  0.00  0.00    +0.000 A 
ATOM      7  C   UNL     1       3.883   2.642  20.024  0.00  0.00    +0.000 A 
ATOM      8  N   UNL     1       4.100   3.831  19.424  0.00  0.00    +0.000 NA
ATOM      9  C   UNL     1       3.278   4.852  19.761  0.00  0.00    +0.000 A 
ATOM     10  N   UNL     1       3.355   6.097  19.097  0.00  0.00    +0.000 N 
ATOM     11  C   UNL     1       4.108   6.594  18.040  0.00  0.00    +0.000 A 
ATOM     12  N   UNL     1       3.735   7.854  17.847  0.00  0.00    +0.000 NA
ATOM     13  N   UNL     1       2.754   8.189  18.748  0.00  0.00    +0.000 NA
ATOM     14  C   UNL     1       2.530   7.124  19.473  0.00  0.00    +0.000 A 
ENDROOT
BRANCH  11  15
ATOM     15  C   UNL     1       5.135   5.898  17.244  0.00  0.00    +0.000 A 
ATOM     16  C   UNL     1       4.933   5.682  15.870  0.00  0.00    +0.000 A 
ATOM     17  C   UNL     1       5.793   4.882  15.102  0.00  0.00    +0.000 A 
ATOM     18  C   UNL     1       6.963   4.401  15.690  0.00  0.00    +0.000 A 
ATOM     19  C   UNL     1       7.248   4.700  17.021  0.00  0.00    +0.000 A 
ATOM     20  C   UNL     1       6.337   5.426  17.801  0.00  0.00    +0.000 A 
ATOM     21 CL   UNL     1       6.769   5.656  19.461  0.00  0.00    +0.000 Cl
BRANCH  17  22
ATOM     22  C   UNL     1       5.395   4.448  13.712  0.00  0.00    +0.000 C 
BRANCH  22  23
ATOM     23  C   UNL     1       5.776   3.003  13.379  0.00  0.00    +0.000 C 
BRANCH  23  24
ATOM     24  C   UNL     1       5.816   2.679  11.871  0.00  0.00    +0.000 C 
ATOM     25  C   UNL     1       4.532   3.091  11.148  0.00  0.00    +0.000 C 
ATOM     26  C   UNL     1       7.035   3.293  11.178  0.00  0.00    +0.000 C 
BRANCH  24  27
ATOM     27  O   UNL     1       5.951   1.258  11.742  0.00  0.00    +0.000 OA
ATOM     28  H   UNL     1       6.746   1.079  11.209  0.00  0.00    +0.000 HD
ENDBRANCH  24  27
ENDBRANCH  23  24
ENDBRANCH  22  23
ENDBRANCH  17  22
ENDBRANCH  11  15
TORSDOF 5
ENDMDL
MODEL 6
REMARK VINA RESULT:      -7.3      5.534      7.765
REMARK  Name = 
REMARK  8 active torsions:
REMARK  status: ('A' for Active; 'I' for Inactive)
REMARK    1  A    between atoms: C_1  and  C_2
REMARK    2  A    between atoms: C_11  and  C_12
REMARK    3  A    between atoms: C_14  and  C_15
REMARK    4  A    between atoms: C_15  and  C_16
REMARK    5  A    between atoms: C_16  and  C_17
REMARK    6  A    between atoms: C_17  and  C_18
REMARK    7  A    between atoms: C_17  and  C_19
REMARK    8  A    between atoms: C_17  and  O_20
REMARK                            x       y       z     vdW  Elec       q    Type
REMARK                         _______ _______ _______ _____ _____    ______ ____
ROOT
ATOM      1  C   UNL     1      -1.972  12.979  22.973  0.00  0.00    +0.000 C 
ATOM      2  C   UNL     1      -1.777  12.216  21.696  0.00  0.00    +0.000 A 
ATOM      3  N   UNL     1      -2.629  12.344  20.717  0.00  0.00    +0.000 NA
ATOM      4  C   UNL     1      -2.411  11.587  19.540  0.00  0.00    +0.000 A 
ATOM      5  C   UNL     1      -3.278  11.761  18.463  0.00  0.00    +0.000 A 
ATOM      6  C   UNL     1      -3.091  11.037  17.287  0.00  0.00    +0.000 A 
ATOM      7  C   UNL     1      -2.047  10.132  17.232  0.00  0.00    +0.000 A 
ATOM      8  N   UNL     1      -1.188   9.921  18.252  0.00  0.00    +0.000 NA
ATOM      9  C   UNL     1      -1.360  10.666  19.369  0.00  0.00    +0.000 A 
ATOM     10  N   UNL     1      -0.437  10.599  20.437  0.00  0.00    +0.000 N 
ATOM     11  C   UNL     1       0.759   9.925  20.652  0.00  0.00    +0.000 A 
ATOM     12  N   UNL     1       1.190  10.262  21.862  0.00  0.00    +0.000 NA
ATOM     13  N   UNL     1       0.307  11.142  22.439  0.00  0.00    +0.000 NA
ATOM     14  C   UNL     1      -0.647  11.343  21.567  0.00  0.00    +0.000 A 
ENDROOT
BRANCH  11  15
ATOM     15  C   UNL     1       1.464   9.005  19.742  0.00  0.00    +0.000 A 
ATOM     16  C   UNL     1       1.604   7.649  20.083  0.00  0.00    +0.000 A 
ATOM     17  C   UNL     1       2.407   6.768  19.342  0.00  0.00    +0.000 A 
ATOM     18  C   UNL     1       2.970   7.218  18.149  0.00  0.00    +0.000 A 
ATOM     19  C   UNL     1       2.749   8.527  17.724  0.00  0.00    +0.000 A 
ATOM     20  C   UNL     1       2.019   9.422  18.519  0.00  0.00    +0.000 A 
ATOM     21 CL   UNL     1       1.889  11.042  17.921  0.00  0.00    +0.000 Cl
BRANCH  17  22
ATOM     22  C   UNL     1       2.755   5.405  19.892  0.00  0.00    +0.000 C 
BRANCH  22  23
ATOM     23  C   UNL     1       2.266   4.242  19.025  0.00  0.00    +0.000 C 
BRANCH  23  24
ATOM     24  C   UNL     1       1.495   3.147  19.791  0.00  0.00    +0.000 C 
ATOM     25  C   UNL     1       1.167   1.937  18.916  0.00  0.00    +0.000 C 
ATOM     26  C   UNL     1       2.229   2.701  21.059  0.00  0.00    +0.000 C 
BRANCH  24  27
ATOM     27  O   UNL     1       0.254   3.720  20.224  0.00  0.00    +0.000 OA
ATOM     28  H   UNL     1      -0.063   3.209  20.989  0.00  0.00    +0.000 HD
ENDBRANCH  24  27
ENDBRANCH  23  24
ENDBRANCH  22  23
ENDBRANCH  17  22
ENDBRANCH  11  15
TORSDOF 5
ENDMDL
MODEL 7
REMARK VINA RESULT:      -6.9      4.047      7.853
REMARK  Name = 
REMARK  8 active torsions:
REMARK  status: ('A' for Active; 'I' for Inactive)
REMARK    1  A    between atoms: C_1  and  C_2
REMARK    2  A    between atoms: C_11  and  C_12
REMARK    3  A    between atoms: C_14  and  C_15
REMARK    4  A    between atoms: C_15  and  C_16
REMARK    5  A    between atoms: C_16  and  C_17
REMARK    6  A    between atoms: C_17  and  C_18
REMARK    7  A    between atoms: C_17  and  C_19
REMARK    8  A    between atoms: C_17  and  O_20
REMARK                            x       y       z     vdW  Elec       q    Type
REMARK                         _______ _______ _______ _____ _____    ______ ____
ROOT
ATOM      1  C   UNL     1       6.447   3.996  15.522  0.00  0.00    +0.000 C 
ATOM      2  C   UNL     1       5.191   4.110  16.336  0.00  0.00    +0.000 A 
ATOM      3  N   UNL     1       4.492   3.046  16.619  0.00  0.00    +0.000 NA
ATOM      4  C   UNL     1       3.305   3.209  17.373  0.00  0.00    +0.000 A 
ATOM      5  C   UNL     1       2.583   2.073  17.735  0.00  0.00    +0.000 A 
ATOM      6  C   UNL     1       1.413   2.195  18.482  0.00  0.00    +0.000 A 
ATOM      7  C   UNL     1       0.982   3.464  18.826  0.00  0.00    +0.000 A 
ATOM      8  N   UNL     1       1.642   4.592  18.491  0.00  0.00    +0.000 NA
ATOM      9  C   UNL     1       2.799   4.450  17.803  0.00  0.00    +0.000 A 
ATOM     10  N   UNL     1       3.616   5.566  17.515  0.00  0.00    +0.000 N 
ATOM     11  C   UNL     1       3.561   6.921  17.822  0.00  0.00    +0.000 A 
ATOM     12  N   UNL     1       4.629   7.493  17.278  0.00  0.00    +0.000 NA
ATOM     13  N   UNL     1       5.381   6.545  16.628  0.00  0.00    +0.000 NA
ATOM     14  C   UNL     1       4.770   5.401  16.796  0.00  0.00    +0.000 A 
ENDROOT
BRANCH  11  15
ATOM     15  C   UNL     1       2.538   7.638  18.604  0.00  0.00    +0.000 A 
ATOM     16  C   UNL     1       1.858   8.730  18.038  0.00  0.00    +0.000 A 
ATOM     17  C   UNL     1       1.002   9.552  18.789  0.00  0.00    +0.000 A 
ATOM     18  C   UNL     1       0.707   9.188  20.103  0.00  0.00    +0.000 A 
ATOM     19  C   UNL     1       1.275   8.040  20.653  0.00  0.00    +0.000 A 
ATOM     20  C   UNL     1       2.198   7.279  19.921  0.00  0.00    +0.000 A 
ATOM     21 CL   UNL     1       2.897   5.927  20.747  0.00  0.00    +0.000 Cl
BRANCH  17  22
ATOM     22  C   UNL     1       0.516  10.865  18.226  0.00  0.00    +0.000 C 
BRANCH  22  23
ATOM     23  C   UNL     1       0.290  11.949  19.283  0.00  0.00    +0.000 C 
BRANCH  23  24
ATOM     24  C   UNL     1      -0.763  13.011  18.902  0.00  0.00    +0.000 C 
ATOM     25  C   UNL     1      -1.962  13.016  19.852  0.00  0.00    +0.000 C 
ATOM     26  C   UNL     1      -0.160  14.414  18.803  0.00  0.00    +0.000 C 
BRANCH  24  27
ATOM     27  O   UNL     1      -1.245  12.685  17.593  0.00  0.00    +0.000 OA
ATOM     28  H   UNL     1      -0.503  12.314  17.083  0.00  0.00    +0.000 HD
ENDBRANCH  24  27
ENDBRANCH  23  24
ENDBRANCH  22  23
ENDBRANCH  17  22
ENDBRANCH  11  15
TORSDOF 5
ENDMDL
MODEL 8
REMARK VINA RESULT:      -6.8      3.193      4.857
REMARK  Name = 
REMARK  8 active torsions:
REMARK  status: ('A' for Active; 'I' for Inactive)
REMARK    1  A    between atoms: C_1  and  C_2
REMARK    2  A    between atoms: C_11  and  C_12
REMARK    3  A    between atoms: C_14  and  C_15
REMARK    4  A    between atoms: C_15  and  C_16
REMARK    5  A    between atoms: C_16  and  C_17
REMARK    6  A    between atoms: C_17  and  C_18
REMARK    7  A    between atoms: C_17  and  C_19
REMARK    8  A    between atoms: C_17  and  O_20
REMARK                            x       y       z     vdW  Elec       q    Type
REMARK                         _______ _______ _______ _____ _____    ______ ____
ROOT
ATOM      1  C   UNL     1       1.757   2.448  21.720  0.00  0.00    +0.000 C 
ATOM      2  C   UNL     1       2.186   3.681  20.978  0.00  0.00    +0.000 A 
ATOM      3  N   UNL     1       1.470   4.769  21.043  0.00  0.00    +0.000 NA
ATOM      4  C   UNL     1       1.908   5.899  20.310  0.00  0.00    +0.000 A 
ATOM      5  C   UNL     1       1.187   7.086  20.420  0.00  0.00    +0.000 A 
ATOM      6  C   UNL     1       1.591   8.220  19.718  0.00  0.00    +0.000 A 
ATOM      7  C   UNL     1       2.701   8.124  18.897  0.00  0.00    +0.000 A 
ATOM      8  N   UNL     1       3.424   6.993  18.751  0.00  0.00    +0.000 NA
ATOM      9  C   UNL     1       3.041   5.917  19.475  0.00  0.00    +0.000 A 
ATOM     10  N   UNL     1       3.810   4.731  19.477  0.00  0.00    +0.000 N 
ATOM     11  C   UNL     1       5.014   4.348  18.898  0.00  0.00    +0.000 A 
ATOM     12  N   UNL     1       5.245   3.092  19.263  0.00  0.00    +0.000 NA
ATOM     13  N   UNL     1       4.225   2.649  20.069  0.00  0.00    +0.000 NA
ATOM     14  C   UNL     1       3.388   3.645  20.198  0.00  0.00    +0.000 A 
ENDROOT
BRANCH  11  15
ATOM     15  C   UNL     1       5.908   5.144  18.040  0.00  0.00    +0.000 A 
ATOM     16  C   UNL     1       6.783   6.082  18.614  0.00  0.00    +0.000 A 
ATOM     17  C   UNL     1       7.531   6.983  17.840  0.00  0.00    +0.000 A 
ATOM     18  C   UNL     1       7.513   6.849  16.452  0.00  0.00    +0.000 A 
ATOM     19  C   UNL     1       6.746   5.847  15.858  0.00  0.00    +0.000 A 
ATOM     20  C   UNL     1       5.934   5.012  16.640  0.00  0.00    +0.000 A 
ATOM     21 CL   UNL     1       4.965   3.867  15.776  0.00  0.00    +0.000 Cl
BRANCH  17  22
ATOM     22  C   UNL     1       8.235   8.149  18.491  0.00  0.00    +0.000 C 
BRANCH  22  23
ATOM     23  C   UNL     1       8.388   9.370  17.581  0.00  0.00    +0.000 C 
BRANCH  23  24
ATOM     24  C   UNL     1       9.068  10.586  18.243  0.00  0.00    +0.000 C 
ATOM     25  C   UNL     1       8.285  11.884  18.033  0.00  0.00    +0.000 C 
ATOM     26  C   UNL     1       9.330  10.362  19.735  0.00  0.00    +0.000 C 
BRANCH  24  27
ATOM     27  O   UNL     1      10.352  10.748  17.628  0.00  0.00    +0.000 OA
ATOM     28  H   UNL     1      10.217  10.819  16.666  0.00  0.00    +0.000 HD
ENDBRANCH  24  27
ENDBRANCH  23  24
ENDBRANCH  22  23
ENDBRANCH  17  22
ENDBRANCH  11  15
TORSDOF 5
ENDMDL
MODEL 9
REMARK VINA RESULT:      -6.6      4.005      7.837
REMARK  Name = 
REMARK  8 active torsions:
REMARK  status: ('A' for Active; 'I' for Inactive)
REMARK    1  A    between atoms: C_1  and  C_2
REMARK    2  A    between atoms: C_11  and  C_12
REMARK    3  A    between atoms: C_14  and  C_15
REMARK    4  A    between atoms: C_15  and  C_16
REMARK    5  A    between atoms: C_16  and  C_17
REMARK    6  A    between atoms: C_17  and  C_18
REMARK    7  A    between atoms: C_17  and  C_19
REMARK    8  A    between atoms: C_17  and  O_20
REMARK                            x       y       z     vdW  Elec       q    Type
REMARK                         _______ _______ _______ _____ _____    ______ ____
ROOT
ATOM      1  C   UNL     1       6.309   4.015  15.514  0.00  0.00    +0.000 C 
ATOM      2  C   UNL     1       5.071   4.116  16.355  0.00  0.00    +0.000 A 
ATOM      3  N   UNL     1       4.377   3.047  16.634  0.00  0.00    +0.000 NA
ATOM      4  C   UNL     1       3.205   3.198  17.416  0.00  0.00    +0.000 A 
ATOM      5  C   UNL     1       2.489   2.058  17.772  0.00  0.00    +0.000 A 
ATOM      6  C   UNL     1       1.335   2.167  18.545  0.00  0.00    +0.000 A 
ATOM      7  C   UNL     1       0.913   3.431  18.920  0.00  0.00    +0.000 A 
ATOM      8  N   UNL     1       1.567   4.564  18.590  0.00  0.00    +0.000 NA
ATOM      9  C   UNL     1       2.709   4.433  17.877  0.00  0.00    +0.000 A 
ATOM     10  N   UNL     1       3.522   5.553  17.592  0.00  0.00    +0.000 N 
ATOM     11  C   UNL     1       3.475   6.902  17.923  0.00  0.00    +0.000 A 
ATOM     12  N   UNL     1       4.532   7.482  17.367  0.00  0.00    +0.000 NA
ATOM     13  N   UNL     1       5.270   6.545  16.686  0.00  0.00    +0.000 NA
ATOM     14  C   UNL     1       4.660   5.399  16.846  0.00  0.00    +0.000 A 
ENDROOT
BRANCH  11  15
ATOM     15  C   UNL     1       2.469   7.607  18.738  0.00  0.00    +0.000 A 
ATOM     16  C   UNL     1       1.789   8.717  18.210  0.00  0.00    +0.000 A 
ATOM     17  C   UNL     1       0.950   9.526  18.994  0.00  0.00    +0.000 A 
ATOM     18  C   UNL     1       0.672   9.131  20.302  0.00  0.00    +0.000 A 
ATOM     19  C   UNL     1       1.240   7.965  20.815  0.00  0.00    +0.000 A 
ATOM     20  C   UNL     1       2.145   7.216  20.050  0.00  0.00    +0.000 A 
ATOM     21 CL   UNL     1       2.846   5.840  20.831  0.00  0.00    +0.000 Cl
BRANCH  17  22
ATOM     22  C   UNL     1       0.466  10.857  18.471  0.00  0.00    +0.000 C 
BRANCH  22  23
ATOM     23  C   UNL     1       1.392  12.030  18.805  0.00  0.00    +0.000 C 
BRANCH  23  24
ATOM     24  C   UNL     1       0.906  12.923  19.966  0.00  0.00    +0.000 C 
ATOM     25  C   UNL     1       1.190  14.406  19.724  0.00  0.00    +0.000 C 
ATOM     26  C   UNL     1      -0.577  12.711  20.278  0.00  0.00    +0.000 C 
BRANCH  24  27
ATOM     27  O   UNL     1       1.626  12.528  21.140  0.00  0.00    +0.000 OA
ATOM     28  H   UNL     1       2.564  12.750  21.007  0.00  0.00    +0.000 HD
ENDBRANCH  24  27
ENDBRANCH  23  24
ENDBRANCH  22  23
ENDBRANCH  17  22
ENDBRANCH  11  15
TORSDOF 5
ENDMDL
