MODEL 1
REMARK VINA RESULT:      -7.7      0.000      0.000
REMARK  Name = 
REMARK  2 active torsions:
REMARK  status: ('A' for Active; 'I' for Inactive)
REMARK    1  A    between atoms: C_1  and  C_14
REMARK    2  A    between atoms: C_7  and  C_8
REMARK                            x       y       z     vdW  Elec       q    Type
REMARK                         _______ _______ _______ _____ _____    ______ ____
ROOT
ATOM      1  C   UNL     1       3.343   6.327  18.067  0.00  0.00    +0.000 C 
ATOM      2  C   UNL     1       3.006   5.021  18.057  0.00  0.00    +0.000 C 
ATOM      3  C   UNL     1       1.695   4.520  18.619  0.00  0.00    +0.000 C 
ATOM      4  C   UNL     1       1.397   3.077  18.256  0.00  0.00    +0.000 C 
ATOM      5  C   UNL     1       2.619   2.237  18.557  0.00  0.00    +0.000 C 
ATOM      6  N   UNL     1       3.756   2.671  17.750  0.00  0.00    +0.000 NA
ATOM      7  C   UNL     1       3.925   3.931  17.524  0.00  0.00    +0.000 C 
ENDROOT
BRANCH   7   8
ATOM      8  C   UNL     1       5.123   4.289  16.697  0.00  0.00    +0.000 A 
ATOM      9  C   UNL     1       4.982   4.436  15.315  0.00  0.00    +0.000 A 
ATOM     10  C   UNL     1       6.101   4.699  14.526  0.00  0.00    +0.000 A 
ATOM     11  C   UNL     1       7.332   4.812  15.153  0.00  0.00    +0.000 A 
ATOM     12  N   UNL     1       7.499   4.745  16.489  0.00  0.00    +0.000 NA
ATOM     13  C   UNL     1       6.385   4.518  17.233  0.00  0.00    +0.000 A 
ENDBRANCH   7   8
BRANCH   1  14
ATOM     14  C   UNL     1       2.551   7.434  18.508  0.00  0.00    +0.000 A 
ATOM     15  C   UNL     1       2.023   8.513  17.762  0.00  0.00    +0.000 A 
ATOM     16  C   UNL     1       1.306   9.304  18.635  0.00  0.00    +0.000 A 
ATOM     17  N   UNL     1       1.377   8.736  19.878  0.00  0.00    +0.000 N 
ATOM     18  C   UNL     1       2.125   7.588  19.810  0.00  0.00    +0.000 A 
ATOM     19  H   UNL     1       0.938   9.099  20.714  0.00  0.00    +0.000 HD
ENDBRANCH   1  14
TORSDOF 2
ENDMDL
MODEL 2
REMARK VINA RESULT:      -7.6      1.811      5.826
REMARK  Name = 
REMARK  2 active torsions:
REMARK  status: ('A' for Active; 'I' for Inactive)
REMARK    1  A    between atoms: C_1  and  C_14
REMARK    2  A    between atoms: C_7  and  C_8
REMARK                            x       y       z     vdW  Elec       q    Type
REMARK                         _______ _______ _______ _____ _____    ______ ____
ROOT
ATOM      1  C   UNL     1       4.415   5.126  18.105  0.00  0.00    +0.000 C 
ATOM      2  C   UNL     1       3.551   6.144  18.301  0.00  0.00    +0.000 C 
ATOM      3  C   UNL     1       3.611   7.420  17.492  0.00  0.00    +0.000 C 
ATOM      4  C   UNL     1       2.392   8.305  17.675  0.00  0.00    +0.000 C 
ATOM      5  C   UNL     1       2.122   8.462  19.156  0.00  0.00    +0.000 C 
ATOM      6  N   UNL     1       1.827   7.170  19.768  0.00  0.00    +0.000 NA
ATOM      7  C   UNL     1       2.474   6.123  19.375  0.00  0.00    +0.000 C 
ENDROOT
BRANCH   7   8
ATOM      8  C   UNL     1       2.117   4.841  20.064  0.00  0.00    +0.000 A 
ATOM      9  C   UNL     1       1.295   3.919  19.411  0.00  0.00    +0.000 A 
ATOM     10  C   UNL     1       0.898   2.754  20.068  0.00  0.00    +0.000 A 
ATOM     11  C   UNL     1       1.345   2.549  21.363  0.00  0.00    +0.000 A 
ATOM     12  N   UNL     1       2.194   3.379  22.002  0.00  0.00    +0.000 NA
ATOM     13  C   UNL     1       2.586   4.490  21.325  0.00  0.00    +0.000 A 
ENDBRANCH   7   8
BRANCH   1  14
ATOM     14  C   UNL     1       5.438   5.022  17.110  0.00  0.00    +0.000 A 
ATOM     15  C   UNL     1       5.339   4.607  15.762  0.00  0.00    +0.000 A 
ATOM     16  C   UNL     1       6.598   4.707  15.208  0.00  0.00    +0.000 A 
ATOM     17  N   UNL     1       7.450   5.174  16.172  0.00  0.00    +0.000 N 
ATOM     18  C   UNL     1       6.750   5.380  17.334  0.00  0.00    +0.000 A 
ATOM     19  H   UNL     1       8.438   5.350  16.046  0.00  0.00    +0.000 HD
ENDBRANCH   1  14
TORSDOF 2
ENDMDL
MODEL 3
REMARK VINA RESULT:      -7.4      1.702      5.816
REMARK  Name = 
REMARK  2 active torsions:
REMARK  status: ('A' for Active; 'I' for Inactive)
REMARK    1  A    between atoms: C_1  and  C_14
REMARK    2  A    between atoms: C_7  and  C_8
REMARK                            x       y       z     vdW  Elec       q    Type
REMARK                         _______ _______ _______ _____ _____    ______ ____
ROOT
ATOM      1  C   UNL     1       4.336   5.316  17.880  0.00  0.00    +0.000 C 
ATOM      2  C   UNL     1       3.469   6.312  18.157  0.00  0.00    +0.000 C 
ATOM      3  C   UNL     1       3.522   7.649  17.452  0.00  0.00    +0.000 C 
ATOM      4  C   UNL     1       2.300   8.511  17.707  0.00  0.00    +0.000 C 
ATOM      5  C   UNL     1       2.033   8.549  19.196  0.00  0.00    +0.000 C 
ATOM      6  N   UNL     1       1.744   7.212  19.704  0.00  0.00    +0.000 NA
ATOM      7  C   UNL     1       2.394   6.201  19.228  0.00  0.00    +0.000 C 
ENDROOT
BRANCH   7   8
ATOM      8  C   UNL     1       2.043   4.868  19.814  0.00  0.00    +0.000 A 
ATOM      9  C   UNL     1       2.387   4.590  21.139  0.00  0.00    +0.000 A 
ATOM     10  C   UNL     1       2.129   3.328  21.675  0.00  0.00    +0.000 A 
ATOM     11  C   UNL     1       1.526   2.383  20.861  0.00  0.00    +0.000 A 
ATOM     12  N   UNL     1       1.116   2.633  19.601  0.00  0.00    +0.000 NA
ATOM     13  C   UNL     1       1.355   3.881  19.118  0.00  0.00    +0.000 A 
ENDBRANCH   7   8
BRANCH   1  14
ATOM     14  C   UNL     1       5.357   5.295  16.878  0.00  0.00    +0.000 A 
ATOM     15  C   UNL     1       5.314   4.776  15.564  0.00  0.00    +0.000 A 
ATOM     16  C   UNL     1       6.541   5.023  14.984  0.00  0.00    +0.000 A 
ATOM     17  N   UNL     1       7.319   5.678  15.899  0.00  0.00    +0.000 N 
ATOM     18  C   UNL     1       6.602   5.860  17.056  0.00  0.00    +0.000 A 
ATOM     19  H   UNL     1       8.268   5.991  15.745  0.00  0.00    +0.000 HD
ENDBRANCH   1  14
TORSDOF 2
ENDMDL
MODEL 4
REMARK VINA RESULT:      -7.4      2.968      4.555
REMARK  Name = 
REMARK  2 active torsions:
REMARK  status: ('A' for Active; 'I' for Inactive)
REMARK    1  A    between atoms: C_1  and  C_14
REMARK    2  A    between atoms: C_7  and  C_8
REMARK                            x       y       z     vdW  Elec       q    Type
REMARK                         _______ _______ _______ _____ _____    ______ ____
ROOT
ATOM      1  C   UNL     1       4.405   3.986  16.563  0.00  0.00    +0.000 C 
ATOM      2  C   UNL     1       5.471   4.684  17.006  0.00  0.00    +0.000 C 
ATOM      3  C   UNL     1       5.685   4.987  18.472  0.00  0.00    +0.000 C 
ATOM      4  C   UNL     1       7.069   5.529  18.778  0.00  0.00    +0.000 C 
ATOM      5  C   UNL     1       7.377   6.651  17.810  0.00  0.00    +0.000 C 
ATOM      6  N   UNL     1       7.388   6.159  16.435  0.00  0.00    +0.000 NA
ATOM      7  C   UNL     1       6.526   5.267  16.077  0.00  0.00    +0.000 C 
ENDROOT
BRANCH   7   8
ATOM      8  C   UNL     1       6.600   4.827  14.646  0.00  0.00    +0.000 A 
ATOM      9  C   UNL     1       5.641   3.939  14.152  0.00  0.00    +0.000 A 
ATOM     10  C   UNL     1       5.739   3.468  12.843  0.00  0.00    +0.000 A 
ATOM     11  C   UNL     1       6.798   3.910  12.066  0.00  0.00    +0.000 A 
ATOM     12  N   UNL     1       7.704   4.818  12.483  0.00  0.00    +0.000 NA
ATOM     13  C   UNL     1       7.564   5.281  13.753  0.00  0.00    +0.000 A 
ENDBRANCH   7   8
BRANCH   1  14
ATOM     14  C   UNL     1       3.376   3.366  17.341  0.00  0.00    +0.000 A 
ATOM     15  C   UNL     1       2.101   3.860  17.698  0.00  0.00    +0.000 A 
ATOM     16  C   UNL     1       1.470   2.877  18.431  0.00  0.00    +0.000 A 
ATOM     17  N   UNL     1       2.317   1.806  18.521  0.00  0.00    +0.000 N 
ATOM     18  C   UNL     1       3.480   2.089  17.851  0.00  0.00    +0.000 A 
ATOM     19  H   UNL     1       2.115   0.937  18.998  0.00  0.00    +0.000 HD
ENDBRANCH   1  14
TORSDOF 2
ENDMDL
MODEL 5
REMARK VINA RESULT:      -7.4      1.605      1.976
REMARK  Name = 
REMARK  2 active torsions:
REMARK  status: ('A' for Active; 'I' for Inactive)
REMARK    1  A    between atoms: C_1  and  C_14
REMARK    2  A    between atoms: C_7  and  C_8
REMARK                            x       y       z     vdW  Elec       q    Type
REMARK                         _______ _______ _______ _____ _____    ______ ____
ROOT
ATOM      1  C   UNL     1       2.924   6.515  19.431  0.00  0.00    +0.000 C 
ATOM      2  C   UNL     1       2.658   5.245  19.800  0.00  0.00    +0.000 C 
ATOM      3  C   UNL     1       1.400   4.869  20.551  0.00  0.00    +0.000 C 
ATOM      4  C   UNL     1       1.167   3.371  20.618  0.00  0.00    +0.000 C 
ATOM      5  C   UNL     1       2.444   2.699  21.072  0.00  0.00    +0.000 C 
ATOM      6  N   UNL     1       3.521   2.936  20.116  0.00  0.00    +0.000 NA
ATOM      7  C   UNL     1       3.612   4.089  19.540  0.00  0.00    +0.000 C 
ENDROOT
BRANCH   7   8
ATOM      8  C   UNL     1       4.753   4.250  18.582  0.00  0.00    +0.000 A 
ATOM      9  C   UNL     1       4.534   4.054  17.216  0.00  0.00    +0.000 A 
ATOM     10  C   UNL     1       5.601   4.131  16.322  0.00  0.00    +0.000 A 
ATOM     11  C   UNL     1       6.860   4.410  16.829  0.00  0.00    +0.000 A 
ATOM     12  N   UNL     1       7.102   4.674  18.130  0.00  0.00    +0.000 NA
ATOM     13  C   UNL     1       6.036   4.620  18.971  0.00  0.00    +0.000 A 
ENDBRANCH   7   8
BRANCH   1  14
ATOM     14  C   UNL     1       2.091   7.668  19.591  0.00  0.00    +0.000 A 
ATOM     15  C   UNL     1       1.467   8.169  20.756  0.00  0.00    +0.000 A 
ATOM     16  C   UNL     1       0.796   9.320  20.400  0.00  0.00    +0.000 A 
ATOM     17  N   UNL     1       1.000   9.534  19.064  0.00  0.00    +0.000 N 
ATOM     18  C   UNL     1       1.798   8.537  18.562  0.00  0.00    +0.000 A 
ATOM     19  H   UNL     1       0.630  10.310  18.531  0.00  0.00    +0.000 HD
ENDBRANCH   1  14
TORSDOF 2
ENDMDL
MODEL 6
REMARK VINA RESULT:      -7.3      2.600      6.123
REMARK  Name = 
REMARK  2 active torsions:
REMARK  status: ('A' for Active; 'I' for Inactive)
REMARK    1  A    between atoms: C_1  and  C_14
REMARK    2  A    between atoms: C_7  and  C_8
REMARK                            x       y       z     vdW  Elec       q    Type
REMARK                         _______ _______ _______ _____ _____    ______ ____
ROOT
ATOM      1  C   UNL     1       5.658   4.027  15.640  0.00  0.00    +0.000 C 
ATOM      2  C   UNL     1       6.038   4.672  16.761  0.00  0.00    +0.000 C 
ATOM      3  C   UNL     1       7.243   5.586  16.799  0.00  0.00    +0.000 C 
ATOM      4  C   UNL     1       7.326   6.418  18.065  0.00  0.00    +0.000 C 
ATOM      5  C   UNL     1       7.138   5.509  19.259  0.00  0.00    +0.000 C 
ATOM      6  N   UNL     1       5.821   4.880  19.229  0.00  0.00    +0.000 NA
ATOM      7  C   UNL     1       5.326   4.506  18.096  0.00  0.00    +0.000 C 
ENDROOT
BRANCH   7   8
ATOM      8  C   UNL     1       3.975   3.860  18.158  0.00  0.00    +0.000 A 
ATOM      9  C   UNL     1       2.846   4.598  17.793  0.00  0.00    +0.000 A 
ATOM     10  C   UNL     1       1.577   4.031  17.913  0.00  0.00    +0.000 A 
ATOM     11  C   UNL     1       1.482   2.734  18.392  0.00  0.00    +0.000 A 
ATOM     12  N   UNL     1       2.550   1.966  18.688  0.00  0.00    +0.000 NA
ATOM     13  C   UNL     1       3.774   2.536  18.533  0.00  0.00    +0.000 A 
ENDBRANCH   7   8
BRANCH   1  14
ATOM     14  C   UNL     1       6.227   4.132  14.331  0.00  0.00    +0.000 A 
ATOM     15  C   UNL     1       5.860   3.470  13.137  0.00  0.00    +0.000 A 
ATOM     16  C   UNL     1       6.692   3.930  12.139  0.00  0.00    +0.000 A 
ATOM     17  N   UNL     1       7.542   4.852  12.687  0.00  0.00    +0.000 N 
ATOM     18  C   UNL     1       7.260   4.991  14.023  0.00  0.00    +0.000 A 
ATOM     19  H   UNL     1       8.259   5.359  12.186  0.00  0.00    +0.000 HD
ENDBRANCH   1  14
TORSDOF 2
ENDMDL
MODEL 7
REMARK VINA RESULT:      -7.3      2.930      4.597
REMARK  Name = 
REMARK  2 active torsions:
REMARK  status: ('A' for Active; 'I' for Inactive)
REMARK    1  A    between atoms: C_1  and  C_14
REMARK    2  A    between atoms: C_7  and  C_8
REMARK                            x       y       z     vdW  Elec       q    Type
REMARK                         _______ _______ _______ _____ _____    ______ ____
ROOT
ATOM      1  C   UNL     1       4.461   4.011  16.565  0.00  0.00    +0.000 C 
ATOM      2  C   UNL     1       5.510   4.725  17.020  0.00  0.00    +0.000 C 
ATOM      3  C   UNL     1       5.679   5.072  18.482  0.00  0.00    +0.000 C 
ATOM      4  C   UNL     1       7.051   5.629  18.813  0.00  0.00    +0.000 C 
ATOM      5  C   UNL     1       7.385   6.723  17.823  0.00  0.00    +0.000 C 
ATOM      6  N   UNL     1       7.439   6.192  16.464  0.00  0.00    +0.000 NA
ATOM      7  C   UNL     1       6.591   5.286  16.106  0.00  0.00    +0.000 C 
ENDROOT
BRANCH   7   8
ATOM      8  C   UNL     1       6.710   4.806  14.692  0.00  0.00    +0.000 A 
ATOM      9  C   UNL     1       7.641   5.407  13.841  0.00  0.00    +0.000 A 
ATOM     10  C   UNL     1       7.713   5.018  12.503  0.00  0.00    +0.000 A 
ATOM     11  C   UNL     1       6.849   4.029  12.062  0.00  0.00    +0.000 A 
ATOM     12  N   UNL     1       5.986   3.377  12.866  0.00  0.00    +0.000 NA
ATOM     13  C   UNL     1       5.959   3.758  14.171  0.00  0.00    +0.000 A 
ENDBRANCH   7   8
BRANCH   1  14
ATOM     14  C   UNL     1       3.412   3.408  17.330  0.00  0.00    +0.000 A 
ATOM     15  C   UNL     1       2.155   3.938  17.701  0.00  0.00    +0.000 A 
ATOM     16  C   UNL     1       1.490   2.960  18.410  0.00  0.00    +0.000 A 
ATOM     17  N   UNL     1       2.299   1.858  18.473  0.00  0.00    +0.000 N 
ATOM     18  C   UNL     1       3.471   2.117  17.808  0.00  0.00    +0.000 A 
ATOM     19  H   UNL     1       2.067   0.986  18.929  0.00  0.00    +0.000 HD
ENDBRANCH   1  14
TORSDOF 2
ENDMDL
MODEL 8
REMARK VINA RESULT:      -7.2      0.659      1.150
REMARK  Name = 
REMARK  2 active torsions:
REMARK  status: ('A' for Active; 'I' for Inactive)
REMARK    1  A    between atoms: C_1  and  C_14
REMARK    2  A    between atoms: C_7  and  C_8
REMARK                            x       y       z     vdW  Elec       q    Type
REMARK                         _______ _______ _______ _____ _____    ______ ____
ROOT
ATOM      1  C   UNL     1       3.284   6.251  18.190  0.00  0.00    +0.000 C 
ATOM      2  C   UNL     1       2.910   4.955  18.188  0.00  0.00    +0.000 C 
ATOM      3  C   UNL     1       1.569   4.501  18.719  0.00  0.00    +0.000 C 
ATOM      4  C   UNL     1       1.241   3.062  18.368  0.00  0.00    +0.000 C 
ATOM      5  C   UNL     1       2.429   2.192  18.717  0.00  0.00    +0.000 C 
ATOM      6  N   UNL     1       3.601   2.581  17.938  0.00  0.00    +0.000 NA
ATOM      7  C   UNL     1       3.813   3.832  17.698  0.00  0.00    +0.000 C 
ENDROOT
BRANCH   7   8
ATOM      8  C   UNL     1       5.044   4.143  16.902  0.00  0.00    +0.000 A 
ATOM      9  C   UNL     1       6.248   4.382  17.569  0.00  0.00    +0.000 A 
ATOM     10  C   UNL     1       7.385   4.741  16.845  0.00  0.00    +0.000 A 
ATOM     11  C   UNL     1       7.277   4.843  15.467  0.00  0.00    +0.000 A 
ATOM     12  N   UNL     1       6.153   4.554  14.781  0.00  0.00    +0.000 NA
ATOM     13  C   UNL     1       5.071   4.178  15.513  0.00  0.00    +0.000 A 
ENDBRANCH   7   8
BRANCH   1  14
ATOM     14  C   UNL     1       2.512   7.387  18.591  0.00  0.00    +0.000 A 
ATOM     15  C   UNL     1       2.006   8.450  17.808  0.00  0.00    +0.000 A 
ATOM     16  C   UNL     1       1.302   9.283  18.652  0.00  0.00    +0.000 A 
ATOM     17  N   UNL     1       1.360   8.756  19.914  0.00  0.00    +0.000 N 
ATOM     18  C   UNL     1       2.088   7.593  19.886  0.00  0.00    +0.000 A 
ATOM     19  H   UNL     1       0.927   9.155  20.736  0.00  0.00    +0.000 HD
ENDBRANCH   1  14
TORSDOF 2
ENDMDL
MODEL 9
REMARK VINA RESULT:      -7.2      1.538      2.065
REMARK  Name = 
REMARK  2 active torsions:
REMARK  status: ('A' for Active; 'I' for Inactive)
REMARK    1  A    between atoms: C_1  and  C_14
REMARK    2  A    between atoms: C_7  and  C_8
REMARK                            x       y       z     vdW  Elec       q    Type
REMARK                         _______ _______ _______ _____ _____    ______ ____
ROOT
ATOM      1  C   UNL     1       3.040   6.563  18.921  0.00  0.00    +0.000 C 
ATOM      2  C   UNL     1       2.787   5.344  19.441  0.00  0.00    +0.000 C 
ATOM      3  C   UNL     1       1.567   5.067  20.291  0.00  0.00    +0.000 C 
ATOM      4  C   UNL     1       1.329   3.588  20.535  0.00  0.00    +0.000 C 
ATOM      5  C   UNL     1       2.624   2.955  20.995  0.00  0.00    +0.000 C 
ATOM      6  N   UNL     1       3.652   3.074  19.966  0.00  0.00    +0.000 NA
ATOM      7  C   UNL     1       3.720   4.156  19.262  0.00  0.00    +0.000 C 
ENDROOT
BRANCH   7   8
ATOM      8  C   UNL     1       4.812   4.198  18.237  0.00  0.00    +0.000 A 
ATOM      9  C   UNL     1       6.085   4.636  18.610  0.00  0.00    +0.000 A 
ATOM     10  C   UNL     1       7.091   4.747  17.650  0.00  0.00    +0.000 A 
ATOM     11  C   UNL     1       6.787   4.406  16.342  0.00  0.00    +0.000 A 
ATOM     12  N   UNL     1       5.593   3.914  15.955  0.00  0.00    +0.000 NA
ATOM     13  C   UNL     1       4.642   3.790  16.919  0.00  0.00    +0.000 A 
ENDBRANCH   7   8
BRANCH   1  14
ATOM     14  C   UNL     1       2.224   7.736  18.994  0.00  0.00    +0.000 A 
ATOM     15  C   UNL     1       1.628   8.345  20.122  0.00  0.00    +0.000 A 
ATOM     16  C   UNL     1       0.962   9.469  19.679  0.00  0.00    +0.000 A 
ATOM     17  N   UNL     1       1.142   9.561  18.325  0.00  0.00    +0.000 N 
ATOM     18  C   UNL     1       1.919   8.514  17.898  0.00  0.00    +0.000 A 
ATOM     19  H   UNL     1       0.769  10.292  17.733  0.00  0.00    +0.000 HD
ENDBRANCH   1  14
TORSDOF 2
ENDMDL
