MODEL 1
REMARK VINA RESULT:      -6.2      0.000      0.000
REMARK  Name = 
REMARK  12 active torsions:
REMARK  status: ('A' for Active; 'I' for Inactive)
REMARK    1  A    between atoms: C_1  and  C_2
REMARK    2  A    between atoms: C_2  and  C_3
REMARK    3  A    between atoms: C_3  and  C_4
REMARK    4  A    between atoms: C_4  and  N_5
REMARK    5  A    between atoms: CA_14  and  C_15
REMARK    6  A    between atoms: C_18  and  C_19
REMARK    7  A    between atoms: C_21  and  O_22
REMARK    8  A    between atoms: O_22  and  C_23
REMARK    9  A    between atoms: C_24  and  O_25
REMARK   10  A    between atoms: O_25  and  C_26
REMARK   11  A    between atoms: C_27  and  O_28
REMARK   12  A    between atoms: O_28  and  C_29
REMARK                            x       y       z     vdW  Elec       q    Type
REMARK                         _______ _______ _______ _____ _____    ______ ____
ROOT
ATOM      1  N   UNL     1      -3.881  12.606  20.266  0.00  0.00    +0.000 N 
ATOM      2  C   UNL     1      -5.226  12.303  20.459  0.00  0.00    +0.000 A 
ATOM      3  C   UNL     1      -6.093  12.534  21.544  0.00  0.00    +0.000 A 
ATOM      4  C   UNL     1      -7.440  12.182  21.407  0.00  0.00    +0.000 A 
ATOM      5  C   UNL     1      -7.916  11.619  20.231  0.00  0.00    +0.000 A 
ATOM      6  C   UNL     1      -7.047  11.380  19.165  0.00  0.00    +0.000 A 
ATOM      7  C   UNL     1      -5.683  11.718  19.282  0.00  0.00    +0.000 A 
ATOM      8  C   UNL     1      -4.567  11.588  18.408  0.00  0.00    +0.000 A 
ATOM      9  C   UNL     1      -4.474  11.094  17.097  0.00  0.00    +0.000 A 
ATOM     10  CA  UNL     1      -3.218  11.098  16.530  0.00  0.00    +0.000 A 
ATOM     11  N   UNL     1      -2.100  11.494  17.161  0.00  0.00    +0.000 NA
ATOM     12  C   UNL     1      -2.150  11.955  18.443  0.00  0.00    +0.000 A 
ATOM     13  C   UNL     1      -3.416  12.055  19.069  0.00  0.00    +0.000 A 
ENDROOT
BRANCH  12  14
ATOM     14  C   UNL     1      -0.835  12.310  18.991  0.00  0.00    +0.000 A 
ATOM     15  C   UNL     1      -0.252  11.496  19.974  0.00  0.00    +0.000 A 
ATOM     16  C   UNL     1       0.974  11.819  20.572  0.00  0.00    +0.000 A 
ATOM     17  C   UNL     1       1.679  12.968  20.147  0.00  0.00    +0.000 A 
ATOM     18  C   UNL     1       1.126  13.781  19.139  0.00  0.00    +0.000 A 
ATOM     19  C   UNL     1      -0.145  13.469  18.623  0.00  0.00    +0.000 A 
BRANCH  16  20
ATOM     20  O   UNL     1       1.532  11.088  21.591  0.00  0.00    +0.000 OA
ATOM     21  C   UNL     1       0.897   9.863  21.942  0.00  0.00    +0.000 C 
ENDBRANCH  16  20
BRANCH  17  22
ATOM     22  O   UNL     1       2.823  13.220  20.867  0.00  0.00    +0.000 OA
ATOM     23  C   UNL     1       2.919  14.399  21.648  0.00  0.00    +0.000 C 
ENDBRANCH  17  22
BRANCH  18  24
ATOM     24  O   UNL     1       1.855  14.845  18.678  0.00  0.00    +0.000 OA
ATOM     25  C   UNL     1       1.265  16.138  18.737  0.00  0.00    +0.000 C 
ENDBRANCH  18  24
ENDBRANCH  12  14
BRANCH  10  26
ATOM     26  C   UNL     1      -3.025  10.666  15.130  0.00  0.00    +0.000 C 
ATOM     27  O   UNL     1      -3.840   9.978  14.528  0.00  0.00    +0.000 OA
ENDBRANCH  10  26
BRANCH   1  28
ATOM     28  C   UNL     1      -3.159  13.483  21.183  0.00  0.00    +0.000 C 
BRANCH  28  29
ATOM     29  C   UNL     1      -2.634  12.826  22.459  0.00  0.00    +0.000 C 
BRANCH  29  31
ATOM     30  C   UNL     1      -3.088  15.041  23.537  0.00  0.00    +0.000 C 
ATOM     31  C   UNL     1      -3.104  13.533  23.727  0.00  0.00    +0.000 C 
ENDBRANCH  29  31
ENDBRANCH  28  29
ENDBRANCH   1  28
TORSDOF 8
ENDMDL
MODEL 2
REMARK VINA RESULT:      -5.8      2.109      5.027
REMARK  Name = 
REMARK  12 active torsions:
REMARK  status: ('A' for Active; 'I' for Inactive)
REMARK    1  A    between atoms: C_1  and  C_2
REMARK    2  A    between atoms: C_2  and  C_3
REMARK    3  A    between atoms: C_3  and  C_4
REMARK    4  A    between atoms: C_4  and  N_5
REMARK    5  A    between atoms: CA_14  and  C_15
REMARK    6  A    between atoms: C_18  and  C_19
REMARK    7  A    between atoms: C_21  and  O_22
REMARK    8  A    between atoms: O_22  and  C_23
REMARK    9  A    between atoms: C_24  and  O_25
REMARK   10  A    between atoms: O_25  and  C_26
REMARK   11  A    between atoms: C_27  and  O_28
REMARK   12  A    between atoms: O_28  and  C_29
REMARK                            x       y       z     vdW  Elec       q    Type
REMARK                         _______ _______ _______ _____ _____    ______ ____
ROOT
ATOM      1  N   UNL     1      -3.357  12.179  19.006  0.00  0.00    +0.000 N 
ATOM      2  C   UNL     1      -4.732  11.955  19.006  0.00  0.00    +0.000 A 
ATOM      3  C   UNL     1      -5.601  11.461  18.015  0.00  0.00    +0.000 A 
ATOM      4  C   UNL     1      -6.946  11.266  18.346  0.00  0.00    +0.000 A 
ATOM      5  C   UNL     1      -7.417  11.548  19.621  0.00  0.00    +0.000 A 
ATOM      6  C   UNL     1      -6.552  12.050  20.594  0.00  0.00    +0.000 A 
ATOM      7  C   UNL     1      -5.193  12.264  20.281  0.00  0.00    +0.000 A 
ATOM      8  C   UNL     1      -4.089  12.769  21.025  0.00  0.00    +0.000 A 
ATOM      9  C   UNL     1      -3.993  13.199  22.358  0.00  0.00    +0.000 A 
ATOM     10  CA  UNL     1      -2.756  13.648  22.768  0.00  0.00    +0.000 A 
ATOM     11  N   UNL     1      -1.678  13.739  21.972  0.00  0.00    +0.000 NA
ATOM     12  C   UNL     1      -1.743  13.355  20.665  0.00  0.00    +0.000 A 
ATOM     13  C   UNL     1      -2.959  12.809  20.188  0.00  0.00    +0.000 A 
ENDROOT
BRANCH  12  14
ATOM     14  C   UNL     1      -0.487  13.555  19.931  0.00  0.00    +0.000 A 
ATOM     15  C   UNL     1      -0.076  14.856  19.605  0.00  0.00    +0.000 A 
ATOM     16  C   UNL     1       1.084  15.100  18.856  0.00  0.00    +0.000 A 
ATOM     17  C   UNL     1       1.899  14.018  18.455  0.00  0.00    +0.000 A 
ATOM     18  C   UNL     1       1.521  12.706  18.800  0.00  0.00    +0.000 A 
ATOM     19  C   UNL     1       0.308  12.496  19.480  0.00  0.00    +0.000 A 
BRANCH  16  20
ATOM     20  O   UNL     1       1.470  16.354  18.452  0.00  0.00    +0.000 OA
ATOM     21  C   UNL     1       0.670  17.453  18.874  0.00  0.00    +0.000 C 
ENDBRANCH  16  20
BRANCH  17  22
ATOM     22  O   UNL     1       2.959  14.382  17.658  0.00  0.00    +0.000 OA
ATOM     23  C   UNL     1       4.241  14.572  18.232  0.00  0.00    +0.000 C 
ENDBRANCH  17  22
BRANCH  18  24
ATOM     24  O   UNL     1       2.360  11.672  18.477  0.00  0.00    +0.000 OA
ATOM     25  C   UNL     1       1.781  10.412  18.162  0.00  0.00    +0.000 C 
ENDBRANCH  18  24
ENDBRANCH  12  14
BRANCH  10  26
ATOM     26  C   UNL     1      -2.531  14.054  24.171  0.00  0.00    +0.000 C 
ATOM     27  O   UNL     1      -3.441  14.166  24.984  0.00  0.00    +0.000 OA
ENDBRANCH  10  26
BRANCH   1  28
ATOM     28  C   UNL     1      -2.507  11.689  17.926  0.00  0.00    +0.000 C 
BRANCH  28  29
ATOM     29  C   UNL     1      -2.412  10.170  17.789  0.00  0.00    +0.000 C 
BRANCH  29  31
ATOM     30  C   UNL     1      -2.946  10.810  15.428  0.00  0.00    +0.000 C 
ATOM     31  C   UNL     1      -2.439   9.702  16.337  0.00  0.00    +0.000 C 
ENDBRANCH  29  31
ENDBRANCH  28  29
ENDBRANCH   1  28
TORSDOF 8
ENDMDL
MODEL 3
REMARK VINA RESULT:      -5.8      3.168      5.917
REMARK  Name = 
REMARK  12 active torsions:
REMARK  status: ('A' for Active; 'I' for Inactive)
REMARK    1  A    between atoms: C_1  and  C_2
REMARK    2  A    between atoms: C_2  and  C_3
REMARK    3  A    between atoms: C_3  and  C_4
REMARK    4  A    between atoms: C_4  and  N_5
REMARK    5  A    between atoms: CA_14  and  C_15
REMARK    6  A    between atoms: C_18  and  C_19
REMARK    7  A    between atoms: C_21  and  O_22
REMARK    8  A    between atoms: O_22  and  C_23
REMARK    9  A    between atoms: C_24  and  O_25
REMARK   10  A    between atoms: O_25  and  C_26
REMARK   11  A    between atoms: C_27  and  O_28
REMARK   12  A    between atoms: O_28  and  C_29
REMARK                            x       y       z     vdW  Elec       q    Type
REMARK                         _______ _______ _______ _____ _____    ______ ____
ROOT
ATOM      1  N   UNL     1      -1.123  11.692  20.493  0.00  0.00    +0.000 N 
ATOM      2  C   UNL     1      -0.225  10.998  19.686  0.00  0.00    +0.000 A 
ATOM      3  C   UNL     1       1.130  10.662  19.867  0.00  0.00    +0.000 A 
ATOM      4  C   UNL     1       1.755   9.869  18.897  0.00  0.00    +0.000 A 
ATOM      5  C   UNL     1       1.059   9.421  17.783  0.00  0.00    +0.000 A 
ATOM      6  C   UNL     1      -0.281   9.770  17.605  0.00  0.00    +0.000 A 
ATOM      7  C   UNL     1      -0.930  10.576  18.564  0.00  0.00    +0.000 A 
ATOM      8  C   UNL     1      -2.247  11.107  18.661  0.00  0.00    +0.000 A 
ATOM      9  C   UNL     1      -3.363  10.968  17.821  0.00  0.00    +0.000 A 
ATOM     10  CA  UNL     1      -4.505  11.636  18.206  0.00  0.00    +0.000 A 
ATOM     11  N   UNL     1      -4.595  12.428  19.287  0.00  0.00    +0.000 NA
ATOM     12  C   UNL     1      -3.523  12.607  20.110  0.00  0.00    +0.000 A 
ATOM     13  C   UNL     1      -2.334  11.893  19.825  0.00  0.00    +0.000 A 
ENDROOT
BRANCH  12  14
ATOM     14  C   UNL     1      -3.783  13.531  21.221  0.00  0.00    +0.000 A 
ATOM     15  C   UNL     1      -4.656  13.149  22.250  0.00  0.00    +0.000 A 
ATOM     16  C   UNL     1      -4.983  14.014  23.303  0.00  0.00    +0.000 A 
ATOM     17  C   UNL     1      -4.386  15.292  23.371  0.00  0.00    +0.000 A 
ATOM     18  C   UNL     1      -3.481  15.684  22.364  0.00  0.00    +0.000 A 
ATOM     19  C   UNL     1      -3.243  14.820  21.280  0.00  0.00    +0.000 A 
BRANCH  16  20
ATOM     20  O   UNL     1      -5.895  13.700  24.281  0.00  0.00    +0.000 OA
ATOM     21  C   UNL     1      -7.137  13.144  23.865  0.00  0.00    +0.000 C 
ENDBRANCH  16  20
BRANCH  17  22
ATOM     22  O   UNL     1      -4.851  16.074  24.402  0.00  0.00    +0.000 OA
ATOM     23  C   UNL     1      -5.829  17.069  24.147  0.00  0.00    +0.000 C 
ENDBRANCH  17  22
BRANCH  18  24
ATOM     24  O   UNL     1      -2.846  16.892  22.483  0.00  0.00    +0.000 OA
ATOM     25  C   UNL     1      -1.444  16.892  22.723  0.00  0.00    +0.000 C 
ENDBRANCH  18  24
ENDBRANCH  12  14
BRANCH  10  26
ATOM     26  C   UNL     1      -5.755  11.496  17.430  0.00  0.00    +0.000 C 
ATOM     27  O   UNL     1      -6.834  11.921  17.825  0.00  0.00    +0.000 OA
ENDBRANCH  10  26
BRANCH   1  28
ATOM     28  C   UNL     1      -0.801  12.027  21.876  0.00  0.00    +0.000 C 
BRANCH  28  29
ATOM     29  C   UNL     1      -1.311  11.050  22.935  0.00  0.00    +0.000 C 
BRANCH  29  31
ATOM     30  C   UNL     1      -0.527   8.737  22.383  0.00  0.00    +0.000 C 
ATOM     31  C   UNL     1      -0.303   9.954  23.266  0.00  0.00    +0.000 C 
ENDBRANCH  29  31
ENDBRANCH  28  29
ENDBRANCH   1  28
TORSDOF 8
ENDMDL
MODEL 4
REMARK VINA RESULT:      -5.8      3.243      6.207
REMARK  Name = 
REMARK  12 active torsions:
REMARK  status: ('A' for Active; 'I' for Inactive)
REMARK    1  A    between atoms: C_1  and  C_2
REMARK    2  A    between atoms: C_2  and  C_3
REMARK    3  A    between atoms: C_3  and  C_4
REMARK    4  A    between atoms: C_4  and  N_5
REMARK    5  A    between atoms: CA_14  and  C_15
REMARK    6  A    between atoms: C_18  and  C_19
REMARK    7  A    between atoms: C_21  and  O_22
REMARK    8  A    between atoms: O_22  and  C_23
REMARK    9  A    between atoms: C_24  and  O_25
REMARK   10  A    between atoms: O_25  and  C_26
REMARK   11  A    between atoms: C_27  and  O_28
REMARK   12  A    between atoms: O_28  and  C_29
REMARK                            x       y       z     vdW  Elec       q    Type
REMARK                         _______ _______ _______ _____ _____    ______ ____
ROOT
ATOM      1  N   UNL     1      -1.531  11.897  20.608  0.00  0.00    +0.000 N 
ATOM      2  C   UNL     1      -0.650  11.219  19.769  0.00  0.00    +0.000 A 
ATOM      3  C   UNL     1       0.707  10.878  19.915  0.00  0.00    +0.000 A 
ATOM      4  C   UNL     1       1.311  10.106  18.917  0.00  0.00    +0.000 A 
ATOM      5  C   UNL     1       0.592   9.683  17.807  0.00  0.00    +0.000 A 
ATOM      6  C   UNL     1      -0.750  10.038  17.663  0.00  0.00    +0.000 A 
ATOM      7  C   UNL     1      -1.378  10.823  18.653  0.00  0.00    +0.000 A 
ATOM      8  C   UNL     1      -2.692  11.354  18.787  0.00  0.00    +0.000 A 
ATOM      9  C   UNL     1      -3.825  11.235  17.966  0.00  0.00    +0.000 A 
ATOM     10  CA  UNL     1      -4.958  11.896  18.389  0.00  0.00    +0.000 A 
ATOM     11  N   UNL     1      -5.025  12.665  19.488  0.00  0.00    +0.000 NA
ATOM     12  C   UNL     1      -3.936  12.824  20.293  0.00  0.00    +0.000 A 
ATOM     13  C   UNL     1      -2.755  12.114  19.969  0.00  0.00    +0.000 A 
ENDROOT
BRANCH  12  14
ATOM     14  C   UNL     1      -4.172  13.724  21.428  0.00  0.00    +0.000 A 
ATOM     15  C   UNL     1      -3.242  14.734  21.716  0.00  0.00    +0.000 A 
ATOM     16  C   UNL     1      -3.389  15.584  22.821  0.00  0.00    +0.000 A 
ATOM     17  C   UNL     1      -4.528  15.466  23.649  0.00  0.00    +0.000 A 
ATOM     18  C   UNL     1      -5.491  14.479  23.359  0.00  0.00    +0.000 A 
ATOM     19  C   UNL     1      -5.266  13.592  22.291  0.00  0.00    +0.000 A 
BRANCH  16  20
ATOM     20  O   UNL     1      -2.457  16.528  23.176  0.00  0.00    +0.000 OA
ATOM     21  C   UNL     1      -1.638  17.061  22.141  0.00  0.00    +0.000 C 
ENDBRANCH  16  20
BRANCH  17  22
ATOM     22  O   UNL     1      -4.513  16.298  24.743  0.00  0.00    +0.000 OA
ATOM     23  C   UNL     1      -5.310  17.471  24.747  0.00  0.00    +0.000 C 
ENDBRANCH  17  22
BRANCH  18  24
ATOM     24  O   UNL     1      -6.629  14.427  24.118  0.00  0.00    +0.000 OA
ATOM     25  C   UNL     1      -7.362  13.208  24.145  0.00  0.00    +0.000 C 
ENDBRANCH  18  24
ENDBRANCH  12  14
BRANCH  10  26
ATOM     26  C   UNL     1      -6.223  11.775  17.634  0.00  0.00    +0.000 C 
ATOM     27  O   UNL     1      -7.235  12.400  17.928  0.00  0.00    +0.000 OA
ENDBRANCH  10  26
BRANCH   1  28
ATOM     28  C   UNL     1      -1.181  12.202  21.992  0.00  0.00    +0.000 C 
BRANCH  28  29
ATOM     29  C   UNL     1      -1.536  11.130  23.021  0.00  0.00    +0.000 C 
BRANCH  29  31
ATOM     30  C   UNL     1      -0.582   8.878  22.480  0.00  0.00    +0.000 C 
ATOM     31  C   UNL     1      -0.391  10.156  23.282  0.00  0.00    +0.000 C 
ENDBRANCH  29  31
ENDBRANCH  28  29
ENDBRANCH   1  28
TORSDOF 8
ENDMDL
MODEL 5
REMARK VINA RESULT:      -5.7      1.541      3.043
REMARK  Name = 
REMARK  12 active torsions:
REMARK  status: ('A' for Active; 'I' for Inactive)
REMARK    1  A    between atoms: C_1  and  C_2
REMARK    2  A    between atoms: C_2  and  C_3
REMARK    3  A    between atoms: C_3  and  C_4
REMARK    4  A    between atoms: C_4  and  N_5
REMARK    5  A    between atoms: CA_14  and  C_15
REMARK    6  A    between atoms: C_18  and  C_19
REMARK    7  A    between atoms: C_21  and  O_22
REMARK    8  A    between atoms: O_22  and  C_23
REMARK    9  A    between atoms: C_24  and  O_25
REMARK   10  A    between atoms: O_25  and  C_26
REMARK   11  A    between atoms: C_27  and  O_28
REMARK   12  A    between atoms: O_28  and  C_29
REMARK                            x       y       z     vdW  Elec       q    Type
REMARK                         _______ _______ _______ _____ _____    ______ ____
ROOT
ATOM      1  N   UNL     1      -4.014  13.159  21.955  0.00  0.00    +0.000 N 
ATOM      2  C   UNL     1      -5.243  13.002  22.591  0.00  0.00    +0.000 A 
ATOM      3  C   UNL     1      -5.657  13.271  23.910  0.00  0.00    +0.000 A 
ATOM      4  C   UNL     1      -7.005  13.085  24.235  0.00  0.00    +0.000 A 
ATOM      5  C   UNL     1      -7.917  12.648  23.284  0.00  0.00    +0.000 A 
ATOM      6  C   UNL     1      -7.495  12.370  21.983  0.00  0.00    +0.000 A 
ATOM      7  C   UNL     1      -6.139  12.542  21.633  0.00  0.00    +0.000 A 
ATOM      8  C   UNL     1      -5.409  12.333  20.429  0.00  0.00    +0.000 A 
ATOM      9  C   UNL     1      -5.826  11.905  19.158  0.00  0.00    +0.000 A 
ATOM     10  CA  UNL     1      -4.844  11.796  18.198  0.00  0.00    +0.000 A 
ATOM     11  N   UNL     1      -3.539  12.024  18.414  0.00  0.00    +0.000 NA
ATOM     12  C   UNL     1      -3.096  12.415  19.643  0.00  0.00    +0.000 A 
ATOM     13  C   UNL     1      -4.053  12.625  20.664  0.00  0.00    +0.000 A 
ENDROOT
BRANCH  12  14
ATOM     14  C   UNL     1      -1.639  12.585  19.715  0.00  0.00    +0.000 A 
ATOM     15  C   UNL     1      -1.097  13.873  19.833  0.00  0.00    +0.000 A 
ATOM     16  C   UNL     1       0.287  14.096  19.848  0.00  0.00    +0.000 A 
ATOM     17  C   UNL     1       1.174  12.998  19.795  0.00  0.00    +0.000 A 
ATOM     18  C   UNL     1       0.650  11.693  19.710  0.00  0.00    +0.000 A 
ATOM     19  C   UNL     1      -0.742  11.516  19.613  0.00  0.00    +0.000 A 
BRANCH  16  20
ATOM     20  O   UNL     1       0.848  15.349  19.882  0.00  0.00    +0.000 OA
ATOM     21  C   UNL     1       0.471  16.207  20.952  0.00  0.00    +0.000 C 
ENDBRANCH  16  20
BRANCH  17  22
ATOM     22  O   UNL     1       2.501  13.353  19.733  0.00  0.00    +0.000 OA
ATOM     23  C   UNL     1       3.128  13.520  18.473  0.00  0.00    +0.000 C 
ENDBRANCH  17  22
BRANCH  18  24
ATOM     24  O   UNL     1       1.516  10.633  19.741  0.00  0.00    +0.000 OA
ATOM     25  C   UNL     1       0.995   9.352  20.076  0.00  0.00    +0.000 C 
ENDBRANCH  18  24
ENDBRANCH  12  14
BRANCH  10  26
ATOM     26  C   UNL     1      -5.190  11.424  16.809  0.00  0.00    +0.000 C 
ATOM     27  O   UNL     1      -4.400  10.875  16.051  0.00  0.00    +0.000 OA
ENDBRANCH  10  26
BRANCH   1  28
ATOM     28  C   UNL     1      -2.920  13.893  22.584  0.00  0.00    +0.000 C 
BRANCH  28  29
ATOM     29  C   UNL     1      -1.827  13.042  23.227  0.00  0.00    +0.000 C 
BRANCH  29  31
ATOM     30  C   UNL     1      -1.001  10.680  23.121  0.00  0.00    +0.000 C 
ATOM     31  C   UNL     1      -2.213  11.570  23.344  0.00  0.00    +0.000 C 
ENDBRANCH  29  31
ENDBRANCH  28  29
ENDBRANCH   1  28
TORSDOF 8
ENDMDL
MODEL 6
REMARK VINA RESULT:      -5.7      3.014      5.759
REMARK  Name = 
REMARK  12 active torsions:
REMARK  status: ('A' for Active; 'I' for Inactive)
REMARK    1  A    between atoms: C_1  and  C_2
REMARK    2  A    between atoms: C_2  and  C_3
REMARK    3  A    between atoms: C_3  and  C_4
REMARK    4  A    between atoms: C_4  and  N_5
REMARK    5  A    between atoms: CA_14  and  C_15
REMARK    6  A    between atoms: C_18  and  C_19
REMARK    7  A    between atoms: C_21  and  O_22
REMARK    8  A    between atoms: O_22  and  C_23
REMARK    9  A    between atoms: C_24  and  O_25
REMARK   10  A    between atoms: O_25  and  C_26
REMARK   11  A    between atoms: C_27  and  O_28
REMARK   12  A    between atoms: O_28  and  C_29
REMARK                            x       y       z     vdW  Elec       q    Type
REMARK                         _______ _______ _______ _____ _____    ______ ____
ROOT
ATOM      1  N   UNL     1      -2.918  15.601  22.988  0.00  0.00    +0.000 N 
ATOM      2  C   UNL     1      -3.289  16.601  23.884  0.00  0.00    +0.000 A 
ATOM      3  C   UNL     1      -2.621  17.758  24.326  0.00  0.00    +0.000 A 
ATOM      4  C   UNL     1      -3.298  18.631  25.184  0.00  0.00    +0.000 A 
ATOM      5  C   UNL     1      -4.599  18.368  25.592  0.00  0.00    +0.000 A 
ATOM      6  C   UNL     1      -5.249  17.211  25.159  0.00  0.00    +0.000 A 
ATOM      7  C   UNL     1      -4.584  16.311  24.301  0.00  0.00    +0.000 A 
ATOM      8  C   UNL     1      -4.955  15.069  23.713  0.00  0.00    +0.000 A 
ATOM      9  C   UNL     1      -6.151  14.336  23.780  0.00  0.00    +0.000 A 
ATOM     10  CA  UNL     1      -6.176  13.143  23.091  0.00  0.00    +0.000 A 
ATOM     11  N   UNL     1      -5.134  12.633  22.416  0.00  0.00    +0.000 NA
ATOM     12  C   UNL     1      -3.949  13.305  22.352  0.00  0.00    +0.000 A 
ATOM     13  C   UNL     1      -3.867  14.575  22.970  0.00  0.00    +0.000 A 
ENDROOT
BRANCH  12  14
ATOM     14  C   UNL     1      -2.907  12.588  21.606  0.00  0.00    +0.000 A 
ATOM     15  C   UNL     1      -1.893  11.917  22.306  0.00  0.00    +0.000 A 
ATOM     16  C   UNL     1      -0.843  11.266  21.643  0.00  0.00    +0.000 A 
ATOM     17  C   UNL     1      -0.819  11.233  20.231  0.00  0.00    +0.000 A 
ATOM     18  C   UNL     1      -1.845  11.874  19.510  0.00  0.00    +0.000 A 
ATOM     19  C   UNL     1      -2.836  12.587  20.209  0.00  0.00    +0.000 A 
BRANCH  16  20
ATOM     20  O   UNL     1       0.207  10.669  22.298  0.00  0.00    +0.000 OA
ATOM     21  C   UNL     1      -0.098   9.595  23.181  0.00  0.00    +0.000 C 
ENDBRANCH  16  20
BRANCH  17  22
ATOM     22  O   UNL     1       0.303  10.638  19.704  0.00  0.00    +0.000 OA
ATOM     23  C   UNL     1       1.334  11.441  19.152  0.00  0.00    +0.000 C 
ENDBRANCH  17  22
BRANCH  18  24
ATOM     24  O   UNL     1      -1.857  11.767  18.144  0.00  0.00    +0.000 OA
ATOM     25  C   UNL     1      -2.519  10.649  17.565  0.00  0.00    +0.000 C 
ENDBRANCH  18  24
ENDBRANCH  12  14
BRANCH  10  26
ATOM     26  C   UNL     1      -7.412  12.333  23.038  0.00  0.00    +0.000 C 
ATOM     27  O   UNL     1      -7.615  11.381  23.782  0.00  0.00    +0.000 OA
ENDBRANCH  10  26
BRANCH   1  28
ATOM     28  C   UNL     1      -1.739  15.740  22.139  0.00  0.00    +0.000 C 
BRANCH  28  29
ATOM     29  C   UNL     1      -1.848  16.760  21.007  0.00  0.00    +0.000 C 
BRANCH  29  31
ATOM     30  C   UNL     1      -3.951  18.026  20.510  0.00  0.00    +0.000 C 
ATOM     31  C   UNL     1      -3.200  16.721  20.301  0.00  0.00    +0.000 C 
ENDBRANCH  29  31
ENDBRANCH  28  29
ENDBRANCH   1  28
TORSDOF 8
ENDMDL
MODEL 7
REMARK VINA RESULT:      -5.7      2.720      5.485
REMARK  Name = 
REMARK  12 active torsions:
REMARK  status: ('A' for Active; 'I' for Inactive)
REMARK    1  A    between atoms: C_1  and  C_2
REMARK    2  A    between atoms: C_2  and  C_3
REMARK    3  A    between atoms: C_3  and  C_4
REMARK    4  A    between atoms: C_4  and  N_5
REMARK    5  A    between atoms: CA_14  and  C_15
REMARK    6  A    between atoms: C_18  and  C_19
REMARK    7  A    between atoms: C_21  and  O_22
REMARK    8  A    between atoms: O_22  and  C_23
REMARK    9  A    between atoms: C_24  and  O_25
REMARK   10  A    between atoms: O_25  and  C_26
REMARK   11  A    between atoms: C_27  and  O_28
REMARK   12  A    between atoms: O_28  and  C_29
REMARK                            x       y       z     vdW  Elec       q    Type
REMARK                         _______ _______ _______ _____ _____    ______ ____
ROOT
ATOM      1  N   UNL     1      -2.876  15.597  23.014  0.00  0.00    +0.000 N 
ATOM      2  C   UNL     1      -3.355  16.554  23.906  0.00  0.00    +0.000 A 
ATOM      3  C   UNL     1      -2.749  17.688  24.479  0.00  0.00    +0.000 A 
ATOM      4  C   UNL     1      -3.527  18.519  25.292  0.00  0.00    +0.000 A 
ATOM      5  C   UNL     1      -4.866  18.239  25.528  0.00  0.00    +0.000 A 
ATOM      6  C   UNL     1      -5.455  17.105  24.967  0.00  0.00    +0.000 A 
ATOM      7  C   UNL     1      -4.689  16.246  24.152  0.00  0.00    +0.000 A 
ATOM      8  C   UNL     1      -4.982  15.034  23.466  0.00  0.00    +0.000 A 
ATOM      9  C   UNL     1      -6.175  14.301  23.355  0.00  0.00    +0.000 A 
ATOM     10  CA  UNL     1      -6.113  13.142  22.612  0.00  0.00    +0.000 A 
ATOM     11  N   UNL     1      -4.995  12.663  22.042  0.00  0.00    +0.000 NA
ATOM     12  C   UNL     1      -3.814  13.336  22.152  0.00  0.00    +0.000 A 
ATOM     13  C   UNL     1      -3.812  14.575  22.835  0.00  0.00    +0.000 A 
ENDROOT
BRANCH  12  14
ATOM     14  C   UNL     1      -2.688  12.654  21.502  0.00  0.00    +0.000 A 
ATOM     15  C   UNL     1      -1.765  11.944  22.283  0.00  0.00    +0.000 A 
ATOM     16  C   UNL     1      -0.640  11.324  21.720  0.00  0.00    +0.000 A 
ATOM     17  C   UNL     1      -0.445  11.363  20.321  0.00  0.00    +0.000 A 
ATOM     18  C   UNL     1      -1.378  12.044  19.515  0.00  0.00    +0.000 A 
ATOM     19  C   UNL     1      -2.448  12.725  20.125  0.00  0.00    +0.000 A 
BRANCH  16  20
ATOM     20  O   UNL     1       0.324  10.690  22.465  0.00  0.00    +0.000 OA
ATOM     21  C   UNL     1      -0.077   9.555  23.225  0.00  0.00    +0.000 C 
ENDBRANCH  16  20
BRANCH  17  22
ATOM     22  O   UNL     1       0.734  10.792  19.904  0.00  0.00    +0.000 OA
ATOM     23  C   UNL     1       0.724   9.497  19.327  0.00  0.00    +0.000 C 
ENDBRANCH  17  22
BRANCH  18  24
ATOM     24  O   UNL     1      -1.224  12.008  18.155  0.00  0.00    +0.000 OA
ATOM     25  C   UNL     1      -2.145  11.235  17.396  0.00  0.00    +0.000 C 
ENDBRANCH  18  24
ENDBRANCH  12  14
BRANCH  10  26
ATOM     26  C   UNL     1      -7.329  12.337  22.374  0.00  0.00    +0.000 C 
ATOM     27  O   UNL     1      -7.292  11.166  22.017  0.00  0.00    +0.000 OA
ENDBRANCH  10  26
BRANCH   1  28
ATOM     28  C   UNL     1      -1.605  15.775  22.319  0.00  0.00    +0.000 C 
BRANCH  28  29
ATOM     29  C   UNL     1      -0.377  15.186  23.012  0.00  0.00    +0.000 C 
BRANCH  29  31
ATOM     30  C   UNL     1       0.457  15.043  20.655  0.00  0.00    +0.000 C 
ATOM     31  C   UNL     1       0.858  15.168  22.116  0.00  0.00    +0.000 C 
ENDBRANCH  29  31
ENDBRANCH  28  29
ENDBRANCH   1  28
TORSDOF 8
ENDMDL
MODEL 8
REMARK VINA RESULT:      -5.7      1.344      2.503
REMARK  Name = 
REMARK  12 active torsions:
REMARK  status: ('A' for Active; 'I' for Inactive)
REMARK    1  A    between atoms: C_1  and  C_2
REMARK    2  A    between atoms: C_2  and  C_3
REMARK    3  A    between atoms: C_3  and  C_4
REMARK    4  A    between atoms: C_4  and  N_5
REMARK    5  A    between atoms: CA_14  and  C_15
REMARK    6  A    between atoms: C_18  and  C_19
REMARK    7  A    between atoms: C_21  and  O_22
REMARK    8  A    between atoms: O_22  and  C_23
REMARK    9  A    between atoms: C_24  and  O_25
REMARK   10  A    between atoms: O_25  and  C_26
REMARK   11  A    between atoms: C_27  and  O_28
REMARK   12  A    between atoms: O_28  and  C_29
REMARK                            x       y       z     vdW  Elec       q    Type
REMARK                         _______ _______ _______ _____ _____    ______ ____
ROOT
ATOM      1  N   UNL     1      -3.894  12.607  20.285  0.00  0.00    +0.000 N 
ATOM      2  C   UNL     1      -5.202  12.356  20.691  0.00  0.00    +0.000 A 
ATOM      3  C   UNL     1      -5.881  12.636  21.892  0.00  0.00    +0.000 A 
ATOM      4  C   UNL     1      -7.244  12.332  21.974  0.00  0.00    +0.000 A 
ATOM      5  C   UNL     1      -7.917  11.768  20.898  0.00  0.00    +0.000 A 
ATOM      6  C   UNL     1      -7.233  11.481  19.715  0.00  0.00    +0.000 A 
ATOM      7  C   UNL     1      -5.857  11.771  19.612  0.00  0.00    +0.000 A 
ATOM      8  C   UNL     1      -4.896  11.587  18.578  0.00  0.00    +0.000 A 
ATOM      9  C   UNL     1      -5.025  11.069  17.279  0.00  0.00    +0.000 A 
ATOM     10  CA  UNL     1      -3.874  11.017  16.524  0.00  0.00    +0.000 A 
ATOM     11  N   UNL     1      -2.658  11.382  16.965  0.00  0.00    +0.000 NA
ATOM     12  C   UNL     1      -2.492  11.864  18.229  0.00  0.00    +0.000 A 
ATOM     13  C   UNL     1      -3.641  12.020  19.042  0.00  0.00    +0.000 A 
ENDROOT
BRANCH  12  14
ATOM     14  C   UNL     1      -1.097  12.179  18.559  0.00  0.00    +0.000 A 
ATOM     15  C   UNL     1      -0.751  13.488  18.929  0.00  0.00    +0.000 A 
ATOM     16  C   UNL     1       0.575  13.856  19.197  0.00  0.00    +0.000 A 
ATOM     17  C   UNL     1       1.596  12.881  19.149  0.00  0.00    +0.000 A 
ATOM     18  C   UNL     1       1.265  11.553  18.812  0.00  0.00    +0.000 A 
ATOM     19  C   UNL     1      -0.063  11.242  18.467  0.00  0.00    +0.000 A 
BRANCH  16  20
ATOM     20  O   UNL     1       0.957  15.144  19.483  0.00  0.00    +0.000 OA
ATOM     21  C   UNL     1       0.419  15.741  20.658  0.00  0.00    +0.000 C 
ENDBRANCH  16  20
BRANCH  17  22
ATOM     22  O   UNL     1       2.860  13.383  19.350  0.00  0.00    +0.000 OA
ATOM     23  C   UNL     1       3.624  13.834  18.244  0.00  0.00    +0.000 C 
ENDBRANCH  17  22
BRANCH  18  24
ATOM     24  O   UNL     1       2.248  10.601  18.847  0.00  0.00    +0.000 OA
ATOM     25  C   UNL     1       2.030   9.385  18.141  0.00  0.00    +0.000 C 
ENDBRANCH  18  24
ENDBRANCH  12  14
BRANCH  10  26
ATOM     26  C   UNL     1      -3.916  10.558  15.120  0.00  0.00    +0.000 C 
ATOM     27  O   UNL     1      -2.910  10.262  14.487  0.00  0.00    +0.000 OA
ENDBRANCH  10  26
BRANCH   1  28
ATOM     28  C   UNL     1      -3.009  13.471  21.060  0.00  0.00    +0.000 C 
BRANCH  28  29
ATOM     29  C   UNL     1      -2.538  12.911  22.402  0.00  0.00    +0.000 C 
BRANCH  29  31
ATOM     30  C   UNL     1      -0.791  11.137  22.132  0.00  0.00    +0.000 C 
ATOM     31  C   UNL     1      -1.043  12.607  22.426  0.00  0.00    +0.000 C 
ENDBRANCH  29  31
ENDBRANCH  28  29
ENDBRANCH   1  28
TORSDOF 8
ENDMDL
MODEL 9
REMARK VINA RESULT:      -5.6      2.180      4.652
REMARK  Name = 
REMARK  12 active torsions:
REMARK  status: ('A' for Active; 'I' for Inactive)
REMARK    1  A    between atoms: C_1  and  C_2
REMARK    2  A    between atoms: C_2  and  C_3
REMARK    3  A    between atoms: C_3  and  C_4
REMARK    4  A    between atoms: C_4  and  N_5
REMARK    5  A    between atoms: CA_14  and  C_15
REMARK    6  A    between atoms: C_18  and  C_19
REMARK    7  A    between atoms: C_21  and  O_22
REMARK    8  A    between atoms: O_22  and  C_23
REMARK    9  A    between atoms: C_24  and  O_25
REMARK   10  A    between atoms: O_25  and  C_26
REMARK   11  A    between atoms: C_27  and  O_28
REMARK   12  A    between atoms: O_28  and  C_29
REMARK                            x       y       z     vdW  Elec       q    Type
REMARK                         _______ _______ _______ _____ _____    ______ ____
ROOT
ATOM      1  N   UNL     1      -3.550  12.376  19.289  0.00  0.00    +0.000 N 
ATOM      2  C   UNL     1      -4.852  11.879  19.283  0.00  0.00    +0.000 A 
ATOM      3  C   UNL     1      -5.551  11.094  18.347  0.00  0.00    +0.000 A 
ATOM      4  C   UNL     1      -6.847  10.674  18.666  0.00  0.00    +0.000 A 
ATOM      5  C   UNL     1      -7.433  11.019  19.876  0.00  0.00    +0.000 A 
ATOM      6  C   UNL     1      -6.737  11.809  20.793  0.00  0.00    +0.000 A 
ATOM      7  C   UNL     1      -5.433  12.252  20.490  0.00  0.00    +0.000 A 
ATOM      8  C   UNL     1      -4.492  13.063  21.186  0.00  0.00    +0.000 A 
ATOM      9  C   UNL     1      -4.555  13.673  22.449  0.00  0.00    +0.000 A 
ATOM     10  CA  UNL     1      -3.456  14.414  22.825  0.00  0.00    +0.000 A 
ATOM     11  N   UNL     1      -2.376  14.617  22.054  0.00  0.00    +0.000 NA
ATOM     12  C   UNL     1      -2.293  14.061  20.812  0.00  0.00    +0.000 A 
ATOM     13  C   UNL     1      -3.349  13.222  20.382  0.00  0.00    +0.000 A 
ENDROOT
BRANCH  12  14
ATOM     14  C   UNL     1      -1.064  14.415  20.091  0.00  0.00    +0.000 A 
ATOM     15  C   UNL     1      -0.060  13.450  19.919  0.00  0.00    +0.000 A 
ATOM     16  C   UNL     1       1.156  13.750  19.290  0.00  0.00    +0.000 A 
ATOM     17  C   UNL     1       1.372  15.043  18.763  0.00  0.00    +0.000 A 
ATOM     18  C   UNL     1       0.364  16.018  18.896  0.00  0.00    +0.000 A 
ATOM     19  C   UNL     1      -0.808  15.702  19.608  0.00  0.00    +0.000 A 
BRANCH  16  20
ATOM     20  O   UNL     1       2.189  12.851  19.177  0.00  0.00    +0.000 OA
ATOM     21  C   UNL     1       1.888  11.573  18.629  0.00  0.00    +0.000 C 
ENDBRANCH  16  20
BRANCH  17  22
ATOM     22  O   UNL     1       2.632  15.234  18.247  0.00  0.00    +0.000 OA
ATOM     23  C   UNL     1       3.579  16.007  18.965  0.00  0.00    +0.000 C 
ENDBRANCH  17  22
BRANCH  18  24
ATOM     24  O   UNL     1       0.550  17.242  18.312  0.00  0.00    +0.000 OA
ATOM     25  C   UNL     1      -0.553  17.840  17.641  0.00  0.00    +0.000 C 
ENDBRANCH  18  24
ENDBRANCH  12  14
BRANCH  10  26
ATOM     26  C   UNL     1      -3.392  15.036  24.164  0.00  0.00    +0.000 C 
ATOM     27  O   UNL     1      -2.804  14.523  25.109  0.00  0.00    +0.000 OA
ENDBRANCH  10  26
BRANCH   1  28
ATOM     28  C   UNL     1      -2.563  11.932  18.310  0.00  0.00    +0.000 C 
BRANCH  28  29
ATOM     29  C   UNL     1      -1.941  10.560  18.565  0.00  0.00    +0.000 C 
BRANCH  29  31
ATOM     30  C   UNL     1      -2.676   9.929  16.256  0.00  0.00    +0.000 C 
ATOM     31  C   UNL     1      -1.556   9.835  17.279  0.00  0.00    +0.000 C 
ENDBRANCH  29  31
ENDBRANCH  28  29
ENDBRANCH   1  28
TORSDOF 8
ENDMDL
