MODEL 1
REMARK VINA RESULT:      -8.0      0.000      0.000
REMARK  Name = 
REMARK  7 active torsions:
REMARK  status: ('A' for Active; 'I' for Inactive)
REMARK    1  A    between atoms: N_2  and  C_4
REMARK    2  A    between atoms: C_11  and  O_12
REMARK    3  A    between atoms: O_12  and  C_13
REMARK    4  A    between atoms: C_13  and  C_14
REMARK    5  A    between atoms: C_15  and  C_16
REMARK    6  A    between atoms: C_19  and  O_20
REMARK    7  A    between atoms: O_20  and  C_21
REMARK                            x       y       z     vdW  Elec       q    Type
REMARK                         _______ _______ _______ _____ _____    ______ ____
ROOT
ATOM      1  C   UNL     1       1.857   4.276  20.898  0.00  0.00    +0.000 C 
ENDROOT
BRANCH   1   2
ATOM      2  C   UNL     1       1.435   5.675  20.611  0.00  0.00    +0.000 C 
ATOM      3  C   UNL     1       2.205   6.564  19.964  0.00  0.00    +0.000 C 
BRANCH   3   4
ATOM      4  C   UNL     1       1.796   7.939  19.679  0.00  0.00    +0.000 A 
ATOM      5  C   UNL     1       1.944   8.519  18.412  0.00  0.00    +0.000 A 
ATOM      6  C   UNL     1       1.523   9.829  18.181  0.00  0.00    +0.000 A 
ATOM      7  C   UNL     1       0.923  10.574  19.197  0.00  0.00    +0.000 A 
ATOM      8  C   UNL     1       0.792  10.015  20.467  0.00  0.00    +0.000 A 
ATOM      9  C   UNL     1       1.209   8.695  20.698  0.00  0.00    +0.000 A 
BRANCH   7  10
ATOM     10  O   UNL     1       0.565  11.836  18.840  0.00  0.00    +0.000 OA
BRANCH  10  11
ATOM     11  C   UNL     1      -0.807  12.162  18.706  0.00  0.00    +0.000 C 
ATOM     12  F   UNL     1      -1.611  11.108  18.442  0.00  0.00    +0.000 F 
ATOM     13  F   UNL     1      -1.237  12.756  19.842  0.00  0.00    +0.000 F 
ATOM     14  F   UNL     1      -0.943  13.046  17.693  0.00  0.00    +0.000 F 
ENDBRANCH  10  11
ENDBRANCH   7  10
ENDBRANCH   3   4
ENDBRANCH   1   2
BRANCH   1  15
ATOM     15  O   UNL     1       1.539   3.510  19.742  0.00  0.00    +0.000 OA
BRANCH  15  23
ATOM     16  C   UNL     1       6.084   5.371  17.247  0.00  0.00    +0.000 A 
ATOM     17  C   UNL     1       4.761   5.209  16.874  0.00  0.00    +0.000 A 
ATOM     18  N   UNL     1       4.264   4.339  17.799  0.00  0.00    +0.000 N 
ATOM     19  C   UNL     1       5.274   3.984  18.642  0.00  0.00    +0.000 A 
ATOM     20  N   UNL     1       6.390   4.606  18.356  0.00  0.00    +0.000 NA
ATOM     21  O   UNL     1       5.162   3.019  19.539  0.00  0.00    +0.000 OA
ATOM     22  C   UNL     1       3.861   2.867  20.091  0.00  0.00    +0.000 C 
ATOM     23  C   UNL     1       2.682   2.924  19.100  0.00  0.00    +0.000 C 
ATOM     24  C   UNL     1       2.959   3.726  17.821  0.00  0.00    +0.000 C 
BRANCH  16  26
ATOM     25  O   UNL     1       7.662   5.623  15.612  0.00  0.00    +0.000 OA
ATOM     26  N   UNL     1       7.097   6.158  16.578  0.00  0.00    +0.000 N 
ATOM     27  O   UNL     1       7.323   7.298  17.005  0.00  0.00    +0.000 OA
ENDBRANCH  16  26
ENDBRANCH  15  23
ENDBRANCH   1  15
TORSDOF 7
ENDMDL
MODEL 2
REMARK VINA RESULT:      -8.0      0.896      1.229
REMARK  Name = 
REMARK  7 active torsions:
REMARK  status: ('A' for Active; 'I' for Inactive)
REMARK    1  A    between atoms: N_2  and  C_4
REMARK    2  A    between atoms: C_11  and  O_12
REMARK    3  A    between atoms: O_12  and  C_13
REMARK    4  A    between atoms: C_13  and  C_14
REMARK    5  A    between atoms: C_15  and  C_16
REMARK    6  A    between atoms: C_19  and  O_20
REMARK    7  A    between atoms: O_20  and  C_21
REMARK                            x       y       z     vdW  Elec       q    Type
REMARK                         _______ _______ _______ _____ _____    ______ ____
ROOT
ATOM      1  C   UNL     1       1.511   3.169  20.342  0.00  0.00    +0.000 C 
ENDROOT
BRANCH   1   2
ATOM      2  C   UNL     1       1.219   4.603  20.067  0.00  0.00    +0.000 C 
ATOM      3  C   UNL     1       2.136   5.579  20.160  0.00  0.00    +0.000 C 
BRANCH   3   4
ATOM      4  C   UNL     1       1.854   6.988  19.891  0.00  0.00    +0.000 A 
ATOM      5  C   UNL     1       2.155   7.592  18.662  0.00  0.00    +0.000 A 
ATOM      6  C   UNL     1       1.852   8.936  18.443  0.00  0.00    +0.000 A 
ATOM      7  C   UNL     1       1.221   9.694  19.430  0.00  0.00    +0.000 A 
ATOM      8  C   UNL     1       0.939   9.110  20.664  0.00  0.00    +0.000 A 
ATOM      9  C   UNL     1       1.237   7.756  20.882  0.00  0.00    +0.000 A 
BRANCH   7  10
ATOM     10  O   UNL     1       0.989  10.990  19.089  0.00  0.00    +0.000 OA
BRANCH  10  11
ATOM     11  C   UNL     1      -0.338  11.418  18.833  0.00  0.00    +0.000 C 
ATOM     12  F   UNL     1      -0.431  12.517  18.051  0.00  0.00    +0.000 F 
ATOM     13  F   UNL     1      -1.024  10.413  18.244  0.00  0.00    +0.000 F 
ATOM     14  F   UNL     1      -0.935  11.700  20.011  0.00  0.00    +0.000 F 
ENDBRANCH  10  11
ENDBRANCH   7  10
ENDBRANCH   3   4
ENDBRANCH   1   2
BRANCH   1  15
ATOM     15  O   UNL     1       1.704   2.544  19.079  0.00  0.00    +0.000 OA
BRANCH  15  23
ATOM     16  C   UNL     1       6.307   5.344  17.932  0.00  0.00    +0.000 A 
ATOM     17  C   UNL     1       5.200   4.942  17.204  0.00  0.00    +0.000 A 
ATOM     18  N   UNL     1       4.645   3.958  17.968  0.00  0.00    +0.000 N 
ATOM     19  C   UNL     1       5.428   3.774  19.067  0.00  0.00    +0.000 A 
ATOM     20  N   UNL     1       6.435   4.610  19.096  0.00  0.00    +0.000 NA
ATOM     21  O   UNL     1       5.262   2.772  19.914  0.00  0.00    +0.000 OA
ATOM     22  C   UNL     1       3.915   2.350  20.080  0.00  0.00    +0.000 C 
ATOM     23  C   UNL     1       3.073   2.215  18.796  0.00  0.00    +0.000 C 
ATOM     24  C   UNL     1       3.534   3.103  17.633  0.00  0.00    +0.000 C 
BRANCH  16  26
ATOM     25  O   UNL     1       7.438   6.541  16.346  0.00  0.00    +0.000 OA
ATOM     26  N   UNL     1       7.291   6.337  17.560  0.00  0.00    +0.000 N 
ATOM     27  O   UNL     1       7.907   6.911  18.468  0.00  0.00    +0.000 OA
ENDBRANCH  16  26
ENDBRANCH  15  23
ENDBRANCH   1  15
TORSDOF 7
ENDMDL
MODEL 3
REMARK VINA RESULT:      -7.8      6.360      8.033
REMARK  Name = 
REMARK  7 active torsions:
REMARK  status: ('A' for Active; 'I' for Inactive)
REMARK    1  A    between atoms: N_2  and  C_4
REMARK    2  A    between atoms: C_11  and  O_12
REMARK    3  A    between atoms: O_12  and  C_13
REMARK    4  A    between atoms: C_13  and  C_14
REMARK    5  A    between atoms: C_15  and  C_16
REMARK    6  A    between atoms: C_19  and  O_20
REMARK    7  A    between atoms: O_20  and  C_21
REMARK                            x       y       z     vdW  Elec       q    Type
REMARK                         _______ _______ _______ _____ _____    ______ ____
ROOT
ATOM      1  C   UNL     1       7.545   7.013  17.939  0.00  0.00    +0.000 C 
ENDROOT
BRANCH   1   2
ATOM      2  C   UNL     1       7.927   8.440  17.753  0.00  0.00    +0.000 C 
ATOM      3  C   UNL     1       8.714   9.116  18.605  0.00  0.00    +0.000 C 
BRANCH   3   4
ATOM      4  C   UNL     1       9.092  10.516  18.427  0.00  0.00    +0.000 A 
ATOM      5  C   UNL     1       8.321  11.412  17.673  0.00  0.00    +0.000 A 
ATOM      6  C   UNL     1       8.711  12.745  17.544  0.00  0.00    +0.000 A 
ATOM      7  C   UNL     1       9.857  13.217  18.185  0.00  0.00    +0.000 A 
ATOM      8  C   UNL     1      10.644  12.330  18.918  0.00  0.00    +0.000 A 
ATOM      9  C   UNL     1      10.248  10.991  19.053  0.00  0.00    +0.000 A 
BRANCH   7  10
ATOM     10  O   UNL     1      10.125  14.533  17.973  0.00  0.00    +0.000 OA
BRANCH  10  11
ATOM     11  C   UNL     1      11.194  14.900  17.117  0.00  0.00    +0.000 C 
ATOM     12  F   UNL     1      11.003  16.057  16.445  0.00  0.00    +0.000 F 
ATOM     13  F   UNL     1      12.329  15.008  17.843  0.00  0.00    +0.000 F 
ATOM     14  F   UNL     1      11.371  13.919  16.205  0.00  0.00    +0.000 F 
ENDBRANCH  10  11
ENDBRANCH   7  10
ENDBRANCH   3   4
ENDBRANCH   1   2
BRANCH   1  15
ATOM     15  O   UNL     1       7.451   6.444  16.639  0.00  0.00    +0.000 OA
BRANCH  15  23
ATOM     16  C   UNL     1       3.584   3.751  19.492  0.00  0.00    +0.000 A 
ATOM     17  C   UNL     1       4.794   3.403  18.915  0.00  0.00    +0.000 A 
ATOM     18  N   UNL     1       5.039   4.414  18.032  0.00  0.00    +0.000 N 
ATOM     19  C   UNL     1       3.990   5.281  18.071  0.00  0.00    +0.000 A 
ATOM     20  N   UNL     1       3.096   4.929  18.959  0.00  0.00    +0.000 NA
ATOM     21  O   UNL     1       3.838   6.271  17.206  0.00  0.00    +0.000 OA
ATOM     22  C   UNL     1       5.052   6.843  16.737  0.00  0.00    +0.000 C 
ATOM     23  C   UNL     1       6.173   5.858  16.352  0.00  0.00    +0.000 C 
ATOM     24  C   UNL     1       6.110   4.504  17.071  0.00  0.00    +0.000 C 
BRANCH  16  26
ATOM     25  O   UNL     1       1.620   2.847  20.234  0.00  0.00    +0.000 OA
ATOM     26  N   UNL     1       2.828   3.001  20.470  0.00  0.00    +0.000 N 
ATOM     27  O   UNL     1       3.431   2.564  21.459  0.00  0.00    +0.000 OA
ENDBRANCH  16  26
ENDBRANCH  15  23
ENDBRANCH   1  15
TORSDOF 7
ENDMDL
MODEL 4
REMARK VINA RESULT:      -7.7      6.481      8.137
REMARK  Name = 
REMARK  7 active torsions:
REMARK  status: ('A' for Active; 'I' for Inactive)
REMARK    1  A    between atoms: N_2  and  C_4
REMARK    2  A    between atoms: C_11  and  O_12
REMARK    3  A    between atoms: O_12  and  C_13
REMARK    4  A    between atoms: C_13  and  C_14
REMARK    5  A    between atoms: C_15  and  C_16
REMARK    6  A    between atoms: C_19  and  O_20
REMARK    7  A    between atoms: O_20  and  C_21
REMARK                            x       y       z     vdW  Elec       q    Type
REMARK                         _______ _______ _______ _____ _____    ______ ____
ROOT
ATOM      1  C   UNL     1       7.873   7.261  18.149  0.00  0.00    +0.000 C 
ENDROOT
BRANCH   1   2
ATOM      2  C   UNL     1       8.170   8.704  17.936  0.00  0.00    +0.000 C 
ATOM      3  C   UNL     1       8.992   9.417  18.722  0.00  0.00    +0.000 C 
BRANCH   3   4
ATOM      4  C   UNL     1       9.287  10.834  18.517  0.00  0.00    +0.000 A 
ATOM      5  C   UNL     1       8.449  11.676  17.772  0.00  0.00    +0.000 A 
ATOM      6  C   UNL     1       8.762  13.026  17.618  0.00  0.00    +0.000 A 
ATOM      7  C   UNL     1       9.896  13.569  18.223  0.00  0.00    +0.000 A 
ATOM      8  C   UNL     1      10.749  12.736  18.945  0.00  0.00    +0.000 A 
ATOM      9  C   UNL     1      10.431  11.379  19.108  0.00  0.00    +0.000 A 
BRANCH   7  10
ATOM     10  O   UNL     1      10.086  14.895  17.988  0.00  0.00    +0.000 OA
BRANCH  10  11
ATOM     11  C   UNL     1      11.085  15.306  17.071  0.00  0.00    +0.000 C 
ATOM     12  F   UNL     1      12.218  15.769  17.646  0.00  0.00    +0.000 F 
ATOM     13  F   UNL     1      11.406  14.268  16.267  0.00  0.00    +0.000 F 
ATOM     14  F   UNL     1      10.582  16.295  16.300  0.00  0.00    +0.000 F 
ENDBRANCH  10  11
ENDBRANCH   7  10
ENDBRANCH   3   4
ENDBRANCH   1   2
BRANCH   1  15
ATOM     15  O   UNL     1       6.643   6.996  17.484  0.00  0.00    +0.000 OA
BRANCH  15  23
ATOM     16  C   UNL     1       2.351   3.822  18.841  0.00  0.00    +0.000 A 
ATOM     17  C   UNL     1       3.416   4.373  19.532  0.00  0.00    +0.000 A 
ATOM     18  N   UNL     1       4.310   4.695  18.554  0.00  0.00    +0.000 N 
ATOM     19  C   UNL     1       3.796   4.302  17.356  0.00  0.00    +0.000 A 
ATOM     20  N   UNL     1       2.599   3.789  17.482  0.00  0.00    +0.000 NA
ATOM     21  O   UNL     1       4.493   4.310  16.232  0.00  0.00    +0.000 OA
ATOM     22  C   UNL     1       5.462   5.346  16.140  0.00  0.00    +0.000 C 
ATOM     23  C   UNL     1       6.319   5.601  17.396  0.00  0.00    +0.000 C 
ATOM     24  C   UNL     1       5.654   5.193  18.717  0.00  0.00    +0.000 C 
BRANCH  16  26
ATOM     25  O   UNL     1       0.569   2.395  18.715  0.00  0.00    +0.000 OA
ATOM     26  N   UNL     1       1.138   3.262  19.395  0.00  0.00    +0.000 N 
ATOM     27  O   UNL     1       0.759   3.677  20.498  0.00  0.00    +0.000 OA
ENDBRANCH  16  26
ENDBRANCH  15  23
ENDBRANCH   1  15
TORSDOF 7
ENDMDL
MODEL 5
REMARK VINA RESULT:      -7.7      2.325      3.169
REMARK  Name = 
REMARK  7 active torsions:
REMARK  status: ('A' for Active; 'I' for Inactive)
REMARK    1  A    between atoms: N_2  and  C_4
REMARK    2  A    between atoms: C_11  and  O_12
REMARK    3  A    between atoms: O_12  and  C_13
REMARK    4  A    between atoms: C_13  and  C_14
REMARK    5  A    between atoms: C_15  and  C_16
REMARK    6  A    between atoms: C_19  and  O_20
REMARK    7  A    between atoms: O_20  and  C_21
REMARK                            x       y       z     vdW  Elec       q    Type
REMARK                         _______ _______ _______ _____ _____    ______ ____
ROOT
ATOM      1  C   UNL     1       3.278   5.533  17.887  0.00  0.00    +0.000 C 
ENDROOT
BRANCH   1   2
ATOM      2  C   UNL     1       2.795   6.572  18.839  0.00  0.00    +0.000 C 
ATOM      3  C   UNL     1       2.043   7.621  18.474  0.00  0.00    +0.000 C 
BRANCH   3   4
ATOM      4  C   UNL     1       1.566   8.643  19.404  0.00  0.00    +0.000 A 
ATOM      5  C   UNL     1       1.438   8.405  20.779  0.00  0.00    +0.000 A 
ATOM      6  C   UNL     1       0.996   9.416  21.633  0.00  0.00    +0.000 A 
ATOM      7  C   UNL     1       0.700  10.688  21.139  0.00  0.00    +0.000 A 
ATOM      8  C   UNL     1       0.801  10.928  19.770  0.00  0.00    +0.000 A 
ATOM      9  C   UNL     1       1.253   9.913  18.912  0.00  0.00    +0.000 A 
BRANCH   7  10
ATOM     10  O   UNL     1       0.275  11.576  22.076  0.00  0.00    +0.000 OA
BRANCH  10  11
ATOM     11  C   UNL     1      -1.051  11.492  22.569  0.00  0.00    +0.000 C 
ATOM     12  F   UNL     1      -1.313  10.375  23.284  0.00  0.00    +0.000 F 
ATOM     13  F   UNL     1      -1.307  12.568  23.346  0.00  0.00    +0.000 F 
ATOM     14  F   UNL     1      -1.903  11.518  21.521  0.00  0.00    +0.000 F 
ENDBRANCH  10  11
ENDBRANCH   7  10
ENDBRANCH   3   4
ENDBRANCH   1   2
BRANCH   1  15
ATOM     15  O   UNL     1       3.696   4.424  18.673  0.00  0.00    +0.000 OA
BRANCH  15  23
ATOM     16  C   UNL     1       6.947   4.781  14.240  0.00  0.00    +0.000 A 
ATOM     17  C   UNL     1       5.793   4.082  14.553  0.00  0.00    +0.000 A 
ATOM     18  N   UNL     1       5.743   4.125  15.915  0.00  0.00    +0.000 N 
ATOM     19  C   UNL     1       6.847   4.784  16.365  0.00  0.00    +0.000 A 
ATOM     20  N   UNL     1       7.592   5.219  15.381  0.00  0.00    +0.000 NA
ATOM     21  O   UNL     1       7.185   4.840  17.643  0.00  0.00    +0.000 OA
ATOM     22  C   UNL     1       6.090   4.850  18.549  0.00  0.00    +0.000 C 
ATOM     23  C   UNL     1       4.948   3.856  18.259  0.00  0.00    +0.000 C 
ATOM     24  C   UNL     1       4.810   3.452  16.785  0.00  0.00    +0.000 C 
BRANCH  16  26
ATOM     25  O   UNL     1       8.296   5.957  12.819  0.00  0.00    +0.000 OA
ATOM     26  N   UNL     1       7.512   5.003  12.928  0.00  0.00    +0.000 N 
ATOM     27  O   UNL     1       7.184   4.231  12.017  0.00  0.00    +0.000 OA
ENDBRANCH  16  26
ENDBRANCH  15  23
ENDBRANCH   1  15
TORSDOF 7
ENDMDL
MODEL 6
REMARK VINA RESULT:      -7.6      6.396      8.077
REMARK  Name = 
REMARK  7 active torsions:
REMARK  status: ('A' for Active; 'I' for Inactive)
REMARK    1  A    between atoms: N_2  and  C_4
REMARK    2  A    between atoms: C_11  and  O_12
REMARK    3  A    between atoms: O_12  and  C_13
REMARK    4  A    between atoms: C_13  and  C_14
REMARK    5  A    between atoms: C_15  and  C_16
REMARK    6  A    between atoms: C_19  and  O_20
REMARK    7  A    between atoms: O_20  and  C_21
REMARK                            x       y       z     vdW  Elec       q    Type
REMARK                         _______ _______ _______ _____ _____    ______ ____
ROOT
ATOM      1  C   UNL     1       7.442   7.746  17.542  0.00  0.00    +0.000 C 
ENDROOT
BRANCH   1   2
ATOM      2  C   UNL     1       8.102   9.063  17.761  0.00  0.00    +0.000 C 
ATOM      3  C   UNL     1       8.819   9.361  18.856  0.00  0.00    +0.000 C 
BRANCH   3   4
ATOM      4  C   UNL     1       9.468  10.652  19.076  0.00  0.00    +0.000 A 
ATOM      5  C   UNL     1      10.163  10.950  20.256  0.00  0.00    +0.000 A 
ATOM      6  C   UNL     1      10.783  12.190  20.416  0.00  0.00    +0.000 A 
ATOM      7  C   UNL     1      10.746  13.142  19.396  0.00  0.00    +0.000 A 
ATOM      8  C   UNL     1      10.038  12.864  18.229  0.00  0.00    +0.000 A 
ATOM      9  C   UNL     1       9.421  11.615  18.065  0.00  0.00    +0.000 A 
BRANCH   7  10
ATOM     10  O   UNL     1      11.385  14.307  19.684  0.00  0.00    +0.000 OA
BRANCH  10  11
ATOM     11  C   UNL     1      10.698  15.324  20.393  0.00  0.00    +0.000 C 
ATOM     12  F   UNL     1      11.412  16.457  20.581  0.00  0.00    +0.000 F 
ATOM     13  F   UNL     1       9.562  15.639  19.731  0.00  0.00    +0.000 F 
ATOM     14  F   UNL     1      10.357  14.846  21.609  0.00  0.00    +0.000 F 
ENDBRANCH  10  11
ENDBRANCH   7  10
ENDBRANCH   3   4
ENDBRANCH   1   2
BRANCH   1  15
ATOM     15  O   UNL     1       8.071   6.824  18.425  0.00  0.00    +0.000 OA
BRANCH  15  23
ATOM     16  C   UNL     1       3.111   4.428  18.515  0.00  0.00    +0.000 A 
ATOM     17  C   UNL     1       3.985   4.904  19.478  0.00  0.00    +0.000 A 
ATOM     18  N   UNL     1       5.178   4.991  18.823  0.00  0.00    +0.000 N 
ATOM     19  C   UNL     1       5.004   4.542  17.550  0.00  0.00    +0.000 A 
ATOM     20  N   UNL     1       3.759   4.211  17.314  0.00  0.00    +0.000 NA
ATOM     21  O   UNL     1       6.007   4.331  16.714  0.00  0.00    +0.000 OA
ATOM     22  C   UNL     1       7.112   5.210  16.876  0.00  0.00    +0.000 C 
ATOM     23  C   UNL     1       7.566   5.484  18.323  0.00  0.00    +0.000 C 
ATOM     24  C   UNL     1       6.467   5.318  19.381  0.00  0.00    +0.000 C 
BRANCH  16  26
ATOM     25  O   UNL     1       1.189   4.443  19.752  0.00  0.00    +0.000 OA
ATOM     26  N   UNL     1       1.712   4.102  18.681  0.00  0.00    +0.000 N 
ATOM     27  O   UNL     1       1.138   3.518  17.752  0.00  0.00    +0.000 OA
ENDBRANCH  16  26
ENDBRANCH  15  23
ENDBRANCH   1  15
TORSDOF 7
ENDMDL
MODEL 7
REMARK VINA RESULT:      -7.5      1.735      2.538
REMARK  Name = 
REMARK  7 active torsions:
REMARK  status: ('A' for Active; 'I' for Inactive)
REMARK    1  A    between atoms: N_2  and  C_4
REMARK    2  A    between atoms: C_11  and  O_12
REMARK    3  A    between atoms: O_12  and  C_13
REMARK    4  A    between atoms: C_13  and  C_14
REMARK    5  A    between atoms: C_15  and  C_16
REMARK    6  A    between atoms: C_19  and  O_20
REMARK    7  A    between atoms: O_20  and  C_21
REMARK                            x       y       z     vdW  Elec       q    Type
REMARK                         _______ _______ _______ _____ _____    ______ ____
ROOT
ATOM      1  C   UNL     1       2.985   4.821  18.254  0.00  0.00    +0.000 C 
ENDROOT
BRANCH   1   2
ATOM      2  C   UNL     1       2.528   6.236  18.184  0.00  0.00    +0.000 C 
ATOM      3  C   UNL     1       2.287   6.993  19.266  0.00  0.00    +0.000 C 
BRANCH   3   4
ATOM      4  C   UNL     1       1.839   8.383  19.202  0.00  0.00    +0.000 A 
ATOM      5  C   UNL     1       1.115   8.986  20.239  0.00  0.00    +0.000 A 
ATOM      6  C   UNL     1       0.723  10.322  20.144  0.00  0.00    +0.000 A 
ATOM      7  C   UNL     1       1.068  11.088  19.029  0.00  0.00    +0.000 A 
ATOM      8  C   UNL     1       1.768  10.491  17.982  0.00  0.00    +0.000 A 
ATOM      9  C   UNL     1       2.169   9.150  18.081  0.00  0.00    +0.000 A 
BRANCH   7  10
ATOM     10  O   UNL     1       0.619  12.371  19.061  0.00  0.00    +0.000 OA
BRANCH  10  11
ATOM     11  C   UNL     1      -0.690  12.665  18.605  0.00  0.00    +0.000 C 
ATOM     12  F   UNL     1      -1.217  11.736  17.775  0.00  0.00    +0.000 F 
ATOM     13  F   UNL     1      -1.512  12.804  19.669  0.00  0.00    +0.000 F 
ATOM     14  F   UNL     1      -0.661  13.840  17.941  0.00  0.00    +0.000 F 
ENDBRANCH  10  11
ENDBRANCH   7  10
ENDBRANCH   3   4
ENDBRANCH   1   2
BRANCH   1  15
ATOM     15  O   UNL     1       4.006   4.771  19.243  0.00  0.00    +0.000 OA
BRANCH  15  23
ATOM     16  C   UNL     1       6.858   4.765  14.531  0.00  0.00    +0.000 A 
ATOM     17  C   UNL     1       5.761   4.071  15.010  0.00  0.00    +0.000 A 
ATOM     18  N   UNL     1       5.824   4.251  16.361  0.00  0.00    +0.000 N 
ATOM     19  C   UNL     1       6.937   4.981  16.645  0.00  0.00    +0.000 A 
ATOM     20  N   UNL     1       7.581   5.334  15.562  0.00  0.00    +0.000 NA
ATOM     21  O   UNL     1       7.379   5.176  17.877  0.00  0.00    +0.000 OA
ATOM     22  C   UNL     1       6.364   5.248  18.869  0.00  0.00    +0.000 C 
ATOM     23  C   UNL     1       5.238   4.199  18.779  0.00  0.00    +0.000 C 
ATOM     24  C   UNL     1       4.992   3.644  17.370  0.00  0.00    +0.000 C 
BRANCH  16  26
ATOM     25  O   UNL     1       6.793   4.077  12.352  0.00  0.00    +0.000 OA
ATOM     26  N   UNL     1       7.303   4.868  13.158  0.00  0.00    +0.000 N 
ATOM     27  O   UNL     1       8.147   5.732  12.885  0.00  0.00    +0.000 OA
ENDBRANCH  16  26
ENDBRANCH  15  23
ENDBRANCH   1  15
TORSDOF 7
ENDMDL
MODEL 8
REMARK VINA RESULT:      -7.5      6.465      8.140
REMARK  Name = 
REMARK  7 active torsions:
REMARK  status: ('A' for Active; 'I' for Inactive)
REMARK    1  A    between atoms: N_2  and  C_4
REMARK    2  A    between atoms: C_11  and  O_12
REMARK    3  A    between atoms: O_12  and  C_13
REMARK    4  A    between atoms: C_13  and  C_14
REMARK    5  A    between atoms: C_15  and  C_16
REMARK    6  A    between atoms: C_19  and  O_20
REMARK    7  A    between atoms: O_20  and  C_21
REMARK                            x       y       z     vdW  Elec       q    Type
REMARK                         _______ _______ _______ _____ _____    ______ ____
ROOT
ATOM      1  C   UNL     1       7.974   7.866  18.160  0.00  0.00    +0.000 C 
ENDROOT
BRANCH   1   2
ATOM      2  C   UNL     1       8.400   9.285  18.015  0.00  0.00    +0.000 C 
ATOM      3  C   UNL     1       9.173   9.923  18.908  0.00  0.00    +0.000 C 
BRANCH   3   4
ATOM      4  C   UNL     1       9.595  11.316  18.772  0.00  0.00    +0.000 A 
ATOM      5  C   UNL     1       9.278  12.293  19.725  0.00  0.00    +0.000 A 
ATOM      6  C   UNL     1       9.717  13.607  19.563  0.00  0.00    +0.000 A 
ATOM      7  C   UNL     1      10.500  13.966  18.465  0.00  0.00    +0.000 A 
ATOM      8  C   UNL     1      10.801  13.008  17.499  0.00  0.00    +0.000 A 
ATOM      9  C   UNL     1      10.366  11.684  17.666  0.00  0.00    +0.000 A 
BRANCH   7  10
ATOM     10  O   UNL     1      10.855  15.278  18.425  0.00  0.00    +0.000 OA
BRANCH  10  11
ATOM     11  C   UNL     1      10.194  16.154  17.529  0.00  0.00    +0.000 C 
ATOM     12  F   UNL     1       8.900  15.842  17.291  0.00  0.00    +0.000 F 
ATOM     13  F   UNL     1      10.249  17.414  18.016  0.00  0.00    +0.000 F 
ATOM     14  F   UNL     1      10.846  16.132  16.346  0.00  0.00    +0.000 F 
ENDBRANCH  10  11
ENDBRANCH   7  10
ENDBRANCH   3   4
ENDBRANCH   1   2
BRANCH   1  15
ATOM     15  O   UNL     1       7.276   7.528  16.967  0.00  0.00    +0.000 OA
BRANCH  15  23
ATOM     16  C   UNL     1       3.073   4.722  19.160  0.00  0.00    +0.000 A 
ATOM     17  C   UNL     1       4.307   5.151  19.618  0.00  0.00    +0.000 A 
ATOM     18  N   UNL     1       5.005   5.419  18.477  0.00  0.00    +0.000 N 
ATOM     19  C   UNL     1       4.217   5.113  17.410  0.00  0.00    +0.000 A 
ATOM     20  N   UNL     1       3.028   4.709  17.779  0.00  0.00    +0.000 NA
ATOM     21  O   UNL     1       4.662   5.092  16.164  0.00  0.00    +0.000 OA
ATOM     22  C   UNL     1       5.686   6.037  15.882  0.00  0.00    +0.000 C 
ATOM     23  C   UNL     1       6.806   6.171  16.933  0.00  0.00    +0.000 C 
ATOM     24  C   UNL     1       6.395   5.785  18.360  0.00  0.00    +0.000 C 
BRANCH  16  26
ATOM     25  O   UNL     1       2.045   4.410  21.178  0.00  0.00    +0.000 OA
ATOM     26  N   UNL     1       1.954   4.260  19.951  0.00  0.00    +0.000 N 
ATOM     27  O   UNL     1       0.991   3.757  19.356  0.00  0.00    +0.000 OA
ENDBRANCH  16  26
ENDBRANCH  15  23
ENDBRANCH   1  15
TORSDOF 7
ENDMDL
MODEL 9
REMARK VINA RESULT:      -7.5      1.097      1.650
REMARK  Name = 
REMARK  7 active torsions:
REMARK  status: ('A' for Active; 'I' for Inactive)
REMARK    1  A    between atoms: N_2  and  C_4
REMARK    2  A    between atoms: C_11  and  O_12
REMARK    3  A    between atoms: O_12  and  C_13
REMARK    4  A    between atoms: C_13  and  C_14
REMARK    5  A    between atoms: C_15  and  C_16
REMARK    6  A    between atoms: C_19  and  O_20
REMARK    7  A    between atoms: O_20  and  C_21
REMARK                            x       y       z     vdW  Elec       q    Type
REMARK                         _______ _______ _______ _____ _____    ______ ____
ROOT
ATOM      1  C   UNL     1       1.739   3.807  20.839  0.00  0.00    +0.000 C 
ENDROOT
BRANCH   1   2
ATOM      2  C   UNL     1       1.349   5.174  20.396  0.00  0.00    +0.000 C 
ATOM      3  C   UNL     1       2.233   6.147  20.127  0.00  0.00    +0.000 C 
BRANCH   3   4
ATOM      4  C   UNL     1       1.856   7.491  19.691  0.00  0.00    +0.000 A 
ATOM      5  C   UNL     1       1.231   8.409  20.546  0.00  0.00    +0.000 A 
ATOM      6  C   UNL     1       0.905   9.688  20.092  0.00  0.00    +0.000 A 
ATOM      7  C   UNL     1       1.220  10.084  18.791  0.00  0.00    +0.000 A 
ATOM      8  C   UNL     1       1.819   9.170  17.926  0.00  0.00    +0.000 A 
ATOM      9  C   UNL     1       2.154   7.887  18.385  0.00  0.00    +0.000 A 
BRANCH   7  10
ATOM     10  O   UNL     1       0.842  11.352  18.477  0.00  0.00    +0.000 OA
BRANCH  10  11
ATOM     11  C   UNL     1       1.282  12.432  19.282  0.00  0.00    +0.000 C 
ATOM     12  F   UNL     1       0.457  12.739  20.308  0.00  0.00    +0.000 F 
ATOM     13  F   UNL     1       2.504  12.144  19.785  0.00  0.00    +0.000 F 
ATOM     14  F   UNL     1       1.396  13.530  18.504  0.00  0.00    +0.000 F 
ENDBRANCH  10  11
ENDBRANCH   7  10
ENDBRANCH   3   4
ENDBRANCH   1   2
BRANCH   1  15
ATOM     15  O   UNL     1       1.584   2.954  19.712  0.00  0.00    +0.000 OA
BRANCH  15  23
ATOM     16  C   UNL     1       5.977   5.122  17.193  0.00  0.00    +0.000 A 
ATOM     17  C   UNL     1       4.706   4.747  16.792  0.00  0.00    +0.000 A 
ATOM     18  N   UNL     1       4.277   3.923  17.790  0.00  0.00    +0.000 N 
ATOM     19  C   UNL     1       5.279   3.796  18.704  0.00  0.00    +0.000 A 
ATOM     20  N   UNL     1       6.320   4.526  18.392  0.00  0.00    +0.000 NA
ATOM     21  O   UNL     1       5.245   2.926  19.699  0.00  0.00    +0.000 OA
ATOM     22  C   UNL     1       3.947   2.664  20.216  0.00  0.00    +0.000 C 
ATOM     23  C   UNL     1       2.823   2.459  19.182  0.00  0.00    +0.000 C 
ATOM     24  C   UNL     1       3.061   3.149  17.832  0.00  0.00    +0.000 C 
BRANCH  16  26
ATOM     25  O   UNL     1       7.201   7.043  17.006  0.00  0.00    +0.000 OA
ATOM     26  N   UNL     1       6.915   5.959  16.477  0.00  0.00    +0.000 N 
ATOM     27  O   UNL     1       7.365   5.539  15.403  0.00  0.00    +0.000 OA
ENDBRANCH  16  26
ENDBRANCH  15  23
ENDBRANCH   1  15
TORSDOF 7
ENDMDL
