MODEL 1
REMARK VINA RESULT:      -7.1      0.000      0.000
REMARK  Name = 
REMARK  10 active torsions:
REMARK  status: ('A' for Active; 'I' for Inactive)
REMARK    1  A    between atoms: C_1  and  O_2
REMARK    2  A    between atoms: O_2  and  C_3
REMARK    3  A    between atoms: C_6  and  S_7
REMARK    4  A    between atoms: S_7  and  N_10
REMARK    5  A    between atoms: C_13  and  C_14
REMARK    6  A    between atoms: N_16  and  C_17
REMARK    7  A    between atoms: C_17  and  C_18
REMARK    8  A    between atoms: C_17  and  C_27
REMARK    9  A    between atoms: C_27  and  C_28
REMARK   10  A    between atoms: C_27  and  C_29
REMARK                            x       y       z     vdW  Elec       q    Type
REMARK                         _______ _______ _______ _____ _____    ______ ____
ROOT
ATOM      1  N   UNL     1       0.969  12.094  19.920  0.00  0.00    +0.000 NA
ATOM      2  C   UNL     1       0.955  11.042  18.877  0.00  0.00    +0.000 C 
ATOM      3  C   UNL     1      -0.239  10.107  19.034  0.00  0.00    +0.000 C 
ATOM      4  C   UNL     1      -0.195   9.439  20.418  0.00  0.00    +0.000 C 
ATOM      5  C   UNL     1      -0.376  10.577  21.421  0.00  0.00    +0.000 C 
ATOM      6  C   UNL     1       0.686  11.675  21.314  0.00  0.00    +0.000 C 
ENDROOT
BRANCH   4   7
ATOM      7  C   UNL     1       1.059   8.528  20.586  0.00  0.00    +0.000 C 
ATOM      8  O   UNL     1       1.727   8.603  21.607  0.00  0.00    +0.000 OA
ATOM      9  N   UNL     1       1.392   7.704  19.521  0.00  0.00    +0.000 N 
ATOM     10  H   UNL     1       1.099   8.041  18.609  0.00  0.00    +0.000 HD
BRANCH   9  11
ATOM     11  C   UNL     1       2.588   6.799  19.452  0.00  0.00    +0.000 C 
BRANCH  11  12
ATOM     12  C   UNL     1       3.477   7.165  18.189  0.00  0.00    +0.000 C 
ATOM     13  O   UNL     1       3.051   8.024  17.399  0.00  0.00    +0.000 OA
ATOM     14  N   UNL     1       4.697   6.520  17.924  0.00  0.00    +0.000 N 
ATOM     15  C   UNL     1       5.506   7.016  16.798  0.00  0.00    +0.000 C 
ATOM     16  C   UNL     1       5.230   6.226  15.518  0.00  0.00    +0.000 C 
ATOM     17  C   UNL     1       5.872   4.839  15.478  0.00  0.00    +0.000 C 
ATOM     18  C   UNL     1       5.527   3.931  16.658  0.00  0.00    +0.000 C 
ATOM     19  C   UNL     1       6.131   4.418  17.969  0.00  0.00    +0.000 C 
ATOM     20  C   UNL     1       5.268   5.432  18.718  0.00  0.00    +0.000 C 
ENDBRANCH  11  12
BRANCH  11  21
ATOM     21  C   UNL     1       2.314   5.263  19.499  0.00  0.00    +0.000 C 
ATOM     22  C   UNL     1       1.384   4.890  20.663  0.00  0.00    +0.000 C 
ATOM     23  C   UNL     1       1.725   4.627  18.242  0.00  0.00    +0.000 C 
ENDBRANCH  11  21
ENDBRANCH   9  11
ENDBRANCH   4   7
BRANCH   1  24
ATOM     24  S   UNL     1       2.177  13.311  19.715  0.00  0.00    +0.000 S 
ATOM     25  O   UNL     1       3.006  12.896  18.599  0.00  0.00    +0.000 OA
ATOM     26  O   UNL     1       2.758  13.619  21.002  0.00  0.00    +0.000 OA
BRANCH  24  30
ATOM     27  C   UNL     1      -0.044  17.128  18.420  0.00  0.00    +0.000 A 
ATOM     28  C   UNL     1      -0.714  16.061  19.000  0.00  0.00    +0.000 A 
ATOM     29  C   UNL     1      -0.051  14.892  19.384  0.00  0.00    +0.000 A 
ATOM     30  C   UNL     1       1.316  14.780  19.168  0.00  0.00    +0.000 A 
ATOM     31  C   UNL     1       2.007  15.861  18.604  0.00  0.00    +0.000 A 
ATOM     32  C   UNL     1       1.327  17.028  18.227  0.00  0.00    +0.000 A 
BRANCH  27  34
ATOM     33  C   UNL     1      -1.915  18.441  18.968  0.00  0.00    +0.000 C 
ATOM     34  O   UNL     1      -0.833  18.191  18.080  0.00  0.00    +0.000 OA
ENDBRANCH  27  34
ENDBRANCH  24  30
ENDBRANCH   1  24
TORSDOF 7
ENDMDL
MODEL 2
REMARK VINA RESULT:      -7.1      4.176     10.188
REMARK  Name = 
REMARK  10 active torsions:
REMARK  status: ('A' for Active; 'I' for Inactive)
REMARK    1  A    between atoms: C_1  and  O_2
REMARK    2  A    between atoms: O_2  and  C_3
REMARK    3  A    between atoms: C_6  and  S_7
REMARK    4  A    between atoms: S_7  and  N_10
REMARK    5  A    between atoms: C_13  and  C_14
REMARK    6  A    between atoms: N_16  and  C_17
REMARK    7  A    between atoms: C_17  and  C_18
REMARK    8  A    between atoms: C_17  and  C_27
REMARK    9  A    between atoms: C_27  and  C_28
REMARK   10  A    between atoms: C_27  and  C_29
REMARK                            x       y       z     vdW  Elec       q    Type
REMARK                         _______ _______ _______ _____ _____    ______ ____
ROOT
ATOM      1  N   UNL     1       0.298  10.229  19.935  0.00  0.00    +0.000 NA
ATOM      2  C   UNL     1      -1.152  10.372  19.664  0.00  0.00    +0.000 C 
ATOM      3  C   UNL     1      -1.420  11.347  18.523  0.00  0.00    +0.000 C 
ATOM      4  C   UNL     1      -0.837  12.726  18.872  0.00  0.00    +0.000 C 
ATOM      5  C   UNL     1       0.674  12.518  18.945  0.00  0.00    +0.000 C 
ATOM      6  C   UNL     1       1.109  11.470  19.973  0.00  0.00    +0.000 C 
ENDROOT
BRANCH   4   7
ATOM      7  C   UNL     1      -1.536  13.355  20.115  0.00  0.00    +0.000 C 
ATOM      8  O   UNL     1      -0.867  13.664  21.091  0.00  0.00    +0.000 OA
ATOM      9  N   UNL     1      -2.917  13.482  20.071  0.00  0.00    +0.000 N 
ATOM     10  H   UNL     1      -3.392  12.805  19.481  0.00  0.00    +0.000 HD
BRANCH   9  11
ATOM     11  C   UNL     1      -3.786  14.002  21.180  0.00  0.00    +0.000 C 
BRANCH  11  12
ATOM     12  C   UNL     1      -5.024  13.034  21.403  0.00  0.00    +0.000 C 
ATOM     13  O   UNL     1      -5.100  12.415  22.477  0.00  0.00    +0.000 OA
ATOM     14  N   UNL     1      -6.001  12.832  20.413  0.00  0.00    +0.000 N 
ATOM     15  C   UNL     1      -7.173  12.013  20.762  0.00  0.00    +0.000 C 
ATOM     16  C   UNL     1      -6.981  10.553  20.352  0.00  0.00    +0.000 C 
ATOM     17  C   UNL     1      -7.136  10.288  18.855  0.00  0.00    +0.000 C 
ATOM     18  C   UNL     1      -6.243  11.137  17.950  0.00  0.00    +0.000 C 
ATOM     19  C   UNL     1      -6.633  12.611  17.958  0.00  0.00    +0.000 C 
ATOM     20  C   UNL     1      -5.983  13.425  19.076  0.00  0.00    +0.000 C 
ENDBRANCH  11  12
BRANCH  11  21
ATOM     21  C   UNL     1      -4.267  15.483  21.063  0.00  0.00    +0.000 C 
ATOM     22  C   UNL     1      -4.980  15.948  22.342  0.00  0.00    +0.000 C 
ATOM     23  C   UNL     1      -3.205  16.531  20.744  0.00  0.00    +0.000 C 
ENDBRANCH  11  21
ENDBRANCH   9  11
ENDBRANCH   4   7
BRANCH   1  24
ATOM     24  S   UNL     1       0.710   9.007  21.083  0.00  0.00    +0.000 S 
ATOM     25  O   UNL     1      -0.529   8.358  21.468  0.00  0.00    +0.000 OA
ATOM     26  O   UNL     1       1.595   9.574  22.075  0.00  0.00    +0.000 OA
BRANCH  24  30
ATOM     27  C   UNL     1       3.031   5.795  18.744  0.00  0.00    +0.000 A 
ATOM     28  C   UNL     1       2.478   5.528  19.990  0.00  0.00    +0.000 A 
ATOM     29  C   UNL     1       1.784   6.502  20.714  0.00  0.00    +0.000 A 
ATOM     30  C   UNL     1       1.651   7.779  20.187  0.00  0.00    +0.000 A 
ATOM     31  C   UNL     1       2.184   8.052  18.921  0.00  0.00    +0.000 A 
ATOM     32  C   UNL     1       2.876   7.064  18.206  0.00  0.00    +0.000 A 
BRANCH  27  34
ATOM     33  C   UNL     1       4.500   3.989  19.067  0.00  0.00    +0.000 C 
ATOM     34  O   UNL     1       3.698   4.748  18.172  0.00  0.00    +0.000 OA
ENDBRANCH  27  34
ENDBRANCH  24  30
ENDBRANCH   1  24
TORSDOF 7
ENDMDL
MODEL 3
REMARK VINA RESULT:      -7.0      4.182     10.061
REMARK  Name = 
REMARK  10 active torsions:
REMARK  status: ('A' for Active; 'I' for Inactive)
REMARK    1  A    between atoms: C_1  and  O_2
REMARK    2  A    between atoms: O_2  and  C_3
REMARK    3  A    between atoms: C_6  and  S_7
REMARK    4  A    between atoms: S_7  and  N_10
REMARK    5  A    between atoms: C_13  and  C_14
REMARK    6  A    between atoms: N_16  and  C_17
REMARK    7  A    between atoms: C_17  and  C_18
REMARK    8  A    between atoms: C_17  and  C_27
REMARK    9  A    between atoms: C_27  and  C_28
REMARK   10  A    between atoms: C_27  and  C_29
REMARK                            x       y       z     vdW  Elec       q    Type
REMARK                         _______ _______ _______ _____ _____    ______ ____
ROOT
ATOM      1  N   UNL     1       0.327  10.495  20.132  0.00  0.00    +0.000 NA
ATOM      2  C   UNL     1      -1.115  10.615  19.811  0.00  0.00    +0.000 C 
ATOM      3  C   UNL     1      -1.373  11.701  18.773  0.00  0.00    +0.000 C 
ATOM      4  C   UNL     1      -0.862  13.053  19.298  0.00  0.00    +0.000 C 
ATOM      5  C   UNL     1       0.652  12.892  19.418  0.00  0.00    +0.000 C 
ATOM      6  C   UNL     1       1.085  11.751  20.343  0.00  0.00    +0.000 C 
ENDROOT
BRANCH   4   7
ATOM      7  C   UNL     1      -1.637  13.515  20.569  0.00  0.00    +0.000 C 
ATOM      8  O   UNL     1      -1.024  13.730  21.604  0.00  0.00    +0.000 OA
ATOM      9  N   UNL     1      -3.019  13.603  20.473  0.00  0.00    +0.000 N 
ATOM     10  H   UNL     1      -3.442  12.984  19.788  0.00  0.00    +0.000 HD
BRANCH   9  11
ATOM     11  C   UNL     1      -3.955  13.966  21.589  0.00  0.00    +0.000 C 
BRANCH  11  12
ATOM     12  C   UNL     1      -5.194  12.975  21.608  0.00  0.00    +0.000 C 
ATOM     13  O   UNL     1      -5.385  12.293  22.629  0.00  0.00    +0.000 OA
ATOM     14  N   UNL     1      -6.043  12.822  20.499  0.00  0.00    +0.000 N 
ATOM     15  C   UNL     1      -7.235  11.973  20.659  0.00  0.00    +0.000 C 
ATOM     16  C   UNL     1      -6.971  10.541  20.192  0.00  0.00    +0.000 C 
ATOM     17  C   UNL     1      -6.944  10.363  18.674  0.00  0.00    +0.000 C 
ATOM     18  C   UNL     1      -5.965  11.273  17.932  0.00  0.00    +0.000 C 
ATOM     19  C   UNL     1      -6.378  12.740  17.978  0.00  0.00    +0.000 C 
ATOM     20  C   UNL     1      -5.878  13.493  19.210  0.00  0.00    +0.000 C 
ENDBRANCH  11  12
BRANCH  11  21
ATOM     21  C   UNL     1      -4.442  15.448  21.647  0.00  0.00    +0.000 C 
ATOM     22  C   UNL     1      -4.072  16.114  22.981  0.00  0.00    +0.000 C 
ATOM     23  C   UNL     1      -3.956  16.379  20.539  0.00  0.00    +0.000 C 
ENDBRANCH  11  21
ENDBRANCH   9  11
ENDBRANCH   4   7
BRANCH   1  24
ATOM     24  S   UNL     1       0.739   9.167  21.157  0.00  0.00    +0.000 S 
ATOM     25  O   UNL     1      -0.507   8.530  21.540  0.00  0.00    +0.000 OA
ATOM     26  O   UNL     1       1.682   9.620  22.154  0.00  0.00    +0.000 OA
BRANCH  24  30
ATOM     27  C   UNL     1       3.052   6.185  18.525  0.00  0.00    +0.000 A 
ATOM     28  C   UNL     1       2.769   7.471  18.087  0.00  0.00    +0.000 A 
ATOM     29  C   UNL     1       2.054   8.380  18.873  0.00  0.00    +0.000 A 
ATOM     30  C   UNL     1       1.598   7.988  20.124  0.00  0.00    +0.000 A 
ATOM     31  C   UNL     1       1.898   6.699  20.586  0.00  0.00    +0.000 A 
ATOM     32  C   UNL     1       2.618   5.801  19.786  0.00  0.00    +0.000 A 
BRANCH  27  34
ATOM     33  C   UNL     1       4.698   6.105  16.848  0.00  0.00    +0.000 C 
ATOM     34  O   UNL     1       3.738   5.409  17.634  0.00  0.00    +0.000 OA
ENDBRANCH  27  34
ENDBRANCH  24  30
ENDBRANCH   1  24
TORSDOF 7
ENDMDL
MODEL 4
REMARK VINA RESULT:      -6.9      3.874     10.752
REMARK  Name = 
REMARK  10 active torsions:
REMARK  status: ('A' for Active; 'I' for Inactive)
REMARK    1  A    between atoms: C_1  and  O_2
REMARK    2  A    between atoms: O_2  and  C_3
REMARK    3  A    between atoms: C_6  and  S_7
REMARK    4  A    between atoms: S_7  and  N_10
REMARK    5  A    between atoms: C_13  and  C_14
REMARK    6  A    between atoms: N_16  and  C_17
REMARK    7  A    between atoms: C_17  and  C_18
REMARK    8  A    between atoms: C_17  and  C_27
REMARK    9  A    between atoms: C_27  and  C_28
REMARK   10  A    between atoms: C_27  and  C_29
REMARK                            x       y       z     vdW  Elec       q    Type
REMARK                         _______ _______ _______ _____ _____    ______ ____
ROOT
ATOM      1  N   UNL     1       0.397  10.220  20.048  0.00  0.00    +0.000 NA
ATOM      2  C   UNL     1      -0.880  10.055  19.315  0.00  0.00    +0.000 C 
ATOM      3  C   UNL     1      -1.044  11.108  18.224  0.00  0.00    +0.000 C 
ATOM      4  C   UNL     1      -1.003  12.512  18.849  0.00  0.00    +0.000 C 
ATOM      5  C   UNL     1       0.409  12.661  19.412  0.00  0.00    +0.000 C 
ATOM      6  C   UNL     1       0.780  11.596  20.448  0.00  0.00    +0.000 C 
ENDROOT
BRANCH   4   7
ATOM      7  C   UNL     1      -2.194  12.750  19.825  0.00  0.00    +0.000 C 
ATOM      8  O   UNL     1      -3.325  12.432  19.487  0.00  0.00    +0.000 OA
ATOM      9  N   UNL     1      -1.911  13.378  21.030  0.00  0.00    +0.000 N 
ATOM     10  H   UNL     1      -1.106  13.997  21.013  0.00  0.00    +0.000 HD
BRANCH   9  11
ATOM     11  C   UNL     1      -2.916  13.756  22.080  0.00  0.00    +0.000 C 
BRANCH  11  12
ATOM     12  C   UNL     1      -2.424  15.043  22.869  0.00  0.00    +0.000 C 
ATOM     13  O   UNL     1      -1.322  14.995  23.442  0.00  0.00    +0.000 OA
ATOM     14  N   UNL     1      -3.211  16.202  22.968  0.00  0.00    +0.000 N 
ATOM     15  C   UNL     1      -2.615  17.383  23.615  0.00  0.00    +0.000 C 
ATOM     16  C   UNL     1      -2.975  17.453  25.099  0.00  0.00    +0.000 C 
ATOM     17  C   UNL     1      -4.405  17.913  25.384  0.00  0.00    +0.000 C 
ATOM     18  C   UNL     1      -5.498  17.105  24.686  0.00  0.00    +0.000 C 
ATOM     19  C   UNL     1      -5.497  17.299  23.174  0.00  0.00    +0.000 C 
ATOM     20  C   UNL     1      -4.559  16.358  22.422  0.00  0.00    +0.000 C 
ENDBRANCH  11  12
BRANCH  11  21
ATOM     21  C   UNL     1      -3.347  12.636  23.079  0.00  0.00    +0.000 C 
ATOM     22  C   UNL     1      -2.204  11.644  23.343  0.00  0.00    +0.000 C 
ATOM     23  C   UNL     1      -3.863  13.088  24.443  0.00  0.00    +0.000 C 
ENDBRANCH  11  21
ENDBRANCH   9  11
ENDBRANCH   4   7
BRANCH   1  24
ATOM     24  S   UNL     1       0.760   8.964  21.177  0.00  0.00    +0.000 S 
ATOM     25  O   UNL     1      -0.508   8.393  21.591  0.00  0.00    +0.000 OA
ATOM     26  O   UNL     1       1.705   9.465  22.149  0.00  0.00    +0.000 OA
BRANCH  24  30
ATOM     27  C   UNL     1       3.015   5.718  18.821  0.00  0.00    +0.000 A 
ATOM     28  C   UNL     1       2.901   7.015  18.341  0.00  0.00    +0.000 A 
ATOM     29  C   UNL     1       2.206   8.005  19.043  0.00  0.00    +0.000 A 
ATOM     30  C   UNL     1       1.596   7.686  20.247  0.00  0.00    +0.000 A 
ATOM     31  C   UNL     1       1.724   6.385  20.753  0.00  0.00    +0.000 A 
ATOM     32  C   UNL     1       2.427   5.405  20.038  0.00  0.00    +0.000 A 
BRANCH  27  34
ATOM     33  C   UNL     1       4.577   5.489  17.079  0.00  0.00    +0.000 C 
ATOM     34  O   UNL     1       3.706   4.860  18.011  0.00  0.00    +0.000 OA
ENDBRANCH  27  34
ENDBRANCH  24  30
ENDBRANCH   1  24
TORSDOF 7
ENDMDL
MODEL 5
REMARK VINA RESULT:      -6.9      3.404      4.826
REMARK  Name = 
REMARK  10 active torsions:
REMARK  status: ('A' for Active; 'I' for Inactive)
REMARK    1  A    between atoms: C_1  and  O_2
REMARK    2  A    between atoms: O_2  and  C_3
REMARK    3  A    between atoms: C_6  and  S_7
REMARK    4  A    between atoms: S_7  and  N_10
REMARK    5  A    between atoms: C_13  and  C_14
REMARK    6  A    between atoms: N_16  and  C_17
REMARK    7  A    between atoms: C_17  and  C_18
REMARK    8  A    between atoms: C_17  and  C_27
REMARK    9  A    between atoms: C_27  and  C_28
REMARK   10  A    between atoms: C_27  and  C_29
REMARK                            x       y       z     vdW  Elec       q    Type
REMARK                         _______ _______ _______ _____ _____    ______ ____
ROOT
ATOM      1  N   UNL     1      -0.578  11.547  21.700  0.00  0.00    +0.000 NA
ATOM      2  C   UNL     1      -1.062  10.282  22.300  0.00  0.00    +0.000 C 
ATOM      3  C   UNL     1       0.001   9.632  23.179  0.00  0.00    +0.000 C 
ATOM      4  C   UNL     1       1.259   9.342  22.343  0.00  0.00    +0.000 C 
ATOM      5  C   UNL     1       1.791  10.713  21.928  0.00  0.00    +0.000 C 
ATOM      6  C   UNL     1       0.790  11.552  21.129  0.00  0.00    +0.000 C 
ENDROOT
BRANCH   4   7
ATOM      7  C   UNL     1       0.981   8.308  21.211  0.00  0.00    +0.000 C 
ATOM      8  O   UNL     1      -0.163   7.928  21.009  0.00  0.00    +0.000 OA
ATOM      9  N   UNL     1       2.077   7.818  20.516  0.00  0.00    +0.000 N 
ATOM     10  H   UNL     1       2.950   7.814  21.036  0.00  0.00    +0.000 HD
BRANCH   9  11
ATOM     11  C   UNL     1       2.037   6.775  19.437  0.00  0.00    +0.000 C 
BRANCH  11  12
ATOM     12  C   UNL     1       2.965   5.548  19.828  0.00  0.00    +0.000 C 
ATOM     13  O   UNL     1       4.144   5.780  20.142  0.00  0.00    +0.000 OA
ATOM     14  N   UNL     1       2.502   4.222  19.790  0.00  0.00    +0.000 N 
ATOM     15  C   UNL     1       3.399   3.167  20.290  0.00  0.00    +0.000 C 
ATOM     16  C   UNL     1       4.206   2.532  19.157  0.00  0.00    +0.000 C 
ATOM     17  C   UNL     1       3.414   1.561  18.281  0.00  0.00    +0.000 C 
ATOM     18  C   UNL     1       2.138   2.135  17.667  0.00  0.00    +0.000 C 
ATOM     19  C   UNL     1       1.063   2.423  18.709  0.00  0.00    +0.000 C 
ATOM     20  C   UNL     1       1.170   3.804  19.353  0.00  0.00    +0.000 C 
ENDBRANCH  11  12
BRANCH  11  21
ATOM     21  C   UNL     1       2.351   7.252  17.983  0.00  0.00    +0.000 C 
ATOM     22  C   UNL     1       2.215   8.776  17.847  0.00  0.00    +0.000 C 
ATOM     23  C   UNL     1       3.716   6.877  17.412  0.00  0.00    +0.000 C 
ENDBRANCH  11  21
ENDBRANCH   9  11
ENDBRANCH   4   7
BRANCH   1  24
ATOM     24  S   UNL     1      -1.773  12.451  20.840  0.00  0.00    +0.000 S 
ATOM     25  O   UNL     1      -1.170  13.726  20.499  0.00  0.00    +0.000 OA
ATOM     26  O   UNL     1      -3.022  12.387  21.565  0.00  0.00    +0.000 OA
BRANCH  24  30
ATOM     27  C   UNL     1      -2.452  10.151  16.913  0.00  0.00    +0.000 A 
ATOM     28  C   UNL     1      -1.299   9.977  17.666  0.00  0.00    +0.000 A 
ATOM     29  C   UNL     1      -1.077  10.681  18.853  0.00  0.00    +0.000 A 
ATOM     30  C   UNL     1      -2.025  11.595  19.291  0.00  0.00    +0.000 A 
ATOM     31  C   UNL     1      -3.203  11.762  18.551  0.00  0.00    +0.000 A 
ATOM     32  C   UNL     1      -3.412  11.046  17.364  0.00  0.00    +0.000 A 
BRANCH  27  34
ATOM     33  C   UNL     1      -3.081  10.078  14.649  0.00  0.00    +0.000 C 
ATOM     34  O   UNL     1      -2.512   9.408  15.767  0.00  0.00    +0.000 OA
ENDBRANCH  27  34
ENDBRANCH  24  30
ENDBRANCH   1  24
TORSDOF 7
ENDMDL
MODEL 6
REMARK VINA RESULT:      -6.9      3.779     10.721
REMARK  Name = 
REMARK  10 active torsions:
REMARK  status: ('A' for Active; 'I' for Inactive)
REMARK    1  A    between atoms: C_1  and  O_2
REMARK    2  A    between atoms: O_2  and  C_3
REMARK    3  A    between atoms: C_6  and  S_7
REMARK    4  A    between atoms: S_7  and  N_10
REMARK    5  A    between atoms: C_13  and  C_14
REMARK    6  A    between atoms: N_16  and  C_17
REMARK    7  A    between atoms: C_17  and  C_18
REMARK    8  A    between atoms: C_17  and  C_27
REMARK    9  A    between atoms: C_27  and  C_28
REMARK   10  A    between atoms: C_27  and  C_29
REMARK                            x       y       z     vdW  Elec       q    Type
REMARK                         _______ _______ _______ _____ _____    ______ ____
ROOT
ATOM      1  N   UNL     1       0.438  10.210  19.999  0.00  0.00    +0.000 NA
ATOM      2  C   UNL     1      -0.909  10.088  19.392  0.00  0.00    +0.000 C 
ATOM      3  C   UNL     1      -1.126  11.119  18.290  0.00  0.00    +0.000 C 
ATOM      4  C   UNL     1      -0.962  12.535  18.866  0.00  0.00    +0.000 C 
ATOM      5  C   UNL     1       0.502  12.630  19.292  0.00  0.00    +0.000 C 
ATOM      6  C   UNL     1       0.920  11.574  20.320  0.00  0.00    +0.000 C 
ENDROOT
BRANCH   4   7
ATOM      7  C   UNL     1      -2.043  12.856  19.941  0.00  0.00    +0.000 C 
ATOM      8  O   UNL     1      -3.214  12.586  19.718  0.00  0.00    +0.000 OA
ATOM      9  N   UNL     1      -1.620  13.500  21.096  0.00  0.00    +0.000 N 
ATOM     10  H   UNL     1      -0.792  14.078  20.986  0.00  0.00    +0.000 HD
BRANCH   9  11
ATOM     11  C   UNL     1      -2.503  13.953  22.222  0.00  0.00    +0.000 C 
BRANCH  11  12
ATOM     12  C   UNL     1      -2.092  15.414  22.685  0.00  0.00    +0.000 C 
ATOM     13  O   UNL     1      -0.891  15.645  22.905  0.00  0.00    +0.000 OA
ATOM     14  N   UNL     1      -3.044  16.427  22.888  0.00  0.00    +0.000 N 
ATOM     15  C   UNL     1      -2.551  17.780  23.196  0.00  0.00    +0.000 C 
ATOM     16  C   UNL     1      -2.502  18.030  24.704  0.00  0.00    +0.000 C 
ATOM     17  C   UNL     1      -3.863  18.287  25.350  0.00  0.00    +0.000 C 
ATOM     18  C   UNL     1      -4.913  17.205  25.101  0.00  0.00    +0.000 C 
ATOM     19  C   UNL     1      -5.364  17.148  23.646  0.00  0.00    +0.000 C 
ATOM     20  C   UNL     1      -4.492  16.266  22.754  0.00  0.00    +0.000 C 
ENDBRANCH  11  12
BRANCH  11  21
ATOM     21  C   UNL     1      -2.616  13.003  23.456  0.00  0.00    +0.000 C 
ATOM     22  C   UNL     1      -4.081  12.765  23.854  0.00  0.00    +0.000 C 
ATOM     23  C   UNL     1      -1.963  11.628  23.331  0.00  0.00    +0.000 C 
ENDBRANCH  11  21
ENDBRANCH   9  11
ENDBRANCH   4   7
BRANCH   1  24
ATOM     24  S   UNL     1       0.846   8.966  21.126  0.00  0.00    +0.000 S 
ATOM     25  O   UNL     1      -0.401   8.358  21.551  0.00  0.00    +0.000 OA
ATOM     26  O   UNL     1       1.784   9.495  22.090  0.00  0.00    +0.000 OA
BRANCH  24  30
ATOM     27  C   UNL     1       2.969   5.691  18.688  0.00  0.00    +0.000 A 
ATOM     28  C   UNL     1       2.420   5.427  19.935  0.00  0.00    +0.000 A 
ATOM     29  C   UNL     1       1.786   6.418  20.689  0.00  0.00    +0.000 A 
ATOM     30  C   UNL     1       1.712   7.711  20.191  0.00  0.00    +0.000 A 
ATOM     31  C   UNL     1       2.242   7.985  18.924  0.00  0.00    +0.000 A 
ATOM     32  C   UNL     1       2.873   6.979  18.178  0.00  0.00    +0.000 A 
BRANCH  27  34
ATOM     33  C   UNL     1       4.527   4.966  17.084  0.00  0.00    +0.000 C 
ATOM     34  O   UNL     1       3.575   4.625  18.084  0.00  0.00    +0.000 OA
ENDBRANCH  27  34
ENDBRANCH  24  30
ENDBRANCH   1  24
TORSDOF 7
ENDMDL
MODEL 7
REMARK VINA RESULT:      -6.8      3.429      9.424
REMARK  Name = 
REMARK  10 active torsions:
REMARK  status: ('A' for Active; 'I' for Inactive)
REMARK    1  A    between atoms: C_1  and  O_2
REMARK    2  A    between atoms: O_2  and  C_3
REMARK    3  A    between atoms: C_6  and  S_7
REMARK    4  A    between atoms: S_7  and  N_10
REMARK    5  A    between atoms: C_13  and  C_14
REMARK    6  A    between atoms: N_16  and  C_17
REMARK    7  A    between atoms: C_17  and  C_18
REMARK    8  A    between atoms: C_17  and  C_27
REMARK    9  A    between atoms: C_27  and  C_28
REMARK   10  A    between atoms: C_27  and  C_29
REMARK                            x       y       z     vdW  Elec       q    Type
REMARK                         _______ _______ _______ _____ _____    ______ ____
ROOT
ATOM      1  N   UNL     1       2.681   3.536  18.991  0.00  0.00    +0.000 NA
ATOM      2  C   UNL     1       3.552   4.344  19.876  0.00  0.00    +0.000 C 
ATOM      3  C   UNL     1       2.884   4.634  21.215  0.00  0.00    +0.000 C 
ATOM      4  C   UNL     1       1.566   5.391  20.983  0.00  0.00    +0.000 C 
ATOM      5  C   UNL     1       0.666   4.412  20.230  0.00  0.00    +0.000 C 
ATOM      6  C   UNL     1       1.253   3.925  18.902  0.00  0.00    +0.000 C 
ENDROOT
BRANCH   4   7
ATOM      7  C   UNL     1       1.803   6.789  20.337  0.00  0.00    +0.000 C 
ATOM      8  O   UNL     1       2.743   6.949  19.573  0.00  0.00    +0.000 OA
ATOM      9  N   UNL     1       0.950   7.817  20.718  0.00  0.00    +0.000 N 
ATOM     10  H   UNL     1       0.550   7.721  21.646  0.00  0.00    +0.000 HD
BRANCH   9  11
ATOM     11  C   UNL     1       1.042   9.245  20.266  0.00  0.00    +0.000 C 
BRANCH  11  12
ATOM     12  C   UNL     1       0.076  10.156  21.135  0.00  0.00    +0.000 C 
ATOM     13  O   UNL     1      -0.931   9.631  21.639  0.00  0.00    +0.000 OA
ATOM     14  N   UNL     1       0.307  11.531  21.312  0.00  0.00    +0.000 N 
ATOM     15  C   UNL     1      -0.577  12.262  22.236  0.00  0.00    +0.000 C 
ATOM     16  C   UNL     1      -1.738  12.925  21.496  0.00  0.00    +0.000 C 
ATOM     17  C   UNL     1      -1.360  14.188  20.723  0.00  0.00    +0.000 C 
ATOM     18  C   UNL     1      -0.219  14.019  19.721  0.00  0.00    +0.000 C 
ATOM     19  C   UNL     1       1.122  13.761  20.398  0.00  0.00    +0.000 C 
ATOM     20  C   UNL     1       1.398  12.290  20.702  0.00  0.00    +0.000 C 
ENDBRANCH  11  12
BRANCH  11  21
ATOM     21  C   UNL     1       0.825   9.519  18.744  0.00  0.00    +0.000 C 
ATOM     22  C   UNL     1      -0.468  10.308  18.490  0.00  0.00    +0.000 C 
ATOM     23  C   UNL     1       1.943  10.253  18.007  0.00  0.00    +0.000 C 
ENDBRANCH  11  21
ENDBRANCH   9  11
ENDBRANCH   4   7
BRANCH   1  24
ATOM     24  S   UNL     1       3.423   3.000  17.526  0.00  0.00    +0.000 S 
ATOM     25  O   UNL     1       2.450   3.192  16.468  0.00  0.00    +0.000 OA
ATOM     26  O   UNL     1       4.031   1.709  17.754  0.00  0.00    +0.000 OA
BRANCH  24  30
ATOM     27  C   UNL     1       6.825   6.003  16.769  0.00  0.00    +0.000 A 
ATOM     28  C   UNL     1       5.493   6.387  16.710  0.00  0.00    +0.000 A 
ATOM     29  C   UNL     1       4.452   5.479  16.924  0.00  0.00    +0.000 A 
ATOM     30  C   UNL     1       4.750   4.149  17.190  0.00  0.00    +0.000 A 
ATOM     31  C   UNL     1       6.092   3.756  17.275  0.00  0.00    +0.000 A 
ATOM     32  C   UNL     1       7.125   4.680  17.060  0.00  0.00    +0.000 A 
BRANCH  27  34
ATOM     33  C   UNL     1       7.751   8.044  17.480  0.00  0.00    +0.000 C 
ATOM     34  O   UNL     1       7.726   7.000  16.515  0.00  0.00    +0.000 OA
ENDBRANCH  27  34
ENDBRANCH  24  30
ENDBRANCH   1  24
TORSDOF 7
ENDMDL
MODEL 8
REMARK VINA RESULT:      -6.7      4.194     10.921
REMARK  Name = 
REMARK  10 active torsions:
REMARK  status: ('A' for Active; 'I' for Inactive)
REMARK    1  A    between atoms: C_1  and  O_2
REMARK    2  A    between atoms: O_2  and  C_3
REMARK    3  A    between atoms: C_6  and  S_7
REMARK    4  A    between atoms: S_7  and  N_10
REMARK    5  A    between atoms: C_13  and  C_14
REMARK    6  A    between atoms: N_16  and  C_17
REMARK    7  A    between atoms: C_17  and  C_18
REMARK    8  A    between atoms: C_17  and  C_27
REMARK    9  A    between atoms: C_27  and  C_28
REMARK   10  A    between atoms: C_27  and  C_29
REMARK                            x       y       z     vdW  Elec       q    Type
REMARK                         _______ _______ _______ _____ _____    ______ ____
ROOT
ATOM      1  N   UNL     1       0.178  10.062  19.877  0.00  0.00    +0.000 NA
ATOM      2  C   UNL     1      -0.987   9.653  19.058  0.00  0.00    +0.000 C 
ATOM      3  C   UNL     1      -1.226  10.613  17.898  0.00  0.00    +0.000 C 
ATOM      4  C   UNL     1      -1.468  12.031  18.441  0.00  0.00    +0.000 C 
ATOM      5  C   UNL     1      -0.154  12.440  19.103  0.00  0.00    +0.000 C 
ATOM      6  C   UNL     1       0.296  11.499  20.224  0.00  0.00    +0.000 C 
ENDROOT
BRANCH   4   7
ATOM      7  C   UNL     1      -2.762  12.111  19.307  0.00  0.00    +0.000 C 
ATOM      8  O   UNL     1      -3.768  11.518  18.945  0.00  0.00    +0.000 OA
ATOM      9  N   UNL     1      -2.721  12.915  20.438  0.00  0.00    +0.000 N 
ATOM     10  H   UNL     1      -2.064  13.689  20.391  0.00  0.00    +0.000 HD
BRANCH   9  11
ATOM     11  C   UNL     1      -3.868  13.178  21.370  0.00  0.00    +0.000 C 
BRANCH  11  12
ATOM     12  C   UNL     1      -4.151  14.737  21.461  0.00  0.00    +0.000 C 
ATOM     13  O   UNL     1      -3.182  15.503  21.593  0.00  0.00    +0.000 OA
ATOM     14  N   UNL     1      -5.455  15.260  21.436  0.00  0.00    +0.000 N 
ATOM     15  C   UNL     1      -5.606  16.725  21.401  0.00  0.00    +0.000 C 
ATOM     16  C   UNL     1      -5.792  17.304  22.803  0.00  0.00    +0.000 C 
ATOM     17  C   UNL     1      -7.184  17.090  23.399  0.00  0.00    +0.000 C 
ATOM     18  C   UNL     1      -7.655  15.636  23.439  0.00  0.00    +0.000 C 
ATOM     19  C   UNL     1      -7.916  15.066  22.050  0.00  0.00    +0.000 C 
ATOM     20  C   UNL     1      -6.683  14.468  21.376  0.00  0.00    +0.000 C 
ENDBRANCH  11  12
BRANCH  11  21
ATOM     21  C   UNL     1      -3.772  12.558  22.800  0.00  0.00    +0.000 C 
ATOM     22  C   UNL     1      -2.345  12.084  23.115  0.00  0.00    +0.000 C 
ATOM     23  C   UNL     1      -4.213  13.439  23.966  0.00  0.00    +0.000 C 
ENDBRANCH  11  21
ENDBRANCH   9  11
ENDBRANCH   4   7
BRANCH   1  24
ATOM     24  S   UNL     1       0.643   8.936  21.102  0.00  0.00    +0.000 S 
ATOM     25  O   UNL     1      -0.573   8.291  21.561  0.00  0.00    +0.000 OA
ATOM     26  O   UNL     1       1.536   9.593  22.029  0.00  0.00    +0.000 OA
BRANCH  24  30
ATOM     27  C   UNL     1       2.984   5.621  18.933  0.00  0.00    +0.000 A 
ATOM     28  C   UNL     1       2.307   5.374  20.119  0.00  0.00    +0.000 A 
ATOM     29  C   UNL     1       1.605   6.378  20.793  0.00  0.00    +0.000 A 
ATOM     30  C   UNL     1       1.592   7.665  20.276  0.00  0.00    +0.000 A 
ATOM     31  C   UNL     1       2.253   7.921  19.067  0.00  0.00    +0.000 A 
ATOM     32  C   UNL     1       2.950   6.903  18.402  0.00  0.00    +0.000 A 
BRANCH  27  34
ATOM     33  C   UNL     1       4.328   3.740  19.358  0.00  0.00    +0.000 C 
ATOM     34  O   UNL     1       3.642   4.544  18.407  0.00  0.00    +0.000 OA
ENDBRANCH  27  34
ENDBRANCH  24  30
ENDBRANCH   1  24
TORSDOF 7
ENDMDL
MODEL 9
REMARK VINA RESULT:      -6.6      3.998     10.543
REMARK  Name = 
REMARK  10 active torsions:
REMARK  status: ('A' for Active; 'I' for Inactive)
REMARK    1  A    between atoms: C_1  and  O_2
REMARK    2  A    between atoms: O_2  and  C_3
REMARK    3  A    between atoms: C_6  and  S_7
REMARK    4  A    between atoms: S_7  and  N_10
REMARK    5  A    between atoms: C_13  and  C_14
REMARK    6  A    between atoms: N_16  and  C_17
REMARK    7  A    between atoms: C_17  and  C_18
REMARK    8  A    between atoms: C_17  and  C_27
REMARK    9  A    between atoms: C_27  and  C_28
REMARK   10  A    between atoms: C_27  and  C_29
REMARK                            x       y       z     vdW  Elec       q    Type
REMARK                         _______ _______ _______ _____ _____    ______ ____
ROOT
ATOM      1  N   UNL     1       0.567  10.989  19.996  0.00  0.00    +0.000 NA
ATOM      2  C   UNL     1      -0.792  11.299  19.492  0.00  0.00    +0.000 C 
ATOM      3  C   UNL     1      -0.772  12.435  18.476  0.00  0.00    +0.000 C 
ATOM      4  C   UNL     1      -0.177  13.697  19.121  0.00  0.00    +0.000 C 
ATOM      5  C   UNL     1       1.276  13.344  19.433  0.00  0.00    +0.000 C 
ATOM      6  C   UNL     1       1.436  12.134  20.359  0.00  0.00    +0.000 C 
ENDROOT
BRANCH   4   7
ATOM      7  C   UNL     1      -1.056  14.220  20.297  0.00  0.00    +0.000 C 
ATOM      8  O   UNL     1      -0.563  14.352  21.407  0.00  0.00    +0.000 OA
ATOM      9  N   UNL     1      -2.397  14.460  20.029  0.00  0.00    +0.000 N 
ATOM     10  H   UNL     1      -2.791  13.901  19.278  0.00  0.00    +0.000 HD
BRANCH   9  11
ATOM     11  C   UNL     1      -3.425  14.905  21.028  0.00  0.00    +0.000 C 
BRANCH  11  12
ATOM     12  C   UNL     1      -4.755  14.054  20.860  0.00  0.00    +0.000 C 
ATOM     13  O   UNL     1      -5.428  14.215  19.827  0.00  0.00    +0.000 OA
ATOM     14  N   UNL     1      -5.203  13.168  21.853  0.00  0.00    +0.000 N 
ATOM     15  C   UNL     1      -6.379  12.334  21.549  0.00  0.00    +0.000 C 
ATOM     16  C   UNL     1      -7.670  12.978  22.055  0.00  0.00    +0.000 C 
ATOM     17  C   UNL     1      -7.881  12.873  23.566  0.00  0.00    +0.000 C 
ATOM     18  C   UNL     1      -6.735  13.416  24.420  0.00  0.00    +0.000 C 
ATOM     19  C   UNL     1      -5.471  12.570  24.311  0.00  0.00    +0.000 C 
ATOM     20  C   UNL     1      -4.559  12.953  23.148  0.00  0.00    +0.000 C 
ENDBRANCH  11  12
BRANCH  11  21
ATOM     21  C   UNL     1      -3.756  16.430  21.068  0.00  0.00    +0.000 C 
ATOM     22  C   UNL     1      -3.303  17.073  22.388  0.00  0.00    +0.000 C 
ATOM     23  C   UNL     1      -3.190  17.290  19.941  0.00  0.00    +0.000 C 
ENDBRANCH  11  21
ENDBRANCH   9  11
ENDBRANCH   4   7
BRANCH   1  24
ATOM     24  S   UNL     1       0.671   9.595  21.009  0.00  0.00    +0.000 S 
ATOM     25  O   UNL     1      -0.687   9.132  21.227  0.00  0.00    +0.000 OA
ATOM     26  O   UNL     1       1.547   9.887  22.121  0.00  0.00    +0.000 OA
BRANCH  24  30
ATOM     27  C   UNL     1       2.837   6.384  18.525  0.00  0.00    +0.000 A 
ATOM     28  C   UNL     1       2.643   7.669  18.038  0.00  0.00    +0.000 A 
ATOM     29  C   UNL     1       1.974   8.647  18.779  0.00  0.00    +0.000 A 
ATOM     30  C   UNL     1       1.472   8.328  20.033  0.00  0.00    +0.000 A 
ATOM     31  C   UNL     1       1.682   7.041  20.544  0.00  0.00    +0.000 A 
ATOM     32  C   UNL     1       2.358   6.072  19.789  0.00  0.00    +0.000 A 
BRANCH  27  34
ATOM     33  C   UNL     1       3.870   4.290  18.247  0.00  0.00    +0.000 C 
ATOM     34  O   UNL     1       3.489   5.535  17.674  0.00  0.00    +0.000 OA
ENDBRANCH  27  34
ENDBRANCH  24  30
ENDBRANCH   1  24
TORSDOF 7
ENDMDL
