MODEL 1
REMARK VINA RESULT:      -7.9      0.000      0.000
REMARK  Name = 
REMARK  7 active torsions:
REMARK  status: ('A' for Active; 'I' for Inactive)
REMARK    1  A    between atoms: C_1  and  C_2
REMARK    2  A    between atoms: C_2  and  O_3
REMARK    3  A    between atoms: O_3  and  C_4
REMARK    4  A    between atoms: C_7  and  N_8
REMARK    5  A    between atoms: C_10  and  C_11
REMARK    6  A    between atoms: N_13  and  C_14
REMARK    7  A    between atoms: C_14  and  C_15
REMARK                            x       y       z     vdW  Elec       q    Type
REMARK                         _______ _______ _______ _____ _____    ______ ____
ROOT
ATOM      1  N   UNL     1       3.907   3.676  18.385  0.00  0.00    +0.000 N 
ATOM      2  C   UNL     1       2.545   4.146  18.265  0.00  0.00    +0.000 C 
ATOM      3  C   UNL     1       1.900   3.787  19.582  0.00  0.00    +0.000 C 
ATOM      4  C   UNL     1       2.679   2.591  20.090  0.00  0.00    +0.000 C 
ATOM      5  C   UNL     1       4.017   2.718  19.404  0.00  0.00    +0.000 C 
ATOM      6  O   UNL     1       4.988   2.063  19.747  0.00  0.00    +0.000 OA
ENDROOT
BRANCH   1  10
ATOM      7  C   UNL     1       6.978   4.868  15.690  0.00  0.00    +0.000 A 
ATOM      8  C   UNL     1       5.757   4.406  15.205  0.00  0.00    +0.000 A 
ATOM      9  C   UNL     1       4.745   4.003  16.089  0.00  0.00    +0.000 A 
ATOM     10  C   UNL     1       4.931   4.054  17.472  0.00  0.00    +0.000 A 
ATOM     11  C   UNL     1       6.180   4.491  17.942  0.00  0.00    +0.000 A 
ATOM     12  C   UNL     1       7.201   4.878  17.060  0.00  0.00    +0.000 A 
BRANCH   7  13
ATOM     13  O   UNL     1       7.870   5.263  14.737  0.00  0.00    +0.000 OA
BRANCH  13  15
ATOM     14  C   UNL     1       8.269   5.874  12.475  0.00  0.00    +0.000 C 
ATOM     15  C   UNL     1       7.554   4.899  13.393  0.00  0.00    +0.000 C 
ENDBRANCH  13  15
ENDBRANCH   7  13
ENDBRANCH   1  10
BRANCH   3  16
ATOM     16  C   UNL     1       1.932   4.952  20.552  0.00  0.00    +0.000 C 
ATOM     17  O   UNL     1       2.152   4.763  21.746  0.00  0.00    +0.000 OA
ATOM     18  N   UNL     1       1.705   6.204  20.028  0.00  0.00    +0.000 N 
ATOM     19  H   UNL     1       1.324   6.322  19.095  0.00  0.00    +0.000 HD
BRANCH  18  20
ATOM     20  C   UNL     1       1.656   7.329  20.925  0.00  0.00    +0.000 C 
BRANCH  20  21
ATOM     21  C   UNL     1       1.293   8.630  20.260  0.00  0.00    +0.000 A 
ATOM     22  C   UNL     1       1.601   8.829  18.891  0.00  0.00    +0.000 A 
ATOM     23  C   UNL     1       0.987   9.847  18.155  0.00  0.00    +0.000 A 
ATOM     24  C   UNL     1       0.053  10.616  18.808  0.00  0.00    +0.000 A 
ATOM     25  C   UNL     1      -0.187  10.483  20.159  0.00  0.00    +0.000 A 
ATOM     26  C   UNL     1       0.448   9.533  20.924  0.00  0.00    +0.000 A 
ATOM     27  O   UNL     1      -1.211  11.278  20.576  0.00  0.00    +0.000 OA
ATOM     28  C   UNL     1      -1.777  11.612  19.295  0.00  0.00    +0.000 C 
ATOM     29  O   UNL     1      -0.817  11.489  18.224  0.00  0.00    +0.000 OA
ENDBRANCH  20  21
ENDBRANCH  18  20
ENDBRANCH   3  16
TORSDOF 6
ENDMDL
MODEL 2
REMARK VINA RESULT:      -7.7      2.586      9.496
REMARK  Name = 
REMARK  7 active torsions:
REMARK  status: ('A' for Active; 'I' for Inactive)
REMARK    1  A    between atoms: C_1  and  C_2
REMARK    2  A    between atoms: C_2  and  O_3
REMARK    3  A    between atoms: O_3  and  C_4
REMARK    4  A    between atoms: C_7  and  N_8
REMARK    5  A    between atoms: C_10  and  C_11
REMARK    6  A    between atoms: N_13  and  C_14
REMARK    7  A    between atoms: C_14  and  C_15
REMARK                            x       y       z     vdW  Elec       q    Type
REMARK                         _______ _______ _______ _____ _____    ______ ____
ROOT
ATOM      1  N   UNL     1      -0.172  10.005  19.217  0.00  0.00    +0.000 N 
ATOM      2  C   UNL     1       1.092  10.322  18.592  0.00  0.00    +0.000 C 
ATOM      3  C   UNL     1       2.076   9.360  19.213  0.00  0.00    +0.000 C 
ATOM      4  C   UNL     1       1.499   9.029  20.575  0.00  0.00    +0.000 C 
ATOM      5  C   UNL     1       0.024   9.299  20.413  0.00  0.00    +0.000 C 
ATOM      6  O   UNL     1      -0.799   8.923  21.232  0.00  0.00    +0.000 OA
ENDROOT
BRANCH   1  10
ATOM      7  C   UNL     1      -3.914  11.459  17.805  0.00  0.00    +0.000 A 
ATOM      8  C   UNL     1      -3.262  10.429  17.133  0.00  0.00    +0.000 A 
ATOM      9  C   UNL     1      -2.024   9.952  17.588  0.00  0.00    +0.000 A 
ATOM     10  C   UNL     1      -1.414  10.493  18.722  0.00  0.00    +0.000 A 
ATOM     11  C   UNL     1      -2.072  11.554  19.368  0.00  0.00    +0.000 A 
ATOM     12  C   UNL     1      -3.302  12.044  18.903  0.00  0.00    +0.000 A 
BRANCH   7  13
ATOM     13  O   UNL     1      -5.126  11.815  17.288  0.00  0.00    +0.000 OA
BRANCH  13  15
ATOM     14  C   UNL     1      -6.772  10.708  18.597  0.00  0.00    +0.000 C 
ATOM     15  C   UNL     1      -6.167  12.052  18.237  0.00  0.00    +0.000 C 
ENDBRANCH  13  15
ENDBRANCH   7  13
ENDBRANCH   1  10
BRANCH   3  16
ATOM     16  C   UNL     1       2.267   8.127  18.351  0.00  0.00    +0.000 C 
ATOM     17  O   UNL     1       2.405   8.233  17.135  0.00  0.00    +0.000 OA
ATOM     18  N   UNL     1       2.275   6.912  18.997  0.00  0.00    +0.000 N 
ATOM     19  H   UNL     1       1.955   6.824  19.956  0.00  0.00    +0.000 HD
BRANCH  18  20
ATOM     20  C   UNL     1       2.381   5.711  18.208  0.00  0.00    +0.000 C 
BRANCH  20  21
ATOM     21  C   UNL     1       3.768   5.130  18.156  0.00  0.00    +0.000 A 
ATOM     22  C   UNL     1       4.286   4.659  16.923  0.00  0.00    +0.000 A 
ATOM     23  C   UNL     1       5.657   4.443  16.754  0.00  0.00    +0.000 A 
ATOM     24  C   UNL     1       6.474   4.741  17.819  0.00  0.00    +0.000 A 
ATOM     25  C   UNL     1       5.969   5.116  19.045  0.00  0.00    +0.000 A 
ATOM     26  C   UNL     1       4.620   5.276  19.261  0.00  0.00    +0.000 A 
ATOM     27  O   UNL     1       6.956   5.450  19.923  0.00  0.00    +0.000 OA
ATOM     28  C   UNL     1       8.050   5.581  18.996  0.00  0.00    +0.000 C 
ATOM     29  O   UNL     1       7.835   4.826  17.785  0.00  0.00    +0.000 OA
ENDBRANCH  20  21
ENDBRANCH  18  20
ENDBRANCH   3  16
TORSDOF 6
ENDMDL
MODEL 3
REMARK VINA RESULT:      -7.7      1.789      2.439
REMARK  Name = 
REMARK  7 active torsions:
REMARK  status: ('A' for Active; 'I' for Inactive)
REMARK    1  A    between atoms: C_1  and  C_2
REMARK    2  A    between atoms: C_2  and  O_3
REMARK    3  A    between atoms: O_3  and  C_4
REMARK    4  A    between atoms: C_7  and  N_8
REMARK    5  A    between atoms: C_10  and  C_11
REMARK    6  A    between atoms: N_13  and  C_14
REMARK    7  A    between atoms: C_14  and  C_15
REMARK                            x       y       z     vdW  Elec       q    Type
REMARK                         _______ _______ _______ _____ _____    ______ ____
ROOT
ATOM      1  N   UNL     1       3.709   4.738  18.120  0.00  0.00    +0.000 N 
ATOM      2  C   UNL     1       2.322   5.143  18.098  0.00  0.00    +0.000 C 
ATOM      3  C   UNL     1       1.967   5.364  19.550  0.00  0.00    +0.000 C 
ATOM      4  C   UNL     1       2.906   4.464  20.327  0.00  0.00    +0.000 C 
ATOM      5  C   UNL     1       4.075   4.276  19.393  0.00  0.00    +0.000 C 
ATOM      6  O   UNL     1       5.135   3.800  19.767  0.00  0.00    +0.000 OA
ENDROOT
BRANCH   1  10
ATOM      7  C   UNL     1       6.059   4.639  14.573  0.00  0.00    +0.000 A 
ATOM      8  C   UNL     1       5.776   3.463  15.262  0.00  0.00    +0.000 A 
ATOM      9  C   UNL     1       5.010   3.491  16.436  0.00  0.00    +0.000 A 
ATOM     10  C   UNL     1       4.512   4.692  16.946  0.00  0.00    +0.000 A 
ATOM     11  C   UNL     1       4.835   5.872  16.255  0.00  0.00    +0.000 A 
ATOM     12  C   UNL     1       5.616   5.848  15.090  0.00  0.00    +0.000 A 
BRANCH   7  13
ATOM     13  O   UNL     1       6.784   4.483  13.428  0.00  0.00    +0.000 OA
BRANCH  13  15
ATOM     14  C   UNL     1       5.059   3.665  12.012  0.00  0.00    +0.000 C 
ATOM     15  C   UNL     1       6.424   3.372  12.605  0.00  0.00    +0.000 C 
ENDBRANCH  13  15
ENDBRANCH   7  13
ENDBRANCH   1  10
BRANCH   3  16
ATOM     16  C   UNL     1       2.108   6.823  19.940  0.00  0.00    +0.000 C 
ATOM     17  O   UNL     1       2.635   7.625  19.173  0.00  0.00    +0.000 OA
ATOM     18  N   UNL     1       1.622   7.186  21.176  0.00  0.00    +0.000 N 
ATOM     19  H   UNL     1       1.384   6.487  21.873  0.00  0.00    +0.000 HD
BRANCH  18  20
ATOM     20  C   UNL     1       1.800   8.545  21.616  0.00  0.00    +0.000 C 
BRANCH  20  21
ATOM     21  C   UNL     1       0.523   9.337  21.700  0.00  0.00    +0.000 A 
ATOM     22  C   UNL     1      -0.050   9.612  22.966  0.00  0.00    +0.000 A 
ATOM     23  C   UNL     1      -1.013  10.615  23.119  0.00  0.00    +0.000 A 
ATOM     24  C   UNL     1      -1.347  11.338  21.998  0.00  0.00    +0.000 A 
ATOM     25  C   UNL     1      -0.857  11.018  20.750  0.00  0.00    +0.000 A 
ATOM     26  C   UNL     1       0.043   9.997  20.558  0.00  0.00    +0.000 A 
ATOM     27  O   UNL     1      -1.244  11.919  19.804  0.00  0.00    +0.000 OA
ATOM     28  C   UNL     1      -1.698  12.977  20.669  0.00  0.00    +0.000 C 
ATOM     29  O   UNL     1      -2.073  12.492  21.976  0.00  0.00    +0.000 OA
ENDBRANCH  20  21
ENDBRANCH  18  20
ENDBRANCH   3  16
TORSDOF 6
ENDMDL
MODEL 4
REMARK VINA RESULT:      -7.6      0.996      1.626
REMARK  Name = 
REMARK  7 active torsions:
REMARK  status: ('A' for Active; 'I' for Inactive)
REMARK    1  A    between atoms: C_1  and  C_2
REMARK    2  A    between atoms: C_2  and  O_3
REMARK    3  A    between atoms: O_3  and  C_4
REMARK    4  A    between atoms: C_7  and  N_8
REMARK    5  A    between atoms: C_10  and  C_11
REMARK    6  A    between atoms: N_13  and  C_14
REMARK    7  A    between atoms: C_14  and  C_15
REMARK                            x       y       z     vdW  Elec       q    Type
REMARK                         _______ _______ _______ _____ _____    ______ ____
ROOT
ATOM      1  N   UNL     1       3.922   3.600  18.485  0.00  0.00    +0.000 N 
ATOM      2  C   UNL     1       2.553   4.048  18.366  0.00  0.00    +0.000 C 
ATOM      3  C   UNL     1       1.916   3.681  19.686  0.00  0.00    +0.000 C 
ATOM      4  C   UNL     1       2.716   2.499  20.194  0.00  0.00    +0.000 C 
ATOM      5  C   UNL     1       4.050   2.647  19.506  0.00  0.00    +0.000 C 
ATOM      6  O   UNL     1       5.032   2.008  19.848  0.00  0.00    +0.000 OA
ENDROOT
BRANCH   1  10
ATOM      7  C   UNL     1       6.963   4.841  15.778  0.00  0.00    +0.000 A 
ATOM      8  C   UNL     1       5.797   4.245  15.302  0.00  0.00    +0.000 A 
ATOM      9  C   UNL     1       4.797   3.826  16.190  0.00  0.00    +0.000 A 
ATOM     10  C   UNL     1       4.938   3.993  17.569  0.00  0.00    +0.000 A 
ATOM     11  C   UNL     1       6.134   4.566  18.033  0.00  0.00    +0.000 A 
ATOM     12  C   UNL     1       7.145   4.970  17.147  0.00  0.00    +0.000 A 
BRANCH   7  13
ATOM     13  O   UNL     1       7.848   5.236  14.818  0.00  0.00    +0.000 OA
BRANCH  13  15
ATOM     14  C   UNL     1       8.377   5.819  12.575  0.00  0.00    +0.000 C 
ATOM     15  C   UNL     1       7.446   5.016  13.465  0.00  0.00    +0.000 C 
ENDBRANCH  13  15
ENDBRANCH   7  13
ENDBRANCH   1  10
BRANCH   3  16
ATOM     16  C   UNL     1       1.931   4.848  20.653  0.00  0.00    +0.000 C 
ATOM     17  O   UNL     1       2.232   4.677  21.832  0.00  0.00    +0.000 OA
ATOM     18  N   UNL     1       1.594   6.082  20.144  0.00  0.00    +0.000 N 
ATOM     19  H   UNL     1       1.151   6.172  19.236  0.00  0.00    +0.000 HD
BRANCH  18  20
ATOM     20  C   UNL     1       1.525   7.204  21.044  0.00  0.00    +0.000 C 
BRANCH  20  21
ATOM     21  C   UNL     1       1.150   8.502  20.380  0.00  0.00    +0.000 A 
ATOM     22  C   UNL     1       0.505   9.515  21.134  0.00  0.00    +0.000 A 
ATOM     23  C   UNL     1       0.456  10.834  20.673  0.00  0.00    +0.000 A 
ATOM     24  C   UNL     1       1.089  11.106  19.483  0.00  0.00    +0.000 A 
ATOM     25  C   UNL     1       1.642  10.111  18.706  0.00  0.00    +0.000 A 
ATOM     26  C   UNL     1       1.650   8.794  19.102  0.00  0.00    +0.000 A 
ATOM     27  O   UNL     1       2.294  10.614  17.621  0.00  0.00    +0.000 OA
ATOM     28  C   UNL     1       2.379  11.994  18.025  0.00  0.00    +0.000 C 
ATOM     29  O   UNL     1       1.359  12.346  18.984  0.00  0.00    +0.000 OA
ENDBRANCH  20  21
ENDBRANCH  18  20
ENDBRANCH   3  16
TORSDOF 6
ENDMDL
MODEL 5
REMARK VINA RESULT:      -7.6      2.778     10.279
REMARK  Name = 
REMARK  7 active torsions:
REMARK  status: ('A' for Active; 'I' for Inactive)
REMARK    1  A    between atoms: C_1  and  C_2
REMARK    2  A    between atoms: C_2  and  O_3
REMARK    3  A    between atoms: O_3  and  C_4
REMARK    4  A    between atoms: C_7  and  N_8
REMARK    5  A    between atoms: C_10  and  C_11
REMARK    6  A    between atoms: N_13  and  C_14
REMARK    7  A    between atoms: C_14  and  C_15
REMARK                            x       y       z     vdW  Elec       q    Type
REMARK                         _______ _______ _______ _____ _____    ______ ____
ROOT
ATOM      1  N   UNL     1       0.128  11.043  19.695  0.00  0.00    +0.000 N 
ATOM      2  C   UNL     1      -0.177  10.017  18.724  0.00  0.00    +0.000 C 
ATOM      3  C   UNL     1       1.157   9.669  18.106  0.00  0.00    +0.000 C 
ATOM      4  C   UNL     1       1.998  10.920  18.255  0.00  0.00    +0.000 C 
ATOM      5  C   UNL     1       1.367  11.639  19.421  0.00  0.00    +0.000 C 
ATOM      6  O   UNL     1       1.916  12.573  19.982  0.00  0.00    +0.000 OA
ENDROOT
BRANCH   1  10
ATOM      7  C   UNL     1      -2.664  12.213  22.688  0.00  0.00    +0.000 A 
ATOM      8  C   UNL     1      -2.826  12.635  21.370  0.00  0.00    +0.000 A 
ATOM      9  C   UNL     1      -1.905  12.260  20.383  0.00  0.00    +0.000 A 
ATOM     10  C   UNL     1      -0.804  11.457  20.689  0.00  0.00    +0.000 A 
ATOM     11  C   UNL     1      -0.638  11.068  22.029  0.00  0.00    +0.000 A 
ATOM     12  C   UNL     1      -1.550  11.457  23.022  0.00  0.00    +0.000 A 
BRANCH   7  13
ATOM     13  O   UNL     1      -3.641  12.613  23.552  0.00  0.00    +0.000 OA
BRANCH  13  15
ATOM     14  C   UNL     1      -2.783  14.593  24.547  0.00  0.00    +0.000 C 
ATOM     15  C   UNL     1      -3.859  14.021  23.643  0.00  0.00    +0.000 C 
ENDBRANCH  13  15
ENDBRANCH   7  13
ENDBRANCH   1  10
BRANCH   3  16
ATOM     16  C   UNL     1       1.785   8.466  18.782  0.00  0.00    +0.000 C 
ATOM     17  O   UNL     1       1.727   8.336  20.002  0.00  0.00    +0.000 OA
ATOM     18  N   UNL     1       2.409   7.550  17.966  0.00  0.00    +0.000 N 
ATOM     19  H   UNL     1       2.629   7.770  17.000  0.00  0.00    +0.000 HD
BRANCH  18  20
ATOM     20  C   UNL     1       3.081   6.430  18.573  0.00  0.00    +0.000 C 
BRANCH  20  21
ATOM     21  C   UNL     1       4.476   6.197  18.059  0.00  0.00    +0.000 A 
ATOM     22  C   UNL     1       5.411   5.495  18.861  0.00  0.00    +0.000 A 
ATOM     23  C   UNL     1       6.576   4.958  18.304  0.00  0.00    +0.000 A 
ATOM     24  C   UNL     1       6.752   5.112  16.949  0.00  0.00    +0.000 A 
ATOM     25  C   UNL     1       5.891   5.867  16.182  0.00  0.00    +0.000 A 
ATOM     26  C   UNL     1       4.770   6.462  16.713  0.00  0.00    +0.000 A 
ATOM     27  O   UNL     1       6.203   5.809  14.857  0.00  0.00    +0.000 OA
ATOM     28  C   UNL     1       7.091   4.676  14.882  0.00  0.00    +0.000 C 
ATOM     29  O   UNL     1       7.682   4.473  16.184  0.00  0.00    +0.000 OA
ENDBRANCH  20  21
ENDBRANCH  18  20
ENDBRANCH   3  16
TORSDOF 6
ENDMDL
MODEL 6
REMARK VINA RESULT:      -7.6      0.941      1.612
REMARK  Name = 
REMARK  7 active torsions:
REMARK  status: ('A' for Active; 'I' for Inactive)
REMARK    1  A    between atoms: C_1  and  C_2
REMARK    2  A    between atoms: C_2  and  O_3
REMARK    3  A    between atoms: O_3  and  C_4
REMARK    4  A    between atoms: C_7  and  N_8
REMARK    5  A    between atoms: C_10  and  C_11
REMARK    6  A    between atoms: N_13  and  C_14
REMARK    7  A    between atoms: C_14  and  C_15
REMARK                            x       y       z     vdW  Elec       q    Type
REMARK                         _______ _______ _______ _____ _____    ______ ____
ROOT
ATOM      1  N   UNL     1       3.541   4.049  18.112  0.00  0.00    +0.000 N 
ATOM      2  C   UNL     1       2.329   4.834  18.058  0.00  0.00    +0.000 C 
ATOM      3  C   UNL     1       1.569   4.447  19.305  0.00  0.00    +0.000 C 
ATOM      4  C   UNL     1       2.034   3.043  19.631  0.00  0.00    +0.000 C 
ATOM      5  C   UNL     1       3.391   2.955  18.977  0.00  0.00    +0.000 C 
ATOM      6  O   UNL     1       4.173   2.050  19.222  0.00  0.00    +0.000 OA
ENDROOT
BRANCH   1  10
ATOM      7  C   UNL     1       6.888   4.887  15.620  0.00  0.00    +0.000 A 
ATOM      8  C   UNL     1       5.716   4.370  15.074  0.00  0.00    +0.000 A 
ATOM      9  C   UNL     1       4.614   4.083  15.891  0.00  0.00    +0.000 A 
ATOM     10  C   UNL     1       4.659   4.307  17.269  0.00  0.00    +0.000 A 
ATOM     11  C   UNL     1       5.860   4.799  17.807  0.00  0.00    +0.000 A 
ATOM     12  C   UNL     1       6.970   5.070  16.993  0.00  0.00    +0.000 A 
BRANCH   7  13
ATOM     13  O   UNL     1       7.879   5.158  14.722  0.00  0.00    +0.000 OA
BRANCH  13  15
ATOM     14  C   UNL     1       8.311   5.927  12.515  0.00  0.00    +0.000 C 
ATOM     15  C   UNL     1       7.570   4.901  13.351  0.00  0.00    +0.000 C 
ENDBRANCH  13  15
ENDBRANCH   7  13
ENDBRANCH   1  10
BRANCH   3  16
ATOM     16  C   UNL     1       1.830   5.421  20.439  0.00  0.00    +0.000 C 
ATOM     17  O   UNL     1       2.175   5.011  21.544  0.00  0.00    +0.000 OA
ATOM     18  N   UNL     1       1.660   6.758  20.161  0.00  0.00    +0.000 N 
ATOM     19  H   UNL     1       1.181   7.063  19.321  0.00  0.00    +0.000 HD
BRANCH  18  20
ATOM     20  C   UNL     1       1.828   7.711  21.227  0.00  0.00    +0.000 C 
BRANCH  20  21
ATOM     21  C   UNL     1       0.715   8.719  21.332  0.00  0.00    +0.000 A 
ATOM     22  C   UNL     1       0.250   9.122  22.609  0.00  0.00    +0.000 A 
ATOM     23  C   UNL     1      -0.513  10.283  22.764  0.00  0.00    +0.000 A 
ATOM     24  C   UNL     1      -0.759  11.027  21.633  0.00  0.00    +0.000 A 
ATOM     25  C   UNL     1      -0.383  10.595  20.379  0.00  0.00    +0.000 A 
ATOM     26  C   UNL     1       0.313   9.425  20.187  0.00  0.00    +0.000 A 
ATOM     27  O   UNL     1      -0.644  11.527  19.420  0.00  0.00    +0.000 OA
ATOM     28  C   UNL     1      -0.869  12.670  20.267  0.00  0.00    +0.000 C 
ATOM     29  O   UNL     1      -1.270  12.291  21.601  0.00  0.00    +0.000 OA
ENDBRANCH  20  21
ENDBRANCH  18  20
ENDBRANCH   3  16
TORSDOF 6
ENDMDL
MODEL 7
REMARK VINA RESULT:      -7.5      5.234      7.905
REMARK  Name = 
REMARK  7 active torsions:
REMARK  status: ('A' for Active; 'I' for Inactive)
REMARK    1  A    between atoms: C_1  and  C_2
REMARK    2  A    between atoms: C_2  and  O_3
REMARK    3  A    between atoms: O_3  and  C_4
REMARK    4  A    between atoms: C_7  and  N_8
REMARK    5  A    between atoms: C_10  and  C_11
REMARK    6  A    between atoms: N_13  and  C_14
REMARK    7  A    between atoms: C_14  and  C_15
REMARK                            x       y       z     vdW  Elec       q    Type
REMARK                         _______ _______ _______ _____ _____    ______ ____
ROOT
ATOM      1  N   UNL     1       5.647   4.570  17.227  0.00  0.00    +0.000 N 
ATOM      2  C   UNL     1       6.675   5.019  18.139  0.00  0.00    +0.000 C 
ATOM      3  C   UNL     1       7.627   5.814  17.277  0.00  0.00    +0.000 C 
ATOM      4  C   UNL     1       7.476   5.236  15.884  0.00  0.00    +0.000 C 
ATOM      5  C   UNL     1       6.097   4.624  15.900  0.00  0.00    +0.000 C 
ATOM      6  O   UNL     1       5.532   4.269  14.878  0.00  0.00    +0.000 OA
ENDROOT
BRANCH   1  10
ATOM      7  C   UNL     1       1.971   2.860  18.521  0.00  0.00    +0.000 A 
ATOM      8  C   UNL     1       2.040   4.211  18.188  0.00  0.00    +0.000 A 
ATOM      9  C   UNL     1       3.250   4.781  17.770  0.00  0.00    +0.000 A 
ATOM     10  C   UNL     1       4.415   4.016  17.676  0.00  0.00    +0.000 A 
ATOM     11  C   UNL     1       4.334   2.663  18.047  0.00  0.00    +0.000 A 
ATOM     12  C   UNL     1       3.127   2.095  18.483  0.00  0.00    +0.000 A 
BRANCH   7  13
ATOM     13  O   UNL     1       0.733   2.412  18.881  0.00  0.00    +0.000 OA
BRANCH  13  15
ATOM     14  C   UNL     1       1.194   2.772  21.184  0.00  0.00    +0.000 C 
ATOM     15  C   UNL     1       0.183   2.977  20.072  0.00  0.00    +0.000 C 
ENDBRANCH  13  15
ENDBRANCH   7  13
ENDBRANCH   1  10
BRANCH   3  16
ATOM     16  C   UNL     1       7.314   7.297  17.325  0.00  0.00    +0.000 C 
ATOM     17  O   UNL     1       6.276   7.730  16.830  0.00  0.00    +0.000 OA
ATOM     18  N   UNL     1       8.238   8.108  17.942  0.00  0.00    +0.000 N 
ATOM     19  H   UNL     1       9.171   7.773  18.156  0.00  0.00    +0.000 HD
BRANCH  18  20
ATOM     20  C   UNL     1       8.014   9.531  17.947  0.00  0.00    +0.000 C 
BRANCH  20  21
ATOM     21  C   UNL     1       9.127  10.327  18.572  0.00  0.00    +0.000 A 
ATOM     22  C   UNL     1      10.087  10.963  17.744  0.00  0.00    +0.000 A 
ATOM     23  C   UNL     1      10.910  11.977  18.243  0.00  0.00    +0.000 A 
ATOM     24  C   UNL     1      10.720  12.349  19.554  0.00  0.00    +0.000 A 
ATOM     25  C   UNL     1       9.851  11.677  20.385  0.00  0.00    +0.000 A 
ATOM     26  C   UNL     1       9.073  10.633  19.941  0.00  0.00    +0.000 A 
ATOM     27  O   UNL     1       9.754  12.269  21.608  0.00  0.00    +0.000 OA
ATOM     28  C   UNL     1      10.361  13.537  21.296  0.00  0.00    +0.000 C 
ATOM     29  O   UNL     1      11.243  13.455  20.156  0.00  0.00    +0.000 OA
ENDBRANCH  20  21
ENDBRANCH  18  20
ENDBRANCH   3  16
TORSDOF 6
ENDMDL
MODEL 8
REMARK VINA RESULT:      -7.5      0.838      1.240
REMARK  Name = 
REMARK  7 active torsions:
REMARK  status: ('A' for Active; 'I' for Inactive)
REMARK    1  A    between atoms: C_1  and  C_2
REMARK    2  A    between atoms: C_2  and  O_3
REMARK    3  A    between atoms: O_3  and  C_4
REMARK    4  A    between atoms: C_7  and  N_8
REMARK    5  A    between atoms: C_10  and  C_11
REMARK    6  A    between atoms: N_13  and  C_14
REMARK    7  A    between atoms: C_14  and  C_15
REMARK                            x       y       z     vdW  Elec       q    Type
REMARK                         _______ _______ _______ _____ _____    ______ ____
ROOT
ATOM      1  N   UNL     1       3.516   3.355  17.683  0.00  0.00    +0.000 N 
ATOM      2  C   UNL     1       2.170   3.870  17.575  0.00  0.00    +0.000 C 
ATOM      3  C   UNL     1       1.450   3.307  18.778  0.00  0.00    +0.000 C 
ATOM      4  C   UNL     1       2.184   2.025  19.114  0.00  0.00    +0.000 C 
ATOM      5  C   UNL     1       3.558   2.237  18.528  0.00  0.00    +0.000 C 
ATOM      6  O   UNL     1       4.501   1.511  18.803  0.00  0.00    +0.000 OA
ENDROOT
BRANCH   1  10
ATOM      7  C   UNL     1       6.738   4.800  15.307  0.00  0.00    +0.000 A 
ATOM      8  C   UNL     1       6.787   4.903  16.695  0.00  0.00    +0.000 A 
ATOM      9  C   UNL     1       5.724   4.437  17.482  0.00  0.00    +0.000 A 
ATOM     10  C   UNL     1       4.593   3.860  16.900  0.00  0.00    +0.000 A 
ATOM     11  C   UNL     1       4.548   3.793  15.498  0.00  0.00    +0.000 A 
ATOM     12  C   UNL     1       5.603   4.275  14.708  0.00  0.00    +0.000 A 
BRANCH   7  13
ATOM     13  O   UNL     1       7.844   5.256  14.651  0.00  0.00    +0.000 OA
BRANCH  13  15
ATOM     14  C   UNL     1       8.909   6.042  12.677  0.00  0.00    +0.000 C 
ATOM     15  C   UNL     1       7.823   5.138  13.228  0.00  0.00    +0.000 C 
ENDBRANCH  13  15
ENDBRANCH   7  13
ENDBRANCH   1  10
BRANCH   3  16
ATOM     16  C   UNL     1       1.446   4.290  19.933  0.00  0.00    +0.000 C 
ATOM     17  O   UNL     1       1.066   3.940  21.048  0.00  0.00    +0.000 OA
ATOM     18  N   UNL     1       1.882   5.567  19.664  0.00  0.00    +0.000 N 
ATOM     19  H   UNL     1       1.992   5.895  18.710  0.00  0.00    +0.000 HD
BRANCH  18  20
ATOM     20  C   UNL     1       1.827   6.551  20.714  0.00  0.00    +0.000 C 
BRANCH  20  21
ATOM     21  C   UNL     1       1.665   7.965  20.224  0.00  0.00    +0.000 A 
ATOM     22  C   UNL     1       2.010   8.289  18.888  0.00  0.00    +0.000 A 
ATOM     23  C   UNL     1       1.559   9.472  18.294  0.00  0.00    +0.000 A 
ATOM     24  C   UNL     1       0.743  10.280  19.050  0.00  0.00    +0.000 A 
ATOM     25  C   UNL     1       0.475  10.013  20.375  0.00  0.00    +0.000 A 
ATOM     26  C   UNL     1       0.956   8.890  21.006  0.00  0.00    +0.000 A 
ATOM     27  O   UNL     1      -0.426  10.890  20.900  0.00  0.00    +0.000 OA
ATOM     28  C   UNL     1      -0.925  11.464  19.677  0.00  0.00    +0.000 C 
ATOM     29  O   UNL     1       0.016  11.339  18.590  0.00  0.00    +0.000 OA
ENDBRANCH  20  21
ENDBRANCH  18  20
ENDBRANCH   3  16
TORSDOF 6
ENDMDL
MODEL 9
REMARK VINA RESULT:      -7.5      3.278      9.008
REMARK  Name = 
REMARK  7 active torsions:
REMARK  status: ('A' for Active; 'I' for Inactive)
REMARK    1  A    between atoms: C_1  and  C_2
REMARK    2  A    between atoms: C_2  and  O_3
REMARK    3  A    between atoms: O_3  and  C_4
REMARK    4  A    between atoms: C_7  and  N_8
REMARK    5  A    between atoms: C_10  and  C_11
REMARK    6  A    between atoms: N_13  and  C_14
REMARK    7  A    between atoms: C_14  and  C_15
REMARK                            x       y       z     vdW  Elec       q    Type
REMARK                         _______ _______ _______ _____ _____    ______ ____
ROOT
ATOM      1  N   UNL     1      -1.201  11.454  19.372  0.00  0.00    +0.000 N 
ATOM      2  C   UNL     1       0.243  11.407  19.400  0.00  0.00    +0.000 C 
ATOM      3  C   UNL     1       0.598  11.514  20.865  0.00  0.00    +0.000 C 
ATOM      4  C   UNL     1      -0.556  12.264  21.497  0.00  0.00    +0.000 C 
ATOM      5  C   UNL     1      -1.708  12.005  20.557  0.00  0.00    +0.000 C 
ATOM      6  O   UNL     1      -2.863  12.257  20.861  0.00  0.00    +0.000 OA
ENDROOT
BRANCH   1  10
ATOM      7  C   UNL     1      -3.396  10.440  15.869  0.00  0.00    +0.000 A 
ATOM      8  C   UNL     1      -3.865  11.428  16.731  0.00  0.00    +0.000 A 
ATOM      9  C   UNL     1      -3.150  11.759  17.891  0.00  0.00    +0.000 A 
ATOM     10  C   UNL     1      -1.955  11.112  18.213  0.00  0.00    +0.000 A 
ATOM     11  C   UNL     1      -1.515  10.096  17.349  0.00  0.00    +0.000 A 
ATOM     12  C   UNL     1      -2.238   9.750  16.197  0.00  0.00    +0.000 A 
BRANCH   7  13
ATOM     13  O   UNL     1      -4.158  10.229  14.757  0.00  0.00    +0.000 OA
BRANCH  13  15
ATOM     14  C   UNL     1      -4.461   9.828  12.434  0.00  0.00    +0.000 C 
ATOM     15  C   UNL     1      -3.445   9.927  13.556  0.00  0.00    +0.000 C 
ENDBRANCH  13  15
ENDBRANCH   7  13
ENDBRANCH   1  10
BRANCH   3  16
ATOM     16  C   UNL     1       0.810  10.147  21.486  0.00  0.00    +0.000 C 
ATOM     17  O   UNL     1       0.708   9.993  22.701  0.00  0.00    +0.000 OA
ATOM     18  N   UNL     1       1.115   9.115  20.629  0.00  0.00    +0.000 N 
ATOM     19  H   UNL     1       1.398   9.293  19.671  0.00  0.00    +0.000 HD
BRANCH  18  20
ATOM     20  C   UNL     1       1.394   7.816  21.184  0.00  0.00    +0.000 C 
BRANCH  20  21
ATOM     21  C   UNL     1       1.897   6.813  20.181  0.00  0.00    +0.000 A 
ATOM     22  C   UNL     1       2.451   7.262  18.956  0.00  0.00    +0.000 A 
ATOM     23  C   UNL     1       3.233   6.415  18.166  0.00  0.00    +0.000 A 
ATOM     24  C   UNL     1       3.467   5.148  18.647  0.00  0.00    +0.000 A 
ATOM     25  C   UNL     1       2.862   4.679  19.793  0.00  0.00    +0.000 A 
ATOM     26  C   UNL     1       2.036   5.468  20.559  0.00  0.00    +0.000 A 
ATOM     27  O   UNL     1       3.306   3.437  20.133  0.00  0.00    +0.000 OA
ATOM     28  C   UNL     1       4.475   3.375  19.294  0.00  0.00    +0.000 C 
ATOM     29  O   UNL     1       4.380   4.261  18.158  0.00  0.00    +0.000 OA
ENDBRANCH  20  21
ENDBRANCH  18  20
ENDBRANCH   3  16
TORSDOF 6
ENDMDL
