MODEL 1
REMARK VINA RESULT:      -7.0      0.000      0.000
REMARK  Name = 
REMARK  6 active torsions:
REMARK  status: ('A' for Active; 'I' for Inactive)
REMARK    1  A    between atoms: C_1  and  N_2
REMARK    2  A    between atoms: C_3  and  C_5
REMARK    3  A    between atoms: C_5  and  C_6
REMARK    4  A    between atoms: C_16  and  C_18
REMARK    5  A    between atoms: C_23  and  O_24
REMARK    6  A    between atoms: O_24  and  C_25
REMARK                            x       y       z     vdW  Elec       q    Type
REMARK                         _______ _______ _______ _____ _____    ______ ____
ROOT
ATOM      1  C   UNL     1       6.036   5.408  17.256  0.00  0.00    +0.000 C 
ATOM      2  C   UNL     1       5.924   6.964  17.308  0.00  0.00    +0.000 C 
ATOM      3  C   UNL     1       4.487   7.280  16.966  0.00  0.00    +0.000 C 
ATOM      4  C   UNL     1       3.716   6.097  17.515  0.00  0.00    +0.000 C 
ATOM      5  N   UNL     1       4.673   5.031  17.807  0.00  0.00    +0.000 N 
ATOM      6  C   UNL     1       4.318   3.768  18.318  0.00  0.00    +0.000 C 
ATOM      7  O   UNL     1       5.129   2.852  18.430  0.00  0.00    +0.000 OA
ENDROOT
BRANCH   1   8
ATOM      8  C   UNL     1       6.238   5.008  15.769  0.00  0.00    +0.000 A 
ATOM      9  C   UNL     1       5.457   3.998  15.189  0.00  0.00    +0.000 A 
ATOM     10  N   UNL     1       5.663   3.504  13.941  0.00  0.00    +0.000 NA
ATOM     11  C   UNL     1       6.697   4.044  13.269  0.00  0.00    +0.000 A 
ATOM     12  C   UNL     1       7.492   5.032  13.822  0.00  0.00    +0.000 A 
ATOM     13  N   UNL     1       7.293   5.529  15.071  0.00  0.00    +0.000 NA
ENDBRANCH   1   8
BRANCH   6  14
ATOM     14  C   UNL     1       2.911   3.503  18.772  0.00  0.00    +0.000 A 
ATOM     15  C   UNL     1       2.190   2.446  18.200  0.00  0.00    +0.000 A 
ATOM     16  C   UNL     1       0.858   2.220  18.540  0.00  0.00    +0.000 A 
ATOM     17  C   UNL     1       0.299   3.000  19.527  0.00  0.00    +0.000 A 
ATOM     18  N   UNL     1       0.982   3.958  20.178  0.00  0.00    +0.000 NA
ATOM     19  C   UNL     1       2.278   4.198  19.809  0.00  0.00    +0.000 A 
BRANCH  19  20
ATOM     20  O   UNL     1       2.927   5.201  20.496  0.00  0.00    +0.000 OA
ATOM     21  C   UNL     1       2.104   6.355  20.710  0.00  0.00    +0.000 C 
ENDBRANCH  19  20
ENDBRANCH   6  14
BRANCH   1  24
ATOM     22  C   UNL     1       8.486   5.317  20.256  0.00  0.00    +0.000 C 
ATOM     23  N   UNL     1       7.401   5.600  19.351  0.00  0.00    +0.000 N 
ATOM     24  C   UNL     1       7.326   5.075  18.093  0.00  0.00    +0.000 C 
ATOM     25  O   UNL     1       8.144   4.224  17.714  0.00  0.00    +0.000 OA
ATOM     26  H   UNL     1       6.743   6.343  19.605  0.00  0.00    +0.000 HD
ENDBRANCH   1  24
TORSDOF 4
ENDMDL
MODEL 2
REMARK VINA RESULT:      -6.8      1.075      1.786
REMARK  Name = 
REMARK  6 active torsions:
REMARK  status: ('A' for Active; 'I' for Inactive)
REMARK    1  A    between atoms: C_1  and  N_2
REMARK    2  A    between atoms: C_3  and  C_5
REMARK    3  A    between atoms: C_5  and  C_6
REMARK    4  A    between atoms: C_16  and  C_18
REMARK    5  A    between atoms: C_23  and  O_24
REMARK    6  A    between atoms: O_24  and  C_25
REMARK                            x       y       z     vdW  Elec       q    Type
REMARK                         _______ _______ _______ _____ _____    ______ ____
ROOT
ATOM      1  C   UNL     1       6.328   5.534  17.475  0.00  0.00    +0.000 C 
ATOM      2  C   UNL     1       6.383   7.093  17.454  0.00  0.00    +0.000 C 
ATOM      3  C   UNL     1       4.965   7.545  17.189  0.00  0.00    +0.000 C 
ATOM      4  C   UNL     1       4.115   6.477  17.848  0.00  0.00    +0.000 C 
ATOM      5  N   UNL     1       4.975   5.329  18.131  0.00  0.00    +0.000 N 
ATOM      6  C   UNL     1       4.528   4.135  18.729  0.00  0.00    +0.000 C 
ATOM      7  O   UNL     1       5.246   3.143  18.836  0.00  0.00    +0.000 OA
ENDROOT
BRANCH   1   8
ATOM      8  C   UNL     1       6.385   5.048  16.001  0.00  0.00    +0.000 A 
ATOM      9  C   UNL     1       5.602   3.964  15.576  0.00  0.00    +0.000 A 
ATOM     10  N   UNL     1       5.695   3.401  14.344  0.00  0.00    +0.000 NA
ATOM     11  C   UNL     1       6.613   3.948  13.526  0.00  0.00    +0.000 A 
ATOM     12  C   UNL     1       7.407   5.009  13.923  0.00  0.00    +0.000 A 
ATOM     13  N   UNL     1       7.322   5.576  15.156  0.00  0.00    +0.000 NA
ENDBRANCH   1   8
BRANCH   6  14
ATOM     14  C   UNL     1       3.136   4.042  19.286  0.00  0.00    +0.000 A 
ATOM     15  C   UNL     1       2.881   4.502  20.585  0.00  0.00    +0.000 A 
ATOM     16  C   UNL     1       1.621   4.359  21.162  0.00  0.00    +0.000 A 
ATOM     17  C   UNL     1       0.607   3.848  20.385  0.00  0.00    +0.000 A 
ATOM     18  N   UNL     1       0.777   3.490  19.100  0.00  0.00    +0.000 NA
ATOM     19  C   UNL     1       2.028   3.597  18.556  0.00  0.00    +0.000 A 
BRANCH  19  20
ATOM     20  O   UNL     1       2.153   3.201  17.241  0.00  0.00    +0.000 OA
ATOM     21  C   UNL     1       2.686   1.877  17.105  0.00  0.00    +0.000 C 
ENDBRANCH  19  20
ENDBRANCH   6  14
BRANCH   1  24
ATOM     22  C   UNL     1       8.898   5.212  20.357  0.00  0.00    +0.000 C 
ATOM     23  N   UNL     1       7.792   5.583  19.511  0.00  0.00    +0.000 N 
ATOM     24  C   UNL     1       7.632   5.102  18.243  0.00  0.00    +0.000 C 
ATOM     25  O   UNL     1       8.382   4.218  17.804  0.00  0.00    +0.000 OA
ATOM     26  H   UNL     1       7.190   6.354  19.815  0.00  0.00    +0.000 HD
ENDBRANCH   1  24
TORSDOF 4
ENDMDL
MODEL 3
REMARK VINA RESULT:      -6.7      1.932      5.975
REMARK  Name = 
REMARK  6 active torsions:
REMARK  status: ('A' for Active; 'I' for Inactive)
REMARK    1  A    between atoms: C_1  and  N_2
REMARK    2  A    between atoms: C_3  and  C_5
REMARK    3  A    between atoms: C_5  and  C_6
REMARK    4  A    between atoms: C_16  and  C_18
REMARK    5  A    between atoms: C_23  and  O_24
REMARK    6  A    between atoms: O_24  and  C_25
REMARK                            x       y       z     vdW  Elec       q    Type
REMARK                         _______ _______ _______ _____ _____    ______ ____
ROOT
ATOM      1  C   UNL     1       3.134   3.631  19.208  0.00  0.00    +0.000 C 
ATOM      2  C   UNL     1       1.898   2.875  18.629  0.00  0.00    +0.000 C 
ATOM      3  C   UNL     1       1.652   3.482  17.267  0.00  0.00    +0.000 C 
ATOM      4  C   UNL     1       3.037   3.867  16.787  0.00  0.00    +0.000 C 
ATOM      5  N   UNL     1       3.940   3.825  17.937  0.00  0.00    +0.000 N 
ATOM      6  C   UNL     1       5.311   4.139  17.876  0.00  0.00    +0.000 C 
ATOM      7  O   UNL     1       6.013   4.219  18.882  0.00  0.00    +0.000 OA
ENDROOT
BRANCH   1   8
ATOM      8  C   UNL     1       2.618   4.959  19.826  0.00  0.00    +0.000 A 
ATOM      9  C   UNL     1       1.473   4.972  20.637  0.00  0.00    +0.000 A 
ATOM     10  N   UNL     1       0.888   6.105  21.103  0.00  0.00    +0.000 NA
ATOM     11  C   UNL     1       1.475   7.256  20.725  0.00  0.00    +0.000 A 
ATOM     12  C   UNL     1       2.596   7.273  19.915  0.00  0.00    +0.000 A 
ATOM     13  N   UNL     1       3.186   6.142  19.444  0.00  0.00    +0.000 NA
ENDBRANCH   1   8
BRANCH   6  14
ATOM     14  C   UNL     1       5.977   4.372  16.551  0.00  0.00    +0.000 A 
ATOM     15  C   UNL     1       5.475   3.738  15.406  0.00  0.00    +0.000 A 
ATOM     16  C   UNL     1       6.114   3.868  14.175  0.00  0.00    +0.000 A 
ATOM     17  C   UNL     1       7.193   4.719  14.092  0.00  0.00    +0.000 A 
ATOM     18  N   UNL     1       7.648   5.429  15.138  0.00  0.00    +0.000 NA
ATOM     19  C   UNL     1       7.038   5.263  16.352  0.00  0.00    +0.000 A 
BRANCH  19  20
ATOM     20  O   UNL     1       7.554   6.002  17.396  0.00  0.00    +0.000 OA
ATOM     21  C   UNL     1       7.194   7.388  17.330  0.00  0.00    +0.000 C 
ENDBRANCH  19  20
ENDBRANCH   6  14
BRANCH   1  24
ATOM     22  C   UNL     1       5.446   1.080  20.987  0.00  0.00    +0.000 C 
ATOM     23  N   UNL     1       4.788   1.935  20.030  0.00  0.00    +0.000 N 
ATOM     24  C   UNL     1       3.687   2.682  20.335  0.00  0.00    +0.000 C 
ATOM     25  O   UNL     1       3.271   2.748  21.502  0.00  0.00    +0.000 OA
ATOM     26  H   UNL     1       5.064   1.859  19.047  0.00  0.00    +0.000 HD
ENDBRANCH   1  24
TORSDOF 4
ENDMDL
MODEL 4
REMARK VINA RESULT:      -6.6      1.396      2.230
REMARK  Name = 
REMARK  6 active torsions:
REMARK  status: ('A' for Active; 'I' for Inactive)
REMARK    1  A    between atoms: C_1  and  N_2
REMARK    2  A    between atoms: C_3  and  C_5
REMARK    3  A    between atoms: C_5  and  C_6
REMARK    4  A    between atoms: C_16  and  C_18
REMARK    5  A    between atoms: C_23  and  O_24
REMARK    6  A    between atoms: O_24  and  C_25
REMARK                            x       y       z     vdW  Elec       q    Type
REMARK                         _______ _______ _______ _____ _____    ______ ____
ROOT
ATOM      1  C   UNL     1       5.946   5.955  17.722  0.00  0.00    +0.000 C 
ATOM      2  C   UNL     1       5.462   7.394  17.363  0.00  0.00    +0.000 C 
ATOM      3  C   UNL     1       4.020   7.244  16.940  0.00  0.00    +0.000 C 
ATOM      4  C   UNL     1       3.516   6.085  17.776  0.00  0.00    +0.000 C 
ATOM      5  N   UNL     1       4.677   5.401  18.344  0.00  0.00    +0.000 N 
ATOM      6  C   UNL     1       4.599   4.262  19.167  0.00  0.00    +0.000 C 
ATOM      7  O   UNL     1       5.596   3.636  19.522  0.00  0.00    +0.000 OA
ENDROOT
BRANCH   1   8
ATOM      8  C   UNL     1       6.345   5.255  16.394  0.00  0.00    +0.000 A 
ATOM      9  C   UNL     1       7.242   5.867  15.506  0.00  0.00    +0.000 A 
ATOM     10  N   UNL     1       7.535   5.381  14.272  0.00  0.00    +0.000 NA
ATOM     11  C   UNL     1       6.892   4.250  13.929  0.00  0.00    +0.000 A 
ATOM     12  C   UNL     1       5.992   3.633  14.779  0.00  0.00    +0.000 A 
ATOM     13  N   UNL     1       5.693   4.115  16.015  0.00  0.00    +0.000 NA
ENDBRANCH   1   8
BRANCH   6  14
ATOM     14  C   UNL     1       3.267   3.778  19.666  0.00  0.00    +0.000 A 
ATOM     15  C   UNL     1       2.685   4.391  20.784  0.00  0.00    +0.000 A 
ATOM     16  C   UNL     1       1.491   3.918  21.321  0.00  0.00    +0.000 A 
ATOM     17  C   UNL     1       0.844   2.896  20.663  0.00  0.00    +0.000 A 
ATOM     18  N   UNL     1       1.310   2.345  19.529  0.00  0.00    +0.000 NA
ATOM     19  C   UNL     1       2.505   2.790  19.032  0.00  0.00    +0.000 A 
BRANCH  19  20
ATOM     20  O   UNL     1       2.946   2.181  17.877  0.00  0.00    +0.000 OA
ATOM     21  C   UNL     1       3.814   1.068  18.129  0.00  0.00    +0.000 C 
ENDBRANCH  19  20
ENDBRANCH   6  14
BRANCH   1  24
ATOM     22  C   UNL     1       8.684   5.232  20.366  0.00  0.00    +0.000 C 
ATOM     23  N   UNL     1       7.512   5.197  19.528  0.00  0.00    +0.000 N 
ATOM     24  C   UNL     1       7.215   6.178  18.625  0.00  0.00    +0.000 C 
ATOM     25  O   UNL     1       8.018   7.096  18.403  0.00  0.00    +0.000 OA
ATOM     26  H   UNL     1       6.798   4.490  19.726  0.00  0.00    +0.000 HD
ENDBRANCH   1  24
TORSDOF 4
ENDMDL
MODEL 5
REMARK VINA RESULT:      -6.5      1.612      2.198
REMARK  Name = 
REMARK  6 active torsions:
REMARK  status: ('A' for Active; 'I' for Inactive)
REMARK    1  A    between atoms: C_1  and  N_2
REMARK    2  A    between atoms: C_3  and  C_5
REMARK    3  A    between atoms: C_5  and  C_6
REMARK    4  A    between atoms: C_16  and  C_18
REMARK    5  A    between atoms: C_23  and  O_24
REMARK    6  A    between atoms: O_24  and  C_25
REMARK                            x       y       z     vdW  Elec       q    Type
REMARK                         _______ _______ _______ _____ _____    ______ ____
ROOT
ATOM      1  C   UNL     1       5.675   6.156  17.425  0.00  0.00    +0.000 C 
ATOM      2  C   UNL     1       4.977   7.517  17.114  0.00  0.00    +0.000 C 
ATOM      3  C   UNL     1       3.514   7.190  16.925  0.00  0.00    +0.000 C 
ATOM      4  C   UNL     1       3.283   6.016  17.855  0.00  0.00    +0.000 C 
ATOM      5  N   UNL     1       4.589   5.489  18.249  0.00  0.00    +0.000 N 
ATOM      6  C   UNL     1       4.770   4.382  19.100  0.00  0.00    +0.000 C 
ATOM      7  O   UNL     1       5.875   3.886  19.308  0.00  0.00    +0.000 OA
ENDROOT
BRANCH   1   8
ATOM      8  C   UNL     1       5.945   5.453  16.067  0.00  0.00    +0.000 A 
ATOM      9  C   UNL     1       5.153   4.371  15.653  0.00  0.00    +0.000 A 
ATOM     10  N   UNL     1       5.409   3.625  14.548  0.00  0.00    +0.000 NA
ATOM     11  C   UNL     1       6.504   3.981  13.850  0.00  0.00    +0.000 A 
ATOM     12  C   UNL     1       7.309   5.035  14.242  0.00  0.00    +0.000 A 
ATOM     13  N   UNL     1       7.060   5.785  15.349  0.00  0.00    +0.000 NA
ENDBRANCH   1   8
BRANCH   6  14
ATOM     14  C   UNL     1       3.596   3.773  19.810  0.00  0.00    +0.000 A 
ATOM     15  C   UNL     1       3.018   4.449  20.893  0.00  0.00    +0.000 A 
ATOM     16  C   UNL     1       1.980   3.878  21.624  0.00  0.00    +0.000 A 
ATOM     17  C   UNL     1       1.468   2.676  21.192  0.00  0.00    +0.000 A 
ATOM     18  N   UNL     1       1.919   2.038  20.099  0.00  0.00    +0.000 NA
ATOM     19  C   UNL     1       2.966   2.588  19.411  0.00  0.00    +0.000 A 
BRANCH  19  20
ATOM     20  O   UNL     1       3.402   1.887  18.307  0.00  0.00    +0.000 OA
ATOM     21  C   UNL     1       2.668   2.205  17.117  0.00  0.00    +0.000 C 
ENDBRANCH  19  20
ENDBRANCH   6  14
BRANCH   1  24
ATOM     22  C   UNL     1       8.657   8.358  18.551  0.00  0.00    +0.000 C 
ATOM     23  N   UNL     1       7.472   7.833  17.921  0.00  0.00    +0.000 N 
ATOM     24  C   UNL     1       7.032   6.555  18.114  0.00  0.00    +0.000 C 
ATOM     25  O   UNL     1       7.579   5.817  18.947  0.00  0.00    +0.000 OA
ATOM     26  H   UNL     1       7.033   8.389  17.182  0.00  0.00    +0.000 HD
ENDBRANCH   1  24
TORSDOF 4
ENDMDL
MODEL 6
REMARK VINA RESULT:      -6.2      0.999      1.284
REMARK  Name = 
REMARK  6 active torsions:
REMARK  status: ('A' for Active; 'I' for Inactive)
REMARK    1  A    between atoms: C_1  and  N_2
REMARK    2  A    between atoms: C_3  and  C_5
REMARK    3  A    between atoms: C_5  and  C_6
REMARK    4  A    between atoms: C_16  and  C_18
REMARK    5  A    between atoms: C_23  and  O_24
REMARK    6  A    between atoms: O_24  and  C_25
REMARK                            x       y       z     vdW  Elec       q    Type
REMARK                         _______ _______ _______ _____ _____    ______ ____
ROOT
ATOM      1  C   UNL     1       6.088   5.362  17.345  0.00  0.00    +0.000 C 
ATOM      2  C   UNL     1       5.929   6.911  17.442  0.00  0.00    +0.000 C 
ATOM      3  C   UNL     1       4.472   7.188  17.151  0.00  0.00    +0.000 C 
ATOM      4  C   UNL     1       3.756   5.967  17.691  0.00  0.00    +0.000 C 
ATOM      5  N   UNL     1       4.756   4.925  17.926  0.00  0.00    +0.000 N 
ATOM      6  C   UNL     1       4.457   3.639  18.414  0.00  0.00    +0.000 C 
ATOM      7  O   UNL     1       5.300   2.747  18.477  0.00  0.00    +0.000 OA
ENDROOT
BRANCH   1   8
ATOM      8  C   UNL     1       6.258   5.006  15.842  0.00  0.00    +0.000 A 
ATOM      9  C   UNL     1       5.465   4.012  15.249  0.00  0.00    +0.000 A 
ATOM     10  N   UNL     1       5.643   3.557  13.983  0.00  0.00    +0.000 NA
ATOM     11  C   UNL     1       6.662   4.118  13.305  0.00  0.00    +0.000 A 
ATOM     12  C   UNL     1       7.468   5.090  13.869  0.00  0.00    +0.000 A 
ATOM     13  N   UNL     1       7.296   5.550  15.137  0.00  0.00    +0.000 NA
ENDBRANCH   1   8
BRANCH   6  14
ATOM     14  C   UNL     1       3.074   3.317  18.902  0.00  0.00    +0.000 A 
ATOM     15  C   UNL     1       2.009   3.291  17.991  0.00  0.00    +0.000 A 
ATOM     16  C   UNL     1       0.703   3.074  18.420  0.00  0.00    +0.000 A 
ATOM     17  C   UNL     1       0.497   2.783  19.750  0.00  0.00    +0.000 A 
ATOM     18  N   UNL     1       1.498   2.693  20.643  0.00  0.00    +0.000 NA
ATOM     19  C   UNL     1       2.773   2.949  20.218  0.00  0.00    +0.000 A 
BRANCH  19  20
ATOM     20  O   UNL     1       3.760   2.860  21.177  0.00  0.00    +0.000 OA
ATOM     21  C   UNL     1       4.316   1.543  21.286  0.00  0.00    +0.000 C 
ENDBRANCH  19  20
ENDBRANCH   6  14
BRANCH   1  24
ATOM     22  C   UNL     1       8.637   5.288  20.261  0.00  0.00    +0.000 C 
ATOM     23  N   UNL     1       7.516   5.556  19.397  0.00  0.00    +0.000 N 
ATOM     24  C   UNL     1       7.413   5.049  18.133  0.00  0.00    +0.000 C 
ATOM     25  O   UNL     1       8.241   4.227  17.714  0.00  0.00    +0.000 OA
ATOM     26  H   UNL     1       6.847   6.277  19.685  0.00  0.00    +0.000 HD
ENDBRANCH   1  24
TORSDOF 4
ENDMDL
MODEL 7
REMARK VINA RESULT:      -6.1      8.145     10.532
REMARK  Name = 
REMARK  6 active torsions:
REMARK  status: ('A' for Active; 'I' for Inactive)
REMARK    1  A    between atoms: C_1  and  N_2
REMARK    2  A    between atoms: C_3  and  C_5
REMARK    3  A    between atoms: C_5  and  C_6
REMARK    4  A    between atoms: C_16  and  C_18
REMARK    5  A    between atoms: C_23  and  O_24
REMARK    6  A    between atoms: O_24  and  C_25
REMARK                            x       y       z     vdW  Elec       q    Type
REMARK                         _______ _______ _______ _____ _____    ______ ____
ROOT
ATOM      1  C   UNL     1      -0.477  12.356  21.234  0.00  0.00    +0.000 C 
ATOM      2  C   UNL     1      -0.863  13.310  22.406  0.00  0.00    +0.000 C 
ATOM      3  C   UNL     1      -1.717  14.391  21.786  0.00  0.00    +0.000 C 
ATOM      4  C   UNL     1      -2.435  13.681  20.656  0.00  0.00    +0.000 C 
ATOM      5  N   UNL     1      -1.760  12.405  20.425  0.00  0.00    +0.000 N 
ATOM      6  C   UNL     1      -2.141  11.478  19.436  0.00  0.00    +0.000 C 
ATOM      7  O   UNL     1      -1.476  10.476  19.182  0.00  0.00    +0.000 OA
ENDROOT
BRANCH   1   8
ATOM      8  C   UNL     1       0.741  12.986  20.506  0.00  0.00    +0.000 A 
ATOM      9  C   UNL     1       0.760  13.095  19.107  0.00  0.00    +0.000 A 
ATOM     10  N   UNL     1       1.838  13.511  18.394  0.00  0.00    +0.000 NA
ATOM     11  C   UNL     1       2.930  13.813  19.121  0.00  0.00    +0.000 A 
ATOM     12  C   UNL     1       2.944  13.702  20.499  0.00  0.00    +0.000 A 
ATOM     13  N   UNL     1       1.869  13.284  21.219  0.00  0.00    +0.000 NA
ENDBRANCH   1   8
BRANCH   6  14
ATOM     14  C   UNL     1      -3.410  11.679  18.658  0.00  0.00    +0.000 A 
ATOM     15  C   UNL     1      -4.564  12.116  19.322  0.00  0.00    +0.000 A 
ATOM     16  C   UNL     1      -5.777  12.237  18.648  0.00  0.00    +0.000 A 
ATOM     17  C   UNL     1      -5.789  12.014  17.290  0.00  0.00    +0.000 A 
ATOM     18  N   UNL     1      -4.686  11.694  16.590  0.00  0.00    +0.000 NA
ATOM     19  C   UNL     1      -3.508  11.538  17.269  0.00  0.00    +0.000 A 
BRANCH  19  20
ATOM     20  O   UNL     1      -2.411  11.194  16.508  0.00  0.00    +0.000 OA
ATOM     21  C   UNL     1      -2.754  10.408  15.358  0.00  0.00    +0.000 C 
ENDBRANCH  19  20
ENDBRANCH   6  14
BRANCH   1  24
ATOM     22  C   UNL     1       1.308   8.964  21.798  0.00  0.00    +0.000 C 
ATOM     23  N   UNL     1       0.784  10.189  21.248  0.00  0.00    +0.000 N 
ATOM     24  C   UNL     1      -0.059  11.012  21.937  0.00  0.00    +0.000 C 
ATOM     25  O   UNL     1      -0.319  10.795  23.130  0.00  0.00    +0.000 OA
ATOM     26  H   UNL     1       0.926  10.368  20.250  0.00  0.00    +0.000 HD
ENDBRANCH   1  24
TORSDOF 4
ENDMDL
MODEL 8
REMARK VINA RESULT:      -6.1      5.104      8.158
REMARK  Name = 
REMARK  6 active torsions:
REMARK  status: ('A' for Active; 'I' for Inactive)
REMARK    1  A    between atoms: C_1  and  N_2
REMARK    2  A    between atoms: C_3  and  C_5
REMARK    3  A    between atoms: C_5  and  C_6
REMARK    4  A    between atoms: C_16  and  C_18
REMARK    5  A    between atoms: C_23  and  O_24
REMARK    6  A    between atoms: O_24  and  C_25
REMARK                            x       y       z     vdW  Elec       q    Type
REMARK                         _______ _______ _______ _____ _____    ______ ____
ROOT
ATOM      1  C   UNL     1       0.375  10.676  20.285  0.00  0.00    +0.000 C 
ATOM      2  C   UNL     1       0.053  10.880  21.798  0.00  0.00    +0.000 C 
ATOM      3  C   UNL     1      -0.403   9.531  22.302  0.00  0.00    +0.000 C 
ATOM      4  C   UNL     1       0.386   8.545  21.463  0.00  0.00    +0.000 C 
ATOM      5  N   UNL     1       0.954   9.273  20.329  0.00  0.00    +0.000 N 
ATOM      6  C   UNL     1       1.739   8.679  19.322  0.00  0.00    +0.000 C 
ATOM      7  O   UNL     1       2.092   9.291  18.316  0.00  0.00    +0.000 OA
ENDROOT
BRANCH   1   8
ATOM      8  C   UNL     1      -0.966  10.771  19.508  0.00  0.00    +0.000 A 
ATOM      9  C   UNL     1      -1.247   9.885  18.457  0.00  0.00    +0.000 A 
ATOM     10  N   UNL     1      -2.334   9.989  17.650  0.00  0.00    +0.000 NA
ATOM     11  C   UNL     1      -3.151  11.026  17.911  0.00  0.00    +0.000 A 
ATOM     12  C   UNL     1      -2.892  11.922  18.933  0.00  0.00    +0.000 A 
ATOM     13  N   UNL     1      -1.805  11.825  19.743  0.00  0.00    +0.000 NA
ENDBRANCH   1   8
BRANCH   6  14
ATOM     14  C   UNL     1       2.195   7.255  19.459  0.00  0.00    +0.000 A 
ATOM     15  C   UNL     1       1.630   6.442  20.451  0.00  0.00    +0.000 A 
ATOM     16  C   UNL     1       2.084   5.142  20.657  0.00  0.00    +0.000 A 
ATOM     17  C   UNL     1       3.032   4.642  19.795  0.00  0.00    +0.000 A 
ATOM     18  N   UNL     1       3.530   5.347  18.764  0.00  0.00    +0.000 NA
ATOM     19  C   UNL     1       3.106   6.637  18.595  0.00  0.00    +0.000 A 
BRANCH  19  20
ATOM     20  O   UNL     1       3.659   7.323  17.534  0.00  0.00    +0.000 OA
ATOM     21  C   UNL     1       4.759   6.627  16.932  0.00  0.00    +0.000 C 
ENDBRANCH  19  20
ENDBRANCH   6  14
BRANCH   1  24
ATOM     22  C   UNL     1       2.103  13.387  18.123  0.00  0.00    +0.000 C 
ATOM     23  N   UNL     1       1.351  12.253  18.597  0.00  0.00    +0.000 N 
ATOM     24  C   UNL     1       1.310  11.885  19.911  0.00  0.00    +0.000 C 
ATOM     25  O   UNL     1       1.833  12.595  20.783  0.00  0.00    +0.000 OA
ATOM     26  H   UNL     1       0.959  11.610  17.903  0.00  0.00    +0.000 HD
ENDBRANCH   1  24
TORSDOF 4
ENDMDL
MODEL 9
REMARK VINA RESULT:      -6.0      8.385     11.951
REMARK  Name = 
REMARK  6 active torsions:
REMARK  status: ('A' for Active; 'I' for Inactive)
REMARK    1  A    between atoms: C_1  and  N_2
REMARK    2  A    between atoms: C_3  and  C_5
REMARK    3  A    between atoms: C_5  and  C_6
REMARK    4  A    between atoms: C_16  and  C_18
REMARK    5  A    between atoms: C_23  and  O_24
REMARK    6  A    between atoms: O_24  and  C_25
REMARK                            x       y       z     vdW  Elec       q    Type
REMARK                         _______ _______ _______ _____ _____    ______ ____
ROOT
ATOM      1  C   UNL     1      -2.128  13.307  21.512  0.00  0.00    +0.000 C 
ATOM      2  C   UNL     1      -1.813  12.949  22.998  0.00  0.00    +0.000 C 
ATOM      3  C   UNL     1      -1.530  11.464  23.007  0.00  0.00    +0.000 C 
ATOM      4  C   UNL     1      -0.905  11.207  21.651  0.00  0.00    +0.000 C 
ATOM      5  N   UNL     1      -1.159  12.375  20.809  0.00  0.00    +0.000 N 
ATOM      6  C   UNL     1      -0.738  12.489  19.470  0.00  0.00    +0.000 C 
ATOM      7  O   UNL     1      -1.078  13.427  18.751  0.00  0.00    +0.000 OA
ENDROOT
BRANCH   1   8
ATOM      8  C   UNL     1      -3.620  12.960  21.258  0.00  0.00    +0.000 A 
ATOM      9  C   UNL     1      -4.517  12.837  22.330  0.00  0.00    +0.000 A 
ATOM     10  N   UNL     1      -5.799  12.409  22.199  0.00  0.00    +0.000 NA
ATOM     11  C   UNL     1      -6.176  12.087  20.948  0.00  0.00    +0.000 A 
ATOM     12  C   UNL     1      -5.308  12.185  19.875  0.00  0.00    +0.000 A 
ATOM     13  N   UNL     1      -4.023  12.611  19.999  0.00  0.00    +0.000 NA
ENDBRANCH   1   8
BRANCH   6  14
ATOM     14  C   UNL     1       0.176  11.459  18.872  0.00  0.00    +0.000 A 
ATOM     15  C   UNL     1      -0.370  10.295  18.312  0.00  0.00    +0.000 A 
ATOM     16  C   UNL     1       0.450   9.283  17.819  0.00  0.00    +0.000 A 
ATOM     17  C   UNL     1       1.809   9.500  17.805  0.00  0.00    +0.000 A 
ATOM     18  N   UNL     1       2.374  10.642  18.235  0.00  0.00    +0.000 NA
ATOM     19  C   UNL     1       1.561  11.613  18.754  0.00  0.00    +0.000 A 
BRANCH  19  20
ATOM     20  O   UNL     1       2.191  12.757  19.196  0.00  0.00    +0.000 OA
ATOM     21  C   UNL     1       2.633  13.602  18.125  0.00  0.00    +0.000 C 
ENDBRANCH  19  20
ENDBRANCH   6  14
BRANCH   1  24
ATOM     22  C   UNL     1      -2.533  16.961  20.292  0.00  0.00    +0.000 C 
ATOM     23  N   UNL     1      -2.582  15.529  20.443  0.00  0.00    +0.000 N 
ATOM     24  C   UNL     1      -1.905  14.862  21.424  0.00  0.00    +0.000 C 
ATOM     25  O   UNL     1      -1.305  15.484  22.312  0.00  0.00    +0.000 OA
ATOM     26  H   UNL     1      -3.015  14.980  19.695  0.00  0.00    +0.000 HD
ENDBRANCH   1  24
TORSDOF 4
ENDMDL
