MODEL 1
REMARK VINA RESULT:      -8.0      0.000      0.000
REMARK  Name = 
REMARK  9 active torsions:
REMARK  status: ('A' for Active; 'I' for Inactive)
REMARK    1  A    between atoms: C_1  and  C_2
REMARK    2  A    between atoms: C_2  and  N_3
REMARK    3  A    between atoms: C_2  and  C_11
REMARK    4  A    between atoms: C_4  and  C_6
REMARK    5  A    between atoms: N_13  and  C_14
REMARK    6  A    between atoms: C_14  and  C_15
REMARK    7  A    between atoms: C_15  and  C_16
REMARK    8  A    between atoms: C_19  and  S_20
REMARK    9  A    between atoms: S_20  and  N_21
REMARK                            x       y       z     vdW  Elec       q    Type
REMARK                         _______ _______ _______ _____ _____    ______ ____
ROOT
ATOM      1  C   UNL     1       6.347   4.814  18.762  0.00  0.00    +0.000 C 
ATOM      2  O   UNL     1       6.101   5.208  19.900  0.00  0.00    +0.000 OA
ATOM      3  N   UNL     1       5.458   4.044  18.034  0.00  0.00    +0.000 N 
ATOM      4  H   UNL     1       5.562   4.044  17.021  0.00  0.00    +0.000 HD
ENDROOT
BRANCH   1   6
ATOM      5  C   UNL     1       7.860   6.702  18.099  0.00  0.00    +0.000 C 
ATOM      6  C   UNL     1       7.633   5.198  18.009  0.00  0.00    +0.000 C 
BRANCH   6   7
ATOM      7  N   UNL     1       7.532   4.797  16.613  0.00  0.00    +0.000 N 
ATOM      8  C   UNL     1       6.736   5.453  15.702  0.00  0.00    +0.000 C 
ATOM      9  O   UNL     1       6.105   6.465  16.010  0.00  0.00    +0.000 OA
ATOM     10  H   UNL     1       8.171   4.098  16.248  0.00  0.00    +0.000 HD
BRANCH   8  11
ATOM     11  C   UNL     1       6.713   4.851  14.387  0.00  0.00    +0.000 A 
ATOM     12  C   UNL     1       5.952   3.821  13.867  0.00  0.00    +0.000 A 
ATOM     13  C   UNL     1       6.376   3.631  12.530  0.00  0.00    +0.000 A 
ATOM     14  C   UNL     1       7.374   4.550  12.311  0.00  0.00    +0.000 A 
ATOM     15  O   UNL     1       7.586   5.297  13.426  0.00  0.00    +0.000 OA
ENDBRANCH   8  11
ENDBRANCH   6   7
ENDBRANCH   1   6
BRANCH   3  16
ATOM     16  C   UNL     1       4.203   3.638  18.641  0.00  0.00    +0.000 C 
BRANCH  16  17
ATOM     17  C   UNL     1       2.984   4.305  18.007  0.00  0.00    +0.000 C 
BRANCH  17  18
ATOM     18  C   UNL     1       2.458   5.439  18.856  0.00  0.00    +0.000 A 
ATOM     19  C   UNL     1       1.855   5.177  20.096  0.00  0.00    +0.000 A 
ATOM     20  C   UNL     1       1.383   6.223  20.890  0.00  0.00    +0.000 A 
ATOM     21  C   UNL     1       1.518   7.541  20.445  0.00  0.00    +0.000 A 
ATOM     22  C   UNL     1       2.074   7.816  19.195  0.00  0.00    +0.000 A 
ATOM     23  C   UNL     1       2.545   6.764  18.404  0.00  0.00    +0.000 A 
BRANCH  21  24
ATOM     24  S   UNL     1       0.963   8.869  21.470  0.00  0.00    +0.000 S 
ATOM     25  O   UNL     1      -0.412   8.642  21.848  0.00  0.00    +0.000 OA
ATOM     26  O   UNL     1       1.989   9.193  22.432  0.00  0.00    +0.000 OA
BRANCH  24  27
ATOM     27  N   UNL     1       0.934  10.146  20.378  0.00  0.00    +0.000 NA
ATOM     28  H   UNL     1       1.365  10.971  20.795  0.00  0.00    +0.000 HD
ATOM     29  H   UNL     1       1.352   9.858  19.494  0.00  0.00    +0.000 HD
ENDBRANCH  24  27
ENDBRANCH  21  24
ENDBRANCH  17  18
ENDBRANCH  16  17
ENDBRANCH   3  16
TORSDOF 8
ENDMDL
MODEL 2
REMARK VINA RESULT:      -8.0      0.909      1.153
REMARK  Name = 
REMARK  9 active torsions:
REMARK  status: ('A' for Active; 'I' for Inactive)
REMARK    1  A    between atoms: C_1  and  C_2
REMARK    2  A    between atoms: C_2  and  N_3
REMARK    3  A    between atoms: C_2  and  C_11
REMARK    4  A    between atoms: C_4  and  C_6
REMARK    5  A    between atoms: N_13  and  C_14
REMARK    6  A    between atoms: C_14  and  C_15
REMARK    7  A    between atoms: C_15  and  C_16
REMARK    8  A    between atoms: C_19  and  S_20
REMARK    9  A    between atoms: S_20  and  N_21
REMARK                            x       y       z     vdW  Elec       q    Type
REMARK                         _______ _______ _______ _____ _____    ______ ____
ROOT
ATOM      1  C   UNL     1       6.223   4.857  18.639  0.00  0.00    +0.000 C 
ATOM      2  O   UNL     1       5.830   5.417  19.660  0.00  0.00    +0.000 OA
ATOM      3  N   UNL     1       5.479   3.889  17.989  0.00  0.00    +0.000 N 
ATOM      4  H   UNL     1       5.686   3.723  17.006  0.00  0.00    +0.000 HD
ENDROOT
BRANCH   1   6
ATOM      5  C   UNL     1       7.775   6.733  18.032  0.00  0.00    +0.000 C 
ATOM      6  C   UNL     1       7.544   5.229  17.942  0.00  0.00    +0.000 C 
BRANCH   6   7
ATOM      7  N   UNL     1       7.504   4.819  16.545  0.00  0.00    +0.000 N 
ATOM      8  C   UNL     1       6.655   5.385  15.624  0.00  0.00    +0.000 C 
ATOM      9  O   UNL     1       5.915   6.323  15.921  0.00  0.00    +0.000 OA
ATOM     10  H   UNL     1       8.219   4.192  16.191  0.00  0.00    +0.000 HD
BRANCH   8  11
ATOM     11  C   UNL     1       6.713   4.782  14.310  0.00  0.00    +0.000 A 
ATOM     12  C   UNL     1       7.570   4.992  13.245  0.00  0.00    +0.000 A 
ATOM     13  C   UNL     1       7.138   4.144  12.197  0.00  0.00    +0.000 A 
ATOM     14  C   UNL     1       6.042   3.470  12.678  0.00  0.00    +0.000 A 
ATOM     15  O   UNL     1       5.776   3.844  13.956  0.00  0.00    +0.000 OA
ENDBRANCH   8  11
ENDBRANCH   6   7
ENDBRANCH   1   6
BRANCH   3  16
ATOM     16  C   UNL     1       4.206   3.473  18.549  0.00  0.00    +0.000 C 
BRANCH  16  17
ATOM     17  C   UNL     1       3.008   4.152  17.890  0.00  0.00    +0.000 C 
BRANCH  17  18
ATOM     18  C   UNL     1       2.517   5.334  18.694  0.00  0.00    +0.000 A 
ATOM     19  C   UNL     1       1.926   5.141  19.952  0.00  0.00    +0.000 A 
ATOM     20  C   UNL     1       1.487   6.231  20.704  0.00  0.00    +0.000 A 
ATOM     21  C   UNL     1       1.644   7.524  20.198  0.00  0.00    +0.000 A 
ATOM     22  C   UNL     1       2.189   7.731  18.930  0.00  0.00    +0.000 A 
ATOM     23  C   UNL     1       2.626   6.635  18.182  0.00  0.00    +0.000 A 
BRANCH  21  24
ATOM     24  S   UNL     1       1.132   8.908  21.170  0.00  0.00    +0.000 S 
ATOM     25  O   UNL     1       1.898   8.946  22.394  0.00  0.00    +0.000 OA
ATOM     26  O   UNL     1       0.974  10.062  20.317  0.00  0.00    +0.000 OA
BRANCH  24  27
ATOM     27  N   UNL     1      -0.422   8.449  21.615  0.00  0.00    +0.000 NA
ATOM     28  H   UNL     1      -0.583   7.474  21.363  0.00  0.00    +0.000 HD
ATOM     29  H   UNL     1      -0.578   8.656  22.602  0.00  0.00    +0.000 HD
ENDBRANCH  24  27
ENDBRANCH  21  24
ENDBRANCH  17  18
ENDBRANCH  16  17
ENDBRANCH   3  16
TORSDOF 8
ENDMDL
MODEL 3
REMARK VINA RESULT:      -7.9      1.818      2.225
REMARK  Name = 
REMARK  9 active torsions:
REMARK  status: ('A' for Active; 'I' for Inactive)
REMARK    1  A    between atoms: C_1  and  C_2
REMARK    2  A    between atoms: C_2  and  N_3
REMARK    3  A    between atoms: C_2  and  C_11
REMARK    4  A    between atoms: C_4  and  C_6
REMARK    5  A    between atoms: N_13  and  C_14
REMARK    6  A    between atoms: C_14  and  C_15
REMARK    7  A    between atoms: C_15  and  C_16
REMARK    8  A    between atoms: C_19  and  S_20
REMARK    9  A    between atoms: S_20  and  N_21
REMARK                            x       y       z     vdW  Elec       q    Type
REMARK                         _______ _______ _______ _____ _____    ______ ____
ROOT
ATOM      1  C   UNL     1       6.169   4.816  18.568  0.00  0.00    +0.000 C 
ATOM      2  O   UNL     1       5.918   3.641  18.827  0.00  0.00    +0.000 OA
ATOM      3  N   UNL     1       5.317   5.850  18.910  0.00  0.00    +0.000 N 
ATOM      4  H   UNL     1       5.720   6.783  18.981  0.00  0.00    +0.000 HD
ENDROOT
BRANCH   1   6
ATOM      5  C   UNL     1       7.669   6.764  18.068  0.00  0.00    +0.000 C 
ATOM      6  C   UNL     1       7.487   5.259  17.907  0.00  0.00    +0.000 C 
BRANCH   6   7
ATOM      7  N   UNL     1       7.476   4.912  16.493  0.00  0.00    +0.000 N 
ATOM      8  C   UNL     1       6.447   5.252  15.647  0.00  0.00    +0.000 C 
ATOM      9  O   UNL     1       5.494   5.929  16.033  0.00  0.00    +0.000 OA
ATOM     10  H   UNL     1       8.315   4.529  16.069  0.00  0.00    +0.000 HD
BRANCH   8  11
ATOM     11  C   UNL     1       6.590   4.745  14.300  0.00  0.00    +0.000 A 
ATOM     12  C   UNL     1       5.933   3.729  13.630  0.00  0.00    +0.000 A 
ATOM     13  C   UNL     1       6.506   3.651  12.338  0.00  0.00    +0.000 A 
ATOM     14  C   UNL     1       7.481   4.618  12.293  0.00  0.00    +0.000 A 
ATOM     15  O   UNL     1       7.541   5.290  13.472  0.00  0.00    +0.000 OA
ENDBRANCH   8  11
ENDBRANCH   6   7
ENDBRANCH   1   6
BRANCH   3  16
ATOM     16  C   UNL     1       4.052   5.548  19.555  0.00  0.00    +0.000 C 
BRANCH  16  17
ATOM     17  C   UNL     1       2.843   5.802  18.658  0.00  0.00    +0.000 C 
BRANCH  17  18
ATOM     18  C   UNL     1       2.321   7.214  18.801  0.00  0.00    +0.000 A 
ATOM     19  C   UNL     1       2.400   8.112  17.726  0.00  0.00    +0.000 A 
ATOM     20  C   UNL     1       1.904   9.410  17.849  0.00  0.00    +0.000 A 
ATOM     21  C   UNL     1       1.321   9.813  19.053  0.00  0.00    +0.000 A 
ATOM     22  C   UNL     1       1.274   8.947  20.146  0.00  0.00    +0.000 A 
ATOM     23  C   UNL     1       1.773   7.648  20.017  0.00  0.00    +0.000 A 
BRANCH  21  24
ATOM     24  S   UNL     1       0.650  11.442  19.195  0.00  0.00    +0.000 S 
ATOM     25  O   UNL     1       0.026  11.594  20.489  0.00  0.00    +0.000 OA
ATOM     26  O   UNL     1       1.597  12.398  18.673  0.00  0.00    +0.000 OA
BRANCH  24  27
ATOM     27  N   UNL     1      -0.608  11.385  18.083  0.00  0.00    +0.000 NA
ATOM     28  H   UNL     1      -0.308  10.890  17.243  0.00  0.00    +0.000 HD
ATOM     29  H   UNL     1      -1.443  10.996  18.521  0.00  0.00    +0.000 HD
ENDBRANCH  24  27
ENDBRANCH  21  24
ENDBRANCH  17  18
ENDBRANCH  16  17
ENDBRANCH   3  16
TORSDOF 8
ENDMDL
MODEL 4
REMARK VINA RESULT:      -7.8      4.852      7.642
REMARK  Name = 
REMARK  9 active torsions:
REMARK  status: ('A' for Active; 'I' for Inactive)
REMARK    1  A    between atoms: C_1  and  C_2
REMARK    2  A    between atoms: C_2  and  N_3
REMARK    3  A    between atoms: C_2  and  C_11
REMARK    4  A    between atoms: C_4  and  C_6
REMARK    5  A    between atoms: N_13  and  C_14
REMARK    6  A    between atoms: C_14  and  C_15
REMARK    7  A    between atoms: C_15  and  C_16
REMARK    8  A    between atoms: C_19  and  S_20
REMARK    9  A    between atoms: S_20  and  N_21
REMARK                            x       y       z     vdW  Elec       q    Type
REMARK                         _______ _______ _______ _____ _____    ______ ____
ROOT
ATOM      1  C   UNL     1       6.963   5.903  16.727  0.00  0.00    +0.000 C 
ATOM      2  O   UNL     1       7.637   6.044  15.709  0.00  0.00    +0.000 OA
ATOM      3  N   UNL     1       6.822   6.904  17.671  0.00  0.00    +0.000 N 
ATOM      4  H   UNL     1       6.011   6.857  18.285  0.00  0.00    +0.000 HD
ENDROOT
BRANCH   1   6
ATOM      5  C   UNL     1       5.697   3.991  15.709  0.00  0.00    +0.000 C 
ATOM      6  C   UNL     1       6.151   4.627  17.017  0.00  0.00    +0.000 C 
BRANCH   6   7
ATOM      7  N   UNL     1       4.992   4.950  17.837  0.00  0.00    +0.000 N 
ATOM      8  C   UNL     1       4.693   4.286  19.003  0.00  0.00    +0.000 C 
ATOM      9  O   UNL     1       5.433   3.411  19.454  0.00  0.00    +0.000 OA
ATOM     10  H   UNL     1       4.452   5.784  17.629  0.00  0.00    +0.000 HD
BRANCH   8  11
ATOM     11  C   UNL     1       3.456   4.702  19.627  0.00  0.00    +0.000 A 
ATOM     12  C   UNL     1       2.430   3.974  20.200  0.00  0.00    +0.000 A 
ATOM     13  C   UNL     1       1.453   4.905  20.626  0.00  0.00    +0.000 A 
ATOM     14  C   UNL     1       1.933   6.146  20.285  0.00  0.00    +0.000 A 
ATOM     15  O   UNL     1       3.146   6.039  19.683  0.00  0.00    +0.000 OA
ENDBRANCH   8  11
ENDBRANCH   6   7
ENDBRANCH   1   6
BRANCH   3  16
ATOM     16  C   UNL     1       7.530   8.159  17.489  0.00  0.00    +0.000 C 
BRANCH  16  17
ATOM     17  C   UNL     1       8.607   8.401  18.545  0.00  0.00    +0.000 C 
BRANCH  17  18
ATOM     18  C   UNL     1       8.880   9.874  18.744  0.00  0.00    +0.000 A 
ATOM     19  C   UNL     1       8.665  10.784  17.698  0.00  0.00    +0.000 A 
ATOM     20  C   UNL     1       8.900  12.147  17.885  0.00  0.00    +0.000 A 
ATOM     21  C   UNL     1       9.349  12.605  19.126  0.00  0.00    +0.000 A 
ATOM     22  C   UNL     1       9.609  11.708  20.164  0.00  0.00    +0.000 A 
ATOM     23  C   UNL     1       9.373  10.344  19.971  0.00  0.00    +0.000 A 
BRANCH  21  24
ATOM     24  S   UNL     1       9.602  14.335  19.378  0.00  0.00    +0.000 S 
ATOM     25  O   UNL     1       9.911  14.964  18.115  0.00  0.00    +0.000 OA
ATOM     26  O   UNL     1       8.588  14.844  20.270  0.00  0.00    +0.000 OA
BRANCH  24  27
ATOM     27  N   UNL     1      11.034  14.341  20.256  0.00  0.00    +0.000 NA
ATOM     28  H   UNL     1      11.382  13.388  20.362  0.00  0.00    +0.000 HD
ATOM     29  H   UNL     1      11.702  14.983  19.830  0.00  0.00    +0.000 HD
ENDBRANCH  24  27
ENDBRANCH  21  24
ENDBRANCH  17  18
ENDBRANCH  16  17
ENDBRANCH   3  16
TORSDOF 8
ENDMDL
MODEL 5
REMARK VINA RESULT:      -7.8      5.116      7.593
REMARK  Name = 
REMARK  9 active torsions:
REMARK  status: ('A' for Active; 'I' for Inactive)
REMARK    1  A    between atoms: C_1  and  C_2
REMARK    2  A    between atoms: C_2  and  N_3
REMARK    3  A    between atoms: C_2  and  C_11
REMARK    4  A    between atoms: C_4  and  C_6
REMARK    5  A    between atoms: N_13  and  C_14
REMARK    6  A    between atoms: C_14  and  C_15
REMARK    7  A    between atoms: C_15  and  C_16
REMARK    8  A    between atoms: C_19  and  S_20
REMARK    9  A    between atoms: S_20  and  N_21
REMARK                            x       y       z     vdW  Elec       q    Type
REMARK                         _______ _______ _______ _____ _____    ______ ____
ROOT
ATOM      1  C   UNL     1       6.274   6.658  17.107  0.00  0.00    +0.000 C 
ATOM      2  O   UNL     1       5.272   7.326  17.353  0.00  0.00    +0.000 OA
ATOM      3  N   UNL     1       7.554   7.173  17.207  0.00  0.00    +0.000 N 
ATOM      4  H   UNL     1       8.316   6.509  17.327  0.00  0.00    +0.000 HD
ENDROOT
BRANCH   1   6
ATOM      5  C   UNL     1       6.407   4.993  15.235  0.00  0.00    +0.000 C 
ATOM      6  C   UNL     1       6.209   5.165  16.737  0.00  0.00    +0.000 C 
BRANCH   6   7
ATOM      7  N   UNL     1       4.923   4.608  17.132  0.00  0.00    +0.000 N 
ATOM      8  C   UNL     1       4.716   3.993  18.344  0.00  0.00    +0.000 C 
ATOM      9  O   UNL     1       5.603   3.933  19.196  0.00  0.00    +0.000 OA
ATOM     10  H   UNL     1       4.104   4.797  16.563  0.00  0.00    +0.000 HD
BRANCH   8  11
ATOM     11  C   UNL     1       3.391   3.436  18.512  0.00  0.00    +0.000 A 
ATOM     12  C   UNL     1       2.183   3.757  17.920  0.00  0.00    +0.000 A 
ATOM     13  C   UNL     1       1.208   2.902  18.487  0.00  0.00    +0.000 A 
ATOM     14  C   UNL     1       1.873   2.114  19.395  0.00  0.00    +0.000 A 
ATOM     15  O   UNL     1       3.195   2.424  19.418  0.00  0.00    +0.000 OA
ENDBRANCH   8  11
ENDBRANCH   6   7
ENDBRANCH   1   6
BRANCH   3  16
ATOM     16  C   UNL     1       7.734   8.568  17.568  0.00  0.00    +0.000 C 
BRANCH  16  17
ATOM     17  C   UNL     1       8.747   8.773  18.693  0.00  0.00    +0.000 C 
BRANCH  17  18
ATOM     18  C   UNL     1       9.052  10.236  18.917  0.00  0.00    +0.000 A 
ATOM     19  C   UNL     1       9.489  10.686  20.172  0.00  0.00    +0.000 A 
ATOM     20  C   UNL     1       9.788  12.033  20.378  0.00  0.00    +0.000 A 
ATOM     21  C   UNL     1       9.654  12.937  19.321  0.00  0.00    +0.000 A 
ATOM     22  C   UNL     1       9.178  12.514  18.079  0.00  0.00    +0.000 A 
ATOM     23  C   UNL     1       8.880  11.164  17.879  0.00  0.00    +0.000 A 
BRANCH  21  24
ATOM     24  S   UNL     1      10.077  14.635  19.567  0.00  0.00    +0.000 S 
ATOM     25  O   UNL     1      11.219  14.723  20.447  0.00  0.00    +0.000 OA
ATOM     26  O   UNL     1      10.014  15.334  18.305  0.00  0.00    +0.000 OA
BRANCH  24  27
ATOM     27  N   UNL     1       8.764  15.181  20.463  0.00  0.00    +0.000 NA
ATOM     28  H   UNL     1       9.038  15.317  21.436  0.00  0.00    +0.000 HD
ATOM     29  H   UNL     1       8.363  16.009  20.023  0.00  0.00    +0.000 HD
ENDBRANCH  24  27
ENDBRANCH  21  24
ENDBRANCH  17  18
ENDBRANCH  16  17
ENDBRANCH   3  16
TORSDOF 8
ENDMDL
MODEL 6
REMARK VINA RESULT:      -7.8      1.807      2.505
REMARK  Name = 
REMARK  9 active torsions:
REMARK  status: ('A' for Active; 'I' for Inactive)
REMARK    1  A    between atoms: C_1  and  C_2
REMARK    2  A    between atoms: C_2  and  N_3
REMARK    3  A    between atoms: C_2  and  C_11
REMARK    4  A    between atoms: C_4  and  C_6
REMARK    5  A    between atoms: N_13  and  C_14
REMARK    6  A    between atoms: C_14  and  C_15
REMARK    7  A    between atoms: C_15  and  C_16
REMARK    8  A    between atoms: C_19  and  S_20
REMARK    9  A    between atoms: S_20  and  N_21
REMARK                            x       y       z     vdW  Elec       q    Type
REMARK                         _______ _______ _______ _____ _____    ______ ____
ROOT
ATOM      1  C   UNL     1       4.962   4.533  18.285  0.00  0.00    +0.000 C 
ATOM      2  O   UNL     1       4.139   3.667  17.998  0.00  0.00    +0.000 OA
ATOM      3  N   UNL     1       4.616   5.699  18.943  0.00  0.00    +0.000 N 
ATOM      4  H   UNL     1       5.355   6.192  19.440  0.00  0.00    +0.000 HD
ENDROOT
BRANCH   1   6
ATOM      5  C   UNL     1       7.220   5.605  18.499  0.00  0.00    +0.000 C 
ATOM      6  C   UNL     1       6.468   4.374  18.007  0.00  0.00    +0.000 C 
BRANCH   6   7
ATOM      7  N   UNL     1       6.696   4.194  16.580  0.00  0.00    +0.000 N 
ATOM      8  C   UNL     1       6.431   5.173  15.651  0.00  0.00    +0.000 C 
ATOM      9  O   UNL     1       6.037   6.290  15.987  0.00  0.00    +0.000 OA
ATOM     10  H   UNL     1       7.199   3.374  16.257  0.00  0.00    +0.000 HD
BRANCH   8  11
ATOM     11  C   UNL     1       6.650   4.768  14.280  0.00  0.00    +0.000 A 
ATOM     12  C   UNL     1       6.074   3.767  13.519  0.00  0.00    +0.000 A 
ATOM     13  C   UNL     1       6.696   3.809  12.248  0.00  0.00    +0.000 A 
ATOM     14  C   UNL     1       7.617   4.826  12.306  0.00  0.00    +0.000 A 
ATOM     15  O   UNL     1       7.597   5.418  13.528  0.00  0.00    +0.000 OA
ENDBRANCH   8  11
ENDBRANCH   6   7
ENDBRANCH   1   6
BRANCH   3  16
ATOM     16  C   UNL     1       3.223   5.945  19.271  0.00  0.00    +0.000 C 
BRANCH  16  17
ATOM     17  C   UNL     1       2.560   6.970  18.353  0.00  0.00    +0.000 C 
BRANCH  17  18
ATOM     18  C   UNL     1       1.915   8.092  19.133  0.00  0.00    +0.000 A 
ATOM     19  C   UNL     1       1.596   9.303  18.501  0.00  0.00    +0.000 A 
ATOM     20  C   UNL     1       0.984  10.335  19.215  0.00  0.00    +0.000 A 
ATOM     21  C   UNL     1       0.685  10.154  20.567  0.00  0.00    +0.000 A 
ATOM     22  C   UNL     1       1.035   8.972  21.221  0.00  0.00    +0.000 A 
ATOM     23  C   UNL     1       1.648   7.943  20.502  0.00  0.00    +0.000 A 
BRANCH  21  24
ATOM     24  S   UNL     1      -0.132  11.442  21.460  0.00  0.00    +0.000 S 
ATOM     25  O   UNL     1       0.770  12.558  21.626  0.00  0.00    +0.000 OA
ATOM     26  O   UNL     1      -1.475  11.599  20.955  0.00  0.00    +0.000 OA
BRANCH  24  27
ATOM     27  N   UNL     1      -0.289  10.748  22.982  0.00  0.00    +0.000 NA
ATOM     28  H   UNL     1       0.610  10.377  23.290  0.00  0.00    +0.000 HD
ATOM     29  H   UNL     1      -0.709  11.416  23.628  0.00  0.00    +0.000 HD
ENDBRANCH  24  27
ENDBRANCH  21  24
ENDBRANCH  17  18
ENDBRANCH  16  17
ENDBRANCH   3  16
TORSDOF 8
ENDMDL
MODEL 7
REMARK VINA RESULT:      -7.8      5.593      8.177
REMARK  Name = 
REMARK  9 active torsions:
REMARK  status: ('A' for Active; 'I' for Inactive)
REMARK    1  A    between atoms: C_1  and  C_2
REMARK    2  A    between atoms: C_2  and  N_3
REMARK    3  A    between atoms: C_2  and  C_11
REMARK    4  A    between atoms: C_4  and  C_6
REMARK    5  A    between atoms: N_13  and  C_14
REMARK    6  A    between atoms: C_14  and  C_15
REMARK    7  A    between atoms: C_15  and  C_16
REMARK    8  A    between atoms: C_19  and  S_20
REMARK    9  A    between atoms: S_20  and  N_21
REMARK                            x       y       z     vdW  Elec       q    Type
REMARK                         _______ _______ _______ _____ _____    ______ ____
ROOT
ATOM      1  C   UNL     1       6.942   6.873  17.388  0.00  0.00    +0.000 C 
ATOM      2  O   UNL     1       6.266   7.505  16.579  0.00  0.00    +0.000 OA
ATOM      3  N   UNL     1       7.938   7.463  18.146  0.00  0.00    +0.000 N 
ATOM      4  H   UNL     1       8.211   6.992  19.006  0.00  0.00    +0.000 HD
ENDROOT
BRANCH   1   6
ATOM      5  C   UNL     1       7.188   4.530  16.525  0.00  0.00    +0.000 C 
ATOM      6  C   UNL     1       6.701   5.384  17.691  0.00  0.00    +0.000 C 
BRANCH   6   7
ATOM      7  N   UNL     1       5.283   5.144  17.918  0.00  0.00    +0.000 N 
ATOM      8  C   UNL     1       4.817   4.230  18.833  0.00  0.00    +0.000 C 
ATOM      9  O   UNL     1       5.584   3.599  19.562  0.00  0.00    +0.000 OA
ATOM     10  H   UNL     1       4.600   5.765  17.496  0.00  0.00    +0.000 HD
BRANCH   8  11
ATOM     11  C   UNL     1       3.377   4.084  18.851  0.00  0.00    +0.000 A 
ATOM     12  C   UNL     1       2.505   3.741  19.868  0.00  0.00    +0.000 A 
ATOM     13  C   UNL     1       1.206   3.724  19.306  0.00  0.00    +0.000 A 
ATOM     14  C   UNL     1       1.358   4.051  17.980  0.00  0.00    +0.000 A 
ATOM     15  O   UNL     1       2.667   4.275  17.692  0.00  0.00    +0.000 OA
ENDBRANCH   8  11
ENDBRANCH   6   7
ENDBRANCH   1   6
BRANCH   3  16
ATOM     16  C   UNL     1       8.239   8.871  17.956  0.00  0.00    +0.000 C 
BRANCH  16  17
ATOM     17  C   UNL     1       9.078   9.465  19.085  0.00  0.00    +0.000 C 
BRANCH  17  18
ATOM     18  C   UNL     1       9.435  10.910  18.822  0.00  0.00    +0.000 A 
ATOM     19  C   UNL     1      10.467  11.529  19.543  0.00  0.00    +0.000 A 
ATOM     20  C   UNL     1      10.810  12.858  19.290  0.00  0.00    +0.000 A 
ATOM     21  C   UNL     1      10.121  13.572  18.307  0.00  0.00    +0.000 A 
ATOM     22  C   UNL     1       9.063  12.985  17.611  0.00  0.00    +0.000 A 
ATOM     23  C   UNL     1       8.723  11.655  17.869  0.00  0.00    +0.000 A 
BRANCH  21  24
ATOM     24  S   UNL     1      10.586  15.240  17.954  0.00  0.00    +0.000 S 
ATOM     25  O   UNL     1      11.465  15.261  16.808  0.00  0.00    +0.000 OA
ATOM     26  O   UNL     1       9.427  16.094  18.058  0.00  0.00    +0.000 OA
BRANCH  24  27
ATOM     27  N   UNL     1      11.551  15.607  19.279  0.00  0.00    +0.000 NA
ATOM     28  H   UNL     1      12.164  14.820  19.493  0.00  0.00    +0.000 HD
ATOM     29  H   UNL     1      12.041  16.487  19.121  0.00  0.00    +0.000 HD
ENDBRANCH  24  27
ENDBRANCH  21  24
ENDBRANCH  17  18
ENDBRANCH  16  17
ENDBRANCH   3  16
TORSDOF 8
ENDMDL
MODEL 8
REMARK VINA RESULT:      -7.8      5.080      7.560
REMARK  Name = 
REMARK  9 active torsions:
REMARK  status: ('A' for Active; 'I' for Inactive)
REMARK    1  A    between atoms: C_1  and  C_2
REMARK    2  A    between atoms: C_2  and  N_3
REMARK    3  A    between atoms: C_2  and  C_11
REMARK    4  A    between atoms: C_4  and  C_6
REMARK    5  A    between atoms: N_13  and  C_14
REMARK    6  A    between atoms: C_14  and  C_15
REMARK    7  A    between atoms: C_15  and  C_16
REMARK    8  A    between atoms: C_19  and  S_20
REMARK    9  A    between atoms: S_20  and  N_21
REMARK                            x       y       z     vdW  Elec       q    Type
REMARK                         _______ _______ _______ _____ _____    ______ ____
ROOT
ATOM      1  C   UNL     1       6.110   6.528  16.975  0.00  0.00    +0.000 C 
ATOM      2  O   UNL     1       5.133   7.266  17.093  0.00  0.00    +0.000 OA
ATOM      3  N   UNL     1       7.404   6.973  17.172  0.00  0.00    +0.000 N 
ATOM      4  H   UNL     1       8.110   6.273  17.394  0.00  0.00    +0.000 HD
ENDROOT
BRANCH   1   6
ATOM      5  C   UNL     1       6.075   4.790  15.165  0.00  0.00    +0.000 C 
ATOM      6  C   UNL     1       5.985   5.025  16.669  0.00  0.00    +0.000 C 
BRANCH   6   7
ATOM      7  N   UNL     1       4.718   4.517  17.173  0.00  0.00    +0.000 N 
ATOM      8  C   UNL     1       4.600   3.858  18.374  0.00  0.00    +0.000 C 
ATOM      9  O   UNL     1       5.565   3.714  19.126  0.00  0.00    +0.000 OA
ATOM     10  H   UNL     1       3.856   4.772  16.700  0.00  0.00    +0.000 HD
BRANCH   8  11
ATOM     11  C   UNL     1       3.271   3.362  18.656  0.00  0.00    +0.000 A 
ATOM     12  C   UNL     1       2.378   2.647  17.879  0.00  0.00    +0.000 A 
ATOM     13  C   UNL     1       1.212   2.461  18.659  0.00  0.00    +0.000 A 
ATOM     14  C   UNL     1       1.455   3.076  19.863  0.00  0.00    +0.000 A 
ATOM     15  O   UNL     1       2.699   3.623  19.876  0.00  0.00    +0.000 OA
ENDBRANCH   8  11
ENDBRANCH   6   7
ENDBRANCH   1   6
BRANCH   3  16
ATOM     16  C   UNL     1       7.638   8.372  17.483  0.00  0.00    +0.000 C 
BRANCH  16  17
ATOM     17  C   UNL     1       8.656   8.577  18.603  0.00  0.00    +0.000 C 
BRANCH  17  18
ATOM     18  C   UNL     1       8.966  10.040  18.822  0.00  0.00    +0.000 A 
ATOM     19  C   UNL     1       9.481  10.481  20.050  0.00  0.00    +0.000 A 
ATOM     20  C   UNL     1       9.785  11.828  20.249  0.00  0.00    +0.000 A 
ATOM     21  C   UNL     1       9.577  12.741  19.212  0.00  0.00    +0.000 A 
ATOM     22  C   UNL     1       9.024  12.327  18.000  0.00  0.00    +0.000 A 
ATOM     23  C   UNL     1       8.721  10.977  17.807  0.00  0.00    +0.000 A 
BRANCH  21  24
ATOM     24  S   UNL     1      10.005  14.440  19.447  0.00  0.00    +0.000 S 
ATOM     25  O   UNL     1       8.805  15.210  19.681  0.00  0.00    +0.000 OA
ATOM     26  O   UNL     1      11.163  14.529  20.303  0.00  0.00    +0.000 OA
BRANCH  24  27
ATOM     27  N   UNL     1      10.532  14.868  17.910  0.00  0.00    +0.000 NA
ATOM     28  H   UNL     1      11.028  15.758  17.947  0.00  0.00    +0.000 HD
ATOM     29  H   UNL     1      11.073  14.106  17.502  0.00  0.00    +0.000 HD
ENDBRANCH  24  27
ENDBRANCH  21  24
ENDBRANCH  17  18
ENDBRANCH  16  17
ENDBRANCH   3  16
TORSDOF 8
ENDMDL
MODEL 9
REMARK VINA RESULT:      -7.7      4.765      7.555
REMARK  Name = 
REMARK  9 active torsions:
REMARK  status: ('A' for Active; 'I' for Inactive)
REMARK    1  A    between atoms: C_1  and  C_2
REMARK    2  A    between atoms: C_2  and  N_3
REMARK    3  A    between atoms: C_2  and  C_11
REMARK    4  A    between atoms: C_4  and  C_6
REMARK    5  A    between atoms: N_13  and  C_14
REMARK    6  A    between atoms: C_14  and  C_15
REMARK    7  A    between atoms: C_15  and  C_16
REMARK    8  A    between atoms: C_19  and  S_20
REMARK    9  A    between atoms: S_20  and  N_21
REMARK                            x       y       z     vdW  Elec       q    Type
REMARK                         _______ _______ _______ _____ _____    ______ ____
ROOT
ATOM      1  C   UNL     1       6.922   5.793  16.611  0.00  0.00    +0.000 C 
ATOM      2  O   UNL     1       7.641   6.018  15.640  0.00  0.00    +0.000 OA
ATOM      3  N   UNL     1       6.650   6.750  17.572  0.00  0.00    +0.000 N 
ATOM      4  H   UNL     1       5.811   6.621  18.135  0.00  0.00    +0.000 HD
ENDROOT
BRANCH   1   6
ATOM      5  C   UNL     1       5.900   3.808  15.467  0.00  0.00    +0.000 C 
ATOM      6  C   UNL     1       6.197   4.451  16.817  0.00  0.00    +0.000 C 
BRANCH   6   7
ATOM      7  N   UNL     1       4.955   4.661  17.547  0.00  0.00    +0.000 N 
ATOM      8  C   UNL     1       4.750   4.195  18.824  0.00  0.00    +0.000 C 
ATOM      9  O   UNL     1       5.641   3.618  19.449  0.00  0.00    +0.000 OA
ATOM     10  H   UNL     1       4.257   5.294  17.168  0.00  0.00    +0.000 HD
BRANCH   8  11
ATOM     11  C   UNL     1       3.422   4.439  19.342  0.00  0.00    +0.000 A 
ATOM     12  C   UNL     1       2.928   5.442  20.156  0.00  0.00    +0.000 A 
ATOM     13  C   UNL     1       1.557   5.161  20.368  0.00  0.00    +0.000 A 
ATOM     14  C   UNL     1       1.293   4.003  19.677  0.00  0.00    +0.000 A 
ATOM     15  O   UNL     1       2.412   3.557  19.049  0.00  0.00    +0.000 OA
ENDBRANCH   8  11
ENDBRANCH   6   7
ENDBRANCH   1   6
BRANCH   3  16
ATOM     16  C   UNL     1       7.267   8.060  17.469  0.00  0.00    +0.000 C 
BRANCH  16  17
ATOM     17  C   UNL     1       8.414   8.265  18.456  0.00  0.00    +0.000 C 
BRANCH  17  18
ATOM     18  C   UNL     1       8.776   9.724  18.605  0.00  0.00    +0.000 A 
ATOM     19  C   UNL     1       9.524  10.161  19.709  0.00  0.00    +0.000 A 
ATOM     20  C   UNL     1       9.874  11.506  19.841  0.00  0.00    +0.000 A 
ATOM     21  C   UNL     1       9.478  12.420  18.861  0.00  0.00    +0.000 A 
ATOM     22  C   UNL     1       8.696  12.010  17.780  0.00  0.00    +0.000 A 
ATOM     23  C   UNL     1       8.348  10.662  17.654  0.00  0.00    +0.000 A 
BRANCH  21  24
ATOM     24  S   UNL     1       9.960  14.114  19.003  0.00  0.00    +0.000 S 
ATOM     25  O   UNL     1      10.771  14.285  20.187  0.00  0.00    +0.000 OA
ATOM     26  O   UNL     1      10.363  14.608  17.708  0.00  0.00    +0.000 OA
BRANCH  24  27
ATOM     27  N   UNL     1       8.490  14.853  19.343  0.00  0.00    +0.000 NA
ATOM     28  H   UNL     1       7.724  14.295  18.968  0.00  0.00    +0.000 HD
ATOM     29  H   UNL     1       8.418  15.044  20.342  0.00  0.00    +0.000 HD
ENDBRANCH  24  27
ENDBRANCH  21  24
ENDBRANCH  17  18
ENDBRANCH  16  17
ENDBRANCH   3  16
TORSDOF 8
ENDMDL
