MODEL 1
REMARK VINA RESULT:      -8.0      0.000      0.000
REMARK  Name = 
REMARK  7 active torsions:
REMARK  status: ('A' for Active; 'I' for Inactive)
REMARK    1  A    between atoms: C_1  and  S_2
REMARK    2  A    between atoms: S_2  and  C_3
REMARK    3  A    between atoms: C_6  and  C_7
REMARK    4  A    between atoms: C_8  and  C_9
REMARK    5  A    between atoms: C_9  and  O_11
REMARK    6  A    between atoms: O_11  and  C_12
REMARK    7  A    between atoms: C_12  and  C_13
REMARK                            x       y       z     vdW  Elec       q    Type
REMARK                         _______ _______ _______ _____ _____    ______ ____
ROOT
ATOM      1  C   UNL     1       7.312   6.949  17.307  0.00  0.00    +0.000 C 
ATOM      2  O   UNL     1       6.412   7.140  16.506  0.00  0.00    +0.000 OA
ENDROOT
BRANCH   1   4
ATOM      3  C   UNL     1       8.188   9.211  17.612  0.00  0.00    +0.000 C 
ATOM      4  C   UNL     1       7.974   7.990  18.122  0.00  0.00    +0.000 C 
BRANCH   3   8
ATOM      5  C   UNL     1       9.930  12.533  19.728  0.00  0.00    +0.000 A 
ATOM      6  C   UNL     1       9.334  12.695  18.471  0.00  0.00    +0.000 A 
ATOM      7  C   UNL     1       8.765  11.606  17.799  0.00  0.00    +0.000 A 
ATOM      8  C   UNL     1       8.799  10.325  18.357  0.00  0.00    +0.000 A 
ATOM      9  C   UNL     1       9.371  10.169  19.625  0.00  0.00    +0.000 A 
ATOM     10  C   UNL     1       9.941  11.260  20.298  0.00  0.00    +0.000 A 
BRANCH   5  12
ATOM     11  C   UNL     1      10.523  15.219  19.165  0.00  0.00    +0.000 C 
ATOM     12  S   UNL     1      10.692  13.971  20.467  0.00  0.00    +0.000 S 
ENDBRANCH   5  12
ENDBRANCH   3   8
ENDBRANCH   1   4
BRANCH   1  13
ATOM     13  O   UNL     1       7.844   5.749  17.651  0.00  0.00    +0.000 OA
BRANCH  13  14
ATOM     14  C   UNL     1       6.926   4.654  17.546  0.00  0.00    +0.000 C 
BRANCH  14  15
ATOM     15  C   UNL     1       5.962   4.670  18.743  0.00  0.00    +0.000 C 
ATOM     16  O   UNL     1       6.374   4.919  19.878  0.00  0.00    +0.000 OA
ATOM     17  N   UNL     1       4.612   4.396  18.492  0.00  0.00    +0.000 N 
ATOM     18  C   UNL     1       3.661   4.614  19.584  0.00  0.00    +0.000 C 
ATOM     19  C   UNL     1       3.195   3.307  20.218  0.00  0.00    +0.000 C 
ATOM     20  C   UNL     1       2.083   2.615  19.438  0.00  0.00    +0.000 C 
ATOM     21  C   UNL     1       2.459   2.223  18.011  0.00  0.00    +0.000 C 
ATOM     22  C   UNL     1       2.706   3.423  17.099  0.00  0.00    +0.000 C 
ATOM     23  C   UNL     1       4.124   3.991  17.179  0.00  0.00    +0.000 C 
ENDBRANCH  14  15
ENDBRANCH  13  14
ENDBRANCH   1  13
TORSDOF 6
ENDMDL
MODEL 2
REMARK VINA RESULT:      -7.9      1.377      1.978
REMARK  Name = 
REMARK  7 active torsions:
REMARK  status: ('A' for Active; 'I' for Inactive)
REMARK    1  A    between atoms: C_1  and  S_2
REMARK    2  A    between atoms: S_2  and  C_3
REMARK    3  A    between atoms: C_6  and  C_7
REMARK    4  A    between atoms: C_8  and  C_9
REMARK    5  A    between atoms: C_9  and  O_11
REMARK    6  A    between atoms: O_11  and  C_12
REMARK    7  A    between atoms: C_12  and  C_13
REMARK                            x       y       z     vdW  Elec       q    Type
REMARK                         _______ _______ _______ _____ _____    ______ ____
ROOT
ATOM      1  C   UNL     1       7.153   6.705  17.153  0.00  0.00    +0.000 C 
ATOM      2  O   UNL     1       7.563   6.024  16.228  0.00  0.00    +0.000 OA
ENDROOT
BRANCH   1   4
ATOM      3  C   UNL     1       8.382   8.469  18.316  0.00  0.00    +0.000 C 
ATOM      4  C   UNL     1       7.481   8.128  17.385  0.00  0.00    +0.000 C 
BRANCH   3   8
ATOM      5  C   UNL     1       9.566  12.544  19.052  0.00  0.00    +0.000 A 
ATOM      6  C   UNL     1       8.852  12.183  17.903  0.00  0.00    +0.000 A 
ATOM      7  C   UNL     1       8.467  10.855  17.682  0.00  0.00    +0.000 A 
ATOM      8  C   UNL     1       8.808   9.851  18.592  0.00  0.00    +0.000 A 
ATOM      9  C   UNL     1       9.499  10.216  19.754  0.00  0.00    +0.000 A 
ATOM     10  C   UNL     1       9.885  11.547  19.976  0.00  0.00    +0.000 A 
BRANCH   5  12
ATOM     11  C   UNL     1       8.517  15.089  19.601  0.00  0.00    +0.000 C 
ATOM     12  S   UNL     1      10.073  14.251  19.203  0.00  0.00    +0.000 S 
ENDBRANCH   5  12
ENDBRANCH   3   8
ENDBRANCH   1   4
BRANCH   1  13
ATOM     13  O   UNL     1       6.276   6.317  18.113  0.00  0.00    +0.000 OA
BRANCH  13  14
ATOM     14  C   UNL     1       4.903   6.383  17.709  0.00  0.00    +0.000 C 
BRANCH  14  15
ATOM     15  C   UNL     1       4.350   4.961  17.518  0.00  0.00    +0.000 C 
ATOM     16  O   UNL     1       4.510   4.363  16.451  0.00  0.00    +0.000 OA
ATOM     17  N   UNL     1       3.668   4.381  18.594  0.00  0.00    +0.000 N 
ATOM     18  C   UNL     1       3.324   2.962  18.493  0.00  0.00    +0.000 C 
ATOM     19  C   UNL     1       1.843   2.742  18.204  0.00  0.00    +0.000 C 
ATOM     20  C   UNL     1       0.962   2.828  19.446  0.00  0.00    +0.000 C 
ATOM     21  C   UNL     1       1.006   4.176  20.161  0.00  0.00    +0.000 C 
ATOM     22  C   UNL     1       2.365   4.485  20.787  0.00  0.00    +0.000 C 
ATOM     23  C   UNL     1       3.372   5.111  19.821  0.00  0.00    +0.000 C 
ENDBRANCH  14  15
ENDBRANCH  13  14
ENDBRANCH   1  13
TORSDOF 6
ENDMDL
MODEL 3
REMARK VINA RESULT:      -7.8      1.170      2.108
REMARK  Name = 
REMARK  7 active torsions:
REMARK  status: ('A' for Active; 'I' for Inactive)
REMARK    1  A    between atoms: C_1  and  S_2
REMARK    2  A    between atoms: S_2  and  C_3
REMARK    3  A    between atoms: C_6  and  C_7
REMARK    4  A    between atoms: C_8  and  C_9
REMARK    5  A    between atoms: C_9  and  O_11
REMARK    6  A    between atoms: O_11  and  C_12
REMARK    7  A    between atoms: C_12  and  C_13
REMARK                            x       y       z     vdW  Elec       q    Type
REMARK                         _______ _______ _______ _____ _____    ______ ____
ROOT
ATOM      1  C   UNL     1       7.350   6.695  17.400  0.00  0.00    +0.000 C 
ATOM      2  O   UNL     1       7.540   6.278  16.270  0.00  0.00    +0.000 OA
ENDROOT
BRANCH   1   4
ATOM      3  C   UNL     1       7.887   9.066  17.662  0.00  0.00    +0.000 C 
ATOM      4  C   UNL     1       8.092   7.799  18.046  0.00  0.00    +0.000 C 
BRANCH   3   8
ATOM      5  C   UNL     1       9.851  12.424  19.508  0.00  0.00    +0.000 A 
ATOM      6  C   UNL     1       9.846  11.158  20.105  0.00  0.00    +0.000 A 
ATOM      7  C   UNL     1       9.210  10.073  19.489  0.00  0.00    +0.000 A 
ATOM      8  C   UNL     1       8.543  10.235  18.272  0.00  0.00    +0.000 A 
ATOM      9  C   UNL     1       8.570  11.495  17.662  0.00  0.00    +0.000 A 
ATOM     10  C   UNL     1       9.208  12.581  18.279  0.00  0.00    +0.000 A 
BRANCH   5  12
ATOM     11  C   UNL     1       9.623  13.849  21.917  0.00  0.00    +0.000 C 
ATOM     12  S   UNL     1      10.628  13.756  20.412  0.00  0.00    +0.000 S 
ENDBRANCH   5  12
ENDBRANCH   3   8
ENDBRANCH   1   4
BRANCH   1  13
ATOM     13  O   UNL     1       6.391   6.275  18.264  0.00  0.00    +0.000 OA
BRANCH  13  14
ATOM     14  C   UNL     1       6.167   4.861  18.240  0.00  0.00    +0.000 C 
BRANCH  14  15
ATOM     15  C   UNL     1       4.806   4.563  17.591  0.00  0.00    +0.000 C 
ATOM     16  O   UNL     1       4.513   5.048  16.496  0.00  0.00    +0.000 OA
ATOM     17  N   UNL     1       3.925   3.725  18.285  0.00  0.00    +0.000 N 
ATOM     18  C   UNL     1       2.723   3.273  17.583  0.00  0.00    +0.000 C 
ATOM     19  C   UNL     1       1.467   3.998  18.055  0.00  0.00    +0.000 C 
ATOM     20  C   UNL     1       0.883   3.427  19.343  0.00  0.00    +0.000 C 
ATOM     21  C   UNL     1       1.821   3.488  20.545  0.00  0.00    +0.000 C 
ATOM     22  C   UNL     1       3.050   2.592  20.400  0.00  0.00    +0.000 C 
ATOM     23  C   UNL     1       4.206   3.232  19.629  0.00  0.00    +0.000 C 
ENDBRANCH  14  15
ENDBRANCH  13  14
ENDBRANCH   1  13
TORSDOF 6
ENDMDL
MODEL 4
REMARK VINA RESULT:      -7.8      1.238      2.242
REMARK  Name = 
REMARK  7 active torsions:
REMARK  status: ('A' for Active; 'I' for Inactive)
REMARK    1  A    between atoms: C_1  and  S_2
REMARK    2  A    between atoms: S_2  and  C_3
REMARK    3  A    between atoms: C_6  and  C_7
REMARK    4  A    between atoms: C_8  and  C_9
REMARK    5  A    between atoms: C_9  and  O_11
REMARK    6  A    between atoms: O_11  and  C_12
REMARK    7  A    between atoms: C_12  and  C_13
REMARK                            x       y       z     vdW  Elec       q    Type
REMARK                         _______ _______ _______ _____ _____    ______ ____
ROOT
ATOM      1  C   UNL     1       7.642   7.408  17.826  0.00  0.00    +0.000 C 
ATOM      2  O   UNL     1       7.995   6.500  18.560  0.00  0.00    +0.000 OA
ENDROOT
BRANCH   1   4
ATOM      3  C   UNL     1       8.914   9.196  18.904  0.00  0.00    +0.000 C 
ATOM      4  C   UNL     1       8.110   8.809  17.905  0.00  0.00    +0.000 C 
BRANCH   3   8
ATOM      5  C   UNL     1      10.537  13.153  19.415  0.00  0.00    +0.000 A 
ATOM      6  C   UNL     1      10.094  12.395  20.506  0.00  0.00    +0.000 A 
ATOM      7  C   UNL     1       9.576  11.107  20.325  0.00  0.00    +0.000 A 
ATOM      8  C   UNL     1       9.466  10.554  19.046  0.00  0.00    +0.000 A 
ATOM      9  C   UNL     1       9.934  11.301  17.958  0.00  0.00    +0.000 A 
ATOM     10  C   UNL     1      10.454  12.592  18.139  0.00  0.00    +0.000 A 
BRANCH   5  12
ATOM     11  C   UNL     1       9.657  15.818  19.358  0.00  0.00    +0.000 C 
ATOM     12  S   UNL     1      11.113  14.812  19.746  0.00  0.00    +0.000 S 
ENDBRANCH   5  12
ENDBRANCH   3   8
ENDBRANCH   1   4
BRANCH   1  13
ATOM     13  O   UNL     1       6.804   7.307  16.764  0.00  0.00    +0.000 OA
BRANCH  13  14
ATOM     14  C   UNL     1       5.429   7.123  17.124  0.00  0.00    +0.000 C 
BRANCH  14  15
ATOM     15  C   UNL     1       5.000   5.681  16.811  0.00  0.00    +0.000 C 
ATOM     16  O   UNL     1       5.242   5.179  15.711  0.00  0.00    +0.000 OA
ATOM     17  N   UNL     1       4.334   4.970  17.816  0.00  0.00    +0.000 N 
ATOM     18  C   UNL     1       4.110   3.539  17.601  0.00  0.00    +0.000 C 
ATOM     19  C   UNL     1       2.661   3.226  17.241  0.00  0.00    +0.000 C 
ATOM     20  C   UNL     1       1.737   3.149  18.452  0.00  0.00    +0.000 C 
ATOM     21  C   UNL     1       1.648   4.439  19.263  0.00  0.00    +0.000 C 
ATOM     22  C   UNL     1       2.957   4.807  19.960  0.00  0.00    +0.000 C 
ATOM     23  C   UNL     1       3.940   5.581  19.081  0.00  0.00    +0.000 C 
ENDBRANCH  14  15
ENDBRANCH  13  14
ENDBRANCH   1  13
TORSDOF 6
ENDMDL
MODEL 5
REMARK VINA RESULT:      -7.8      1.238      1.922
REMARK  Name = 
REMARK  7 active torsions:
REMARK  status: ('A' for Active; 'I' for Inactive)
REMARK    1  A    between atoms: C_1  and  S_2
REMARK    2  A    between atoms: S_2  and  C_3
REMARK    3  A    between atoms: C_6  and  C_7
REMARK    4  A    between atoms: C_8  and  C_9
REMARK    5  A    between atoms: C_9  and  O_11
REMARK    6  A    between atoms: O_11  and  C_12
REMARK    7  A    between atoms: C_12  and  C_13
REMARK                            x       y       z     vdW  Elec       q    Type
REMARK                         _______ _______ _______ _____ _____    ______ ____
ROOT
ATOM      1  C   UNL     1       7.416   6.990  17.400  0.00  0.00    +0.000 C 
ATOM      2  O   UNL     1       7.568   6.389  16.349  0.00  0.00    +0.000 OA
ENDROOT
BRANCH   1   4
ATOM      3  C   UNL     1       8.619   8.758  18.585  0.00  0.00    +0.000 C 
ATOM      4  C   UNL     1       7.743   8.413  17.631  0.00  0.00    +0.000 C 
BRANCH   3   8
ATOM      5  C   UNL     1       9.895  12.772  19.482  0.00  0.00    +0.000 A 
ATOM      6  C   UNL     1       9.901  11.765  20.455  0.00  0.00    +0.000 A 
ATOM      7  C   UNL     1       9.491  10.463  20.146  0.00  0.00    +0.000 A 
ATOM      8  C   UNL     1       9.042  10.141  18.863  0.00  0.00    +0.000 A 
ATOM      9  C   UNL     1       9.061  11.141  17.883  0.00  0.00    +0.000 A 
ATOM     10  C   UNL     1       9.472  12.446  18.192  0.00  0.00    +0.000 A 
BRANCH   5  12
ATOM     11  C   UNL     1       9.967  15.417  18.541  0.00  0.00    +0.000 C 
ATOM     12  S   UNL     1      10.367  14.417  19.998  0.00  0.00    +0.000 S 
ENDBRANCH   5  12
ENDBRANCH   3   8
ENDBRANCH   1   4
BRANCH   1  13
ATOM     13  O   UNL     1       6.870   6.497  18.540  0.00  0.00    +0.000 OA
BRANCH  13  14
ATOM     14  C   UNL     1       6.161   5.265  18.359  0.00  0.00    +0.000 C 
BRANCH  14  15
ATOM     15  C   UNL     1       4.647   5.529  18.384  0.00  0.00    +0.000 C 
ATOM     16  O   UNL     1       4.194   6.618  18.024  0.00  0.00    +0.000 OA
ATOM     17  N   UNL     1       3.815   4.493  18.825  0.00  0.00    +0.000 N 
ATOM     18  C   UNL     1       2.371   4.663  18.655  0.00  0.00    +0.000 C 
ATOM     19  C   UNL     1       1.666   4.989  19.967  0.00  0.00    +0.000 C 
ATOM     20  C   UNL     1       1.382   3.762  20.826  0.00  0.00    +0.000 C 
ATOM     21  C   UNL     1       2.625   2.986  21.254  0.00  0.00    +0.000 C 
ATOM     22  C   UNL     1       3.356   2.322  20.088  0.00  0.00    +0.000 C 
ATOM     23  C   UNL     1       4.338   3.240  19.359  0.00  0.00    +0.000 C 
ENDBRANCH  14  15
ENDBRANCH  13  14
ENDBRANCH   1  13
TORSDOF 6
ENDMDL
MODEL 6
REMARK VINA RESULT:      -7.7      5.277      6.215
REMARK  Name = 
REMARK  7 active torsions:
REMARK  status: ('A' for Active; 'I' for Inactive)
REMARK    1  A    between atoms: C_1  and  S_2
REMARK    2  A    between atoms: S_2  and  C_3
REMARK    3  A    between atoms: C_6  and  C_7
REMARK    4  A    between atoms: C_8  and  C_9
REMARK    5  A    between atoms: C_9  and  O_11
REMARK    6  A    between atoms: O_11  and  C_12
REMARK    7  A    between atoms: C_12  and  C_13
REMARK                            x       y       z     vdW  Elec       q    Type
REMARK                         _______ _______ _______ _____ _____    ______ ____
ROOT
ATOM      1  C   UNL     1       4.972   6.069  16.646  0.00  0.00    +0.000 C 
ATOM      2  O   UNL     1       5.535   6.080  15.563  0.00  0.00    +0.000 OA
ENDROOT
BRANCH   1   4
ATOM      3  C   UNL     1       3.176   6.853  18.107  0.00  0.00    +0.000 C 
ATOM      4  C   UNL     1       4.089   7.134  17.167  0.00  0.00    +0.000 C 
BRANCH   3   8
ATOM      5  C   UNL     1       0.537   9.801  19.809  0.00  0.00    +0.000 A 
ATOM      6  C   UNL     1       0.905   9.837  18.459  0.00  0.00    +0.000 A 
ATOM      7  C   UNL     1       1.758   8.867  17.918  0.00  0.00    +0.000 A 
ATOM      8  C   UNL     1       2.283   7.850  18.720  0.00  0.00    +0.000 A 
ATOM      9  C   UNL     1       1.894   7.798  20.064  0.00  0.00    +0.000 A 
ATOM     10  C   UNL     1       1.039   8.770  20.606  0.00  0.00    +0.000 A 
BRANCH   5  12
ATOM     11  C   UNL     1      -1.286  11.734  18.903  0.00  0.00    +0.000 C 
ATOM     12  S   UNL     1      -0.496  11.127  20.416  0.00  0.00    +0.000 S 
ENDBRANCH   5  12
ENDBRANCH   3   8
ENDBRANCH   1   4
BRANCH   1  13
ATOM     13  O   UNL     1       4.995   5.063  17.556  0.00  0.00    +0.000 OA
BRANCH  13  14
ATOM     14  C   UNL     1       4.727   3.770  17.001  0.00  0.00    +0.000 C 
BRANCH  14  15
ATOM     15  C   UNL     1       3.280   3.359  17.316  0.00  0.00    +0.000 C 
ATOM     16  O   UNL     1       2.382   3.539  16.490  0.00  0.00    +0.000 OA
ATOM     17  N   UNL     1       3.029   2.777  18.563  0.00  0.00    +0.000 N 
ATOM     18  C   UNL     1       1.703   2.197  18.787  0.00  0.00    +0.000 C 
ATOM     19  C   UNL     1       0.830   3.071  19.682  0.00  0.00    +0.000 C 
ATOM     20  C   UNL     1       1.116   2.894  21.169  0.00  0.00    +0.000 C 
ATOM     21  C   UNL     1       2.542   3.243  21.586  0.00  0.00    +0.000 C 
ATOM     22  C   UNL     1       3.591   2.295  21.007  0.00  0.00    +0.000 C 
ATOM     23  C   UNL     1       4.053   2.657  19.595  0.00  0.00    +0.000 C 
ENDBRANCH  14  15
ENDBRANCH  13  14
ENDBRANCH   1  13
TORSDOF 6
ENDMDL
MODEL 7
REMARK VINA RESULT:      -7.7      1.293      2.229
REMARK  Name = 
REMARK  7 active torsions:
REMARK  status: ('A' for Active; 'I' for Inactive)
REMARK    1  A    between atoms: C_1  and  S_2
REMARK    2  A    between atoms: S_2  and  C_3
REMARK    3  A    between atoms: C_6  and  C_7
REMARK    4  A    between atoms: C_8  and  C_9
REMARK    5  A    between atoms: C_9  and  O_11
REMARK    6  A    between atoms: O_11  and  C_12
REMARK    7  A    between atoms: C_12  and  C_13
REMARK                            x       y       z     vdW  Elec       q    Type
REMARK                         _______ _______ _______ _____ _____    ______ ____
ROOT
ATOM      1  C   UNL     1       7.032   6.718  17.346  0.00  0.00    +0.000 C 
ATOM      2  O   UNL     1       7.763   5.786  17.643  0.00  0.00    +0.000 OA
ENDROOT
BRANCH   1   4
ATOM      3  C   UNL     1       8.410   8.507  18.283  0.00  0.00    +0.000 C 
ATOM      4  C   UNL     1       7.311   8.146  17.605  0.00  0.00    +0.000 C 
BRANCH   3   8
ATOM      5  C   UNL     1       9.600  12.555  19.146  0.00  0.00    +0.000 A 
ATOM      6  C   UNL     1       9.847  11.509  20.045  0.00  0.00    +0.000 A 
ATOM      7  C   UNL     1       9.461  10.197  19.746  0.00  0.00    +0.000 A 
ATOM      8  C   UNL     1       8.798   9.902  18.552  0.00  0.00    +0.000 A 
ATOM      9  C   UNL     1       8.574  10.942  17.642  0.00  0.00    +0.000 A 
ATOM     10  C   UNL     1       8.962  12.257  17.941  0.00  0.00    +0.000 A 
BRANCH   5  12
ATOM     11  C   UNL     1       9.304  15.239  18.379  0.00  0.00    +0.000 C 
ATOM     12  S   UNL     1      10.067  14.203  19.655  0.00  0.00    +0.000 S 
ENDBRANCH   5  12
ENDBRANCH   3   8
ENDBRANCH   1   4
BRANCH   1  13
ATOM     13  O   UNL     1       5.856   6.637  16.675  0.00  0.00    +0.000 OA
BRANCH  13  14
ATOM     14  C   UNL     1       4.715   6.450  17.521  0.00  0.00    +0.000 C 
BRANCH  14  15
ATOM     15  C   UNL     1       4.262   4.982  17.463  0.00  0.00    +0.000 C 
ATOM     16  O   UNL     1       4.452   4.305  16.450  0.00  0.00    +0.000 OA
ATOM     17  N   UNL     1       3.635   4.452  18.597  0.00  0.00    +0.000 N 
ATOM     18  C   UNL     1       3.392   3.009  18.626  0.00  0.00    +0.000 C 
ATOM     19  C   UNL     1       1.927   2.661  18.382  0.00  0.00    +0.000 C 
ATOM     20  C   UNL     1       1.056   2.794  19.627  0.00  0.00    +0.000 C 
ATOM     21  C   UNL     1       1.012   4.199  20.222  0.00  0.00    +0.000 C 
ATOM     22  C   UNL     1       2.352   4.656  20.795  0.00  0.00    +0.000 C 
ATOM     23  C   UNL     1       3.301   5.264  19.762  0.00  0.00    +0.000 C 
ENDBRANCH  14  15
ENDBRANCH  13  14
ENDBRANCH   1  13
TORSDOF 6
ENDMDL
MODEL 8
REMARK VINA RESULT:      -7.6      5.235      6.297
REMARK  Name = 
REMARK  7 active torsions:
REMARK  status: ('A' for Active; 'I' for Inactive)
REMARK    1  A    between atoms: C_1  and  S_2
REMARK    2  A    between atoms: S_2  and  C_3
REMARK    3  A    between atoms: C_6  and  C_7
REMARK    4  A    between atoms: C_8  and  C_9
REMARK    5  A    between atoms: C_9  and  O_11
REMARK    6  A    between atoms: O_11  and  C_12
REMARK    7  A    between atoms: C_12  and  C_13
REMARK                            x       y       z     vdW  Elec       q    Type
REMARK                         _______ _______ _______ _____ _____    ______ ____
ROOT
ATOM      1  C   UNL     1       5.125   6.009  16.795  0.00  0.00    +0.000 C 
ATOM      2  O   UNL     1       5.815   6.046  15.790  0.00  0.00    +0.000 OA
ENDROOT
BRANCH   1   4
ATOM      3  C   UNL     1       3.225   6.809  18.109  0.00  0.00    +0.000 C 
ATOM      4  C   UNL     1       4.226   7.086  17.262  0.00  0.00    +0.000 C 
BRANCH   3   8
ATOM      5  C   UNL     1       0.561   9.728  19.821  0.00  0.00    +0.000 A 
ATOM      6  C   UNL     1       1.112   8.696  20.591  0.00  0.00    +0.000 A 
ATOM      7  C   UNL     1       1.983   7.759  20.022  0.00  0.00    +0.000 A 
ATOM      8  C   UNL     1       2.306   7.817  18.663  0.00  0.00    +0.000 A 
ATOM      9  C   UNL     1       1.775   8.864  17.899  0.00  0.00    +0.000 A 
ATOM     10  C   UNL     1       0.902   9.803  18.470  0.00  0.00    +0.000 A 
BRANCH   5  12
ATOM     11  C   UNL     1      -0.361  10.429  22.379  0.00  0.00    +0.000 C 
ATOM     12  S   UNL     1      -0.597  10.826  20.627  0.00  0.00    +0.000 S 
ENDBRANCH   5  12
ENDBRANCH   3   8
ENDBRANCH   1   4
BRANCH   1  13
ATOM     13  O   UNL     1       4.999   4.961  17.648  0.00  0.00    +0.000 OA
BRANCH  13  14
ATOM     14  C   UNL     1       4.679   3.722  17.005  0.00  0.00    +0.000 C 
BRANCH  14  15
ATOM     15  C   UNL     1       3.232   3.323  17.336  0.00  0.00    +0.000 C 
ATOM     16  O   UNL     1       2.328   3.505  16.518  0.00  0.00    +0.000 OA
ATOM     17  N   UNL     1       2.989   2.750  18.590  0.00  0.00    +0.000 N 
ATOM     18  C   UNL     1       1.662   2.181  18.830  0.00  0.00    +0.000 C 
ATOM     19  C   UNL     1       0.803   3.065  19.727  0.00  0.00    +0.000 C 
ATOM     20  C   UNL     1       1.102   2.895  21.213  0.00  0.00    +0.000 C 
ATOM     21  C   UNL     1       2.535   3.237  21.614  0.00  0.00    +0.000 C 
ATOM     22  C   UNL     1       3.572   2.278  21.031  0.00  0.00    +0.000 C 
ATOM     23  C   UNL     1       4.023   2.628  19.612  0.00  0.00    +0.000 C 
ENDBRANCH  14  15
ENDBRANCH  13  14
ENDBRANCH   1  13
TORSDOF 6
ENDMDL
MODEL 9
REMARK VINA RESULT:      -7.6      1.032      1.961
REMARK  Name = 
REMARK  7 active torsions:
REMARK  status: ('A' for Active; 'I' for Inactive)
REMARK    1  A    between atoms: C_1  and  S_2
REMARK    2  A    between atoms: S_2  and  C_3
REMARK    3  A    between atoms: C_6  and  C_7
REMARK    4  A    between atoms: C_8  and  C_9
REMARK    5  A    between atoms: C_9  and  O_11
REMARK    6  A    between atoms: O_11  and  C_12
REMARK    7  A    between atoms: C_12  and  C_13
REMARK                            x       y       z     vdW  Elec       q    Type
REMARK                         _______ _______ _______ _____ _____    ______ ____
ROOT
ATOM      1  C   UNL     1       7.255   6.651  17.464  0.00  0.00    +0.000 C 
ATOM      2  O   UNL     1       6.921   6.682  16.291  0.00  0.00    +0.000 OA
ENDROOT
BRANCH   1   4
ATOM      3  C   UNL     1       8.028   8.963  17.643  0.00  0.00    +0.000 C 
ATOM      4  C   UNL     1       7.921   7.748  18.198  0.00  0.00    +0.000 C 
BRANCH   3   8
ATOM      5  C   UNL     1       9.843  12.311  19.655  0.00  0.00    +0.000 A 
ATOM      6  C   UNL     1       9.827  11.032  20.225  0.00  0.00    +0.000 A 
ATOM      7  C   UNL     1       9.240   9.951  19.555  0.00  0.00    +0.000 A 
ATOM      8  C   UNL     1       8.633  10.128  18.309  0.00  0.00    +0.000 A 
ATOM      9  C   UNL     1       8.672  11.401  17.727  0.00  0.00    +0.000 A 
ATOM     10  C   UNL     1       9.260  12.484  18.398  0.00  0.00    +0.000 A 
BRANCH   5  12
ATOM     11  C   UNL     1       9.687  15.094  19.987  0.00  0.00    +0.000 C 
ATOM     12  S   UNL     1      10.551  13.635  20.624  0.00  0.00    +0.000 S 
ENDBRANCH   5  12
ENDBRANCH   3   8
ENDBRANCH   1   4
BRANCH   1  13
ATOM     13  O   UNL     1       7.033   5.637  18.339  0.00  0.00    +0.000 OA
BRANCH  13  14
ATOM     14  C   UNL     1       5.678   5.551  18.797  0.00  0.00    +0.000 C 
BRANCH  14  15
ATOM     15  C   UNL     1       5.033   4.262  18.264  0.00  0.00    +0.000 C 
ATOM     16  O   UNL     1       5.421   3.753  17.211  0.00  0.00    +0.000 OA
ATOM     17  N   UNL     1       3.999   3.695  19.019  0.00  0.00    +0.000 N 
ATOM     18  C   UNL     1       3.525   2.365  18.631  0.00  0.00    +0.000 C 
ATOM     19  C   UNL     1       2.177   2.414  17.917  0.00  0.00    +0.000 C 
ATOM     20  C   UNL     1       0.990   2.517  18.869  0.00  0.00    +0.000 C 
ATOM     21  C   UNL     1       0.990   3.764  19.749  0.00  0.00    +0.000 C 
ATOM     22  C   UNL     1       2.134   3.790  20.761  0.00  0.00    +0.000 C 
ATOM     23  C   UNL     1       3.450   4.339  20.208  0.00  0.00    +0.000 C 
ENDBRANCH  14  15
ENDBRANCH  13  14
ENDBRANCH   1  13
TORSDOF 6
ENDMDL
