MODEL 1
REMARK VINA RESULT:      -7.1      0.000      0.000
REMARK  Name = 
REMARK  14 active torsions:
REMARK  status: ('A' for Active; 'I' for Inactive)
REMARK    1  A    between atoms: C_1  and  C_2
REMARK    2  A    between atoms: C_2  and  O_4
REMARK    3  A    between atoms: O_4  and  C_5
REMARK    4  A    between atoms: C_5  and  C_6
REMARK    5  A    between atoms: C_7  and  C_8
REMARK    6  A    between atoms: C_8  and  O_9
REMARK    7  A    between atoms: O_9  and  C_10
REMARK    8  A    between atoms: C_10  and  C_11
REMARK    9  A    between atoms: C_16  and  O_17
REMARK   10  A    between atoms: O_17  and  C_18
REMARK   11  A    between atoms: C_18  and  C_19
REMARK   12  A    between atoms: C_21  and  O_22
REMARK   13  A    between atoms: O_22  and  C_23
REMARK   14  A    between atoms: C_23  and  C_24
REMARK                            x       y       z     vdW  Elec       q    Type
REMARK                         _______ _______ _______ _____ _____    ______ ____
ROOT
ATOM      1  C   UNL     1       4.999   3.941  17.138  0.00  0.00    +0.000 C 
ATOM      2  C   UNL     1       3.829   3.866  17.796  0.00  0.00    +0.000 C 
ATOM      3  C   UNL     1       4.143   4.267  19.211  0.00  0.00    +0.000 C 
ATOM      4  O   UNL     1       5.476   3.703  19.335  0.00  0.00    +0.000 OA
ATOM      5  C   UNL     1       6.034   4.349  18.150  0.00  0.00    +0.000 C 
ATOM      6  C   UNL     1       5.855   5.835  18.554  0.00  0.00    +0.000 C 
ATOM      7  C   UNL     1       4.463   5.781  19.279  0.00  0.00    +0.000 C 
ENDROOT
BRANCH   1   8
ATOM      8  C   UNL     1       5.331   3.779  15.701  0.00  0.00    +0.000 C 
BRANCH   8   9
ATOM      9  O   UNL     1       6.673   4.210  15.464  0.00  0.00    +0.000 OA
BRANCH   9  11
ATOM     10  C   UNL     1       6.070   3.740  13.251  0.00  0.00    +0.000 C 
ATOM     11  C   UNL     1       6.934   4.542  14.169  0.00  0.00    +0.000 C 
ATOM     12  O   UNL     1       7.746   5.376  13.796  0.00  0.00    +0.000 OA
ENDBRANCH   9  11
ENDBRANCH   8   9
ENDBRANCH   1   8
BRANCH   2  13
ATOM     13  C   UNL     1       2.452   3.612  17.295  0.00  0.00    +0.000 C 
BRANCH  13  14
ATOM     14  O   UNL     1       1.483   3.969  18.296  0.00  0.00    +0.000 OA
BRANCH  14  15
ATOM     15  C   UNL     1       0.884   2.937  18.941  0.00  0.00    +0.000 C 
ATOM     16  C   UNL     1       1.028   3.039  20.432  0.00  0.00    +0.000 C 
ATOM     17  O   UNL     1       0.271   2.019  18.400  0.00  0.00    +0.000 OA
ENDBRANCH  14  15
ENDBRANCH  13  14
ENDBRANCH   2  13
BRANCH   6  18
ATOM     18  O   UNL     1       5.885   6.786  17.472  0.00  0.00    +0.000 OA
BRANCH  18  19
ATOM     19  C   UNL     1       7.102   7.309  17.158  0.00  0.00    +0.000 C 
ATOM     20  C   UNL     1       7.279   8.682  17.742  0.00  0.00    +0.000 C 
ATOM     21  O   UNL     1       7.940   6.759  16.458  0.00  0.00    +0.000 OA
ENDBRANCH  18  19
ENDBRANCH   6  18
BRANCH   7  22
ATOM     22  O   UNL     1       3.399   6.529  18.661  0.00  0.00    +0.000 OA
BRANCH  22  23
ATOM     23  C   UNL     1       2.447   7.023  19.490  0.00  0.00    +0.000 C 
ATOM     24  C   UNL     1       1.950   8.360  19.015  0.00  0.00    +0.000 C 
ATOM     25  O   UNL     1       2.022   6.454  20.488  0.00  0.00    +0.000 OA
ENDBRANCH  22  23
ENDBRANCH   7  22
TORSDOF 10
ENDMDL
MODEL 2
REMARK VINA RESULT:      -7.0      1.203      5.118
REMARK  Name = 
REMARK  14 active torsions:
REMARK  status: ('A' for Active; 'I' for Inactive)
REMARK    1  A    between atoms: C_1  and  C_2
REMARK    2  A    between atoms: C_2  and  O_4
REMARK    3  A    between atoms: O_4  and  C_5
REMARK    4  A    between atoms: C_5  and  C_6
REMARK    5  A    between atoms: C_7  and  C_8
REMARK    6  A    between atoms: C_8  and  O_9
REMARK    7  A    between atoms: O_9  and  C_10
REMARK    8  A    between atoms: C_10  and  C_11
REMARK    9  A    between atoms: C_16  and  O_17
REMARK   10  A    between atoms: O_17  and  C_18
REMARK   11  A    between atoms: C_18  and  C_19
REMARK   12  A    between atoms: C_21  and  O_22
REMARK   13  A    between atoms: O_22  and  C_23
REMARK   14  A    between atoms: C_23  and  C_24
REMARK                            x       y       z     vdW  Elec       q    Type
REMARK                         _______ _______ _______ _____ _____    ______ ____
ROOT
ATOM      1  C   UNL     1       5.421   5.753  17.760  0.00  0.00    +0.000 C 
ATOM      2  C   UNL     1       5.177   4.536  17.242  0.00  0.00    +0.000 C 
ATOM      3  C   UNL     1       4.976   3.633  18.427  0.00  0.00    +0.000 C 
ATOM      4  O   UNL     1       5.923   4.230  19.354  0.00  0.00    +0.000 OA
ATOM      5  C   UNL     1       5.407   5.592  19.255  0.00  0.00    +0.000 C 
ATOM      6  C   UNL     1       3.963   5.362  19.773  0.00  0.00    +0.000 C 
ATOM      7  C   UNL     1       3.636   3.966  19.132  0.00  0.00    +0.000 C 
ENDROOT
BRANCH   1   8
ATOM      8  C   UNL     1       5.589   7.080  17.118  0.00  0.00    +0.000 C 
BRANCH   8   9
ATOM      9  O   UNL     1       6.964   7.284  16.784  0.00  0.00    +0.000 OA
BRANCH   9  11
ATOM     10  C   UNL     1       8.352   7.251  18.669  0.00  0.00    +0.000 C 
ATOM     11  C   UNL     1       7.639   8.085  17.655  0.00  0.00    +0.000 C 
ATOM     12  O   UNL     1       7.673   9.307  17.622  0.00  0.00    +0.000 OA
ENDBRANCH   9  11
ENDBRANCH   8   9
ENDBRANCH   1   8
BRANCH   2  13
ATOM     13  C   UNL     1       4.972   4.109  15.833  0.00  0.00    +0.000 C 
BRANCH  13  14
ATOM     14  O   UNL     1       6.196   3.587  15.287  0.00  0.00    +0.000 OA
BRANCH  14  15
ATOM     15  C   UNL     1       6.721   4.272  14.240  0.00  0.00    +0.000 C 
ATOM     16  C   UNL     1       6.278   3.714  12.918  0.00  0.00    +0.000 C 
ATOM     17  O   UNL     1       7.461   5.249  14.327  0.00  0.00    +0.000 OA
ENDBRANCH  14  15
ENDBRANCH  13  14
ENDBRANCH   2  13
BRANCH   6  18
ATOM     18  O   UNL     1       3.003   6.376  19.421  0.00  0.00    +0.000 OA
BRANCH  18  19
ATOM     19  C   UNL     1       1.963   6.551  20.282  0.00  0.00    +0.000 C 
ATOM     20  C   UNL     1       1.666   8.008  20.498  0.00  0.00    +0.000 C 
ATOM     21  O   UNL     1       1.363   5.648  20.847  0.00  0.00    +0.000 OA
ENDBRANCH  18  19
ENDBRANCH   6  18
BRANCH   7  22
ATOM     22  O   UNL     1       2.566   3.947  18.169  0.00  0.00    +0.000 OA
BRANCH  22  23
ATOM     23  C   UNL     1       1.915   2.767  18.012  0.00  0.00    +0.000 C 
ATOM     24  C   UNL     1       0.778   2.638  18.986  0.00  0.00    +0.000 C 
ATOM     25  O   UNL     1       2.194   1.919  17.174  0.00  0.00    +0.000 OA
ENDBRANCH  22  23
ENDBRANCH   7  22
TORSDOF 10
ENDMDL
MODEL 3
REMARK VINA RESULT:      -7.0      1.627      5.758
REMARK  Name = 
REMARK  14 active torsions:
REMARK  status: ('A' for Active; 'I' for Inactive)
REMARK    1  A    between atoms: C_1  and  C_2
REMARK    2  A    between atoms: C_2  and  O_4
REMARK    3  A    between atoms: O_4  and  C_5
REMARK    4  A    between atoms: C_5  and  C_6
REMARK    5  A    between atoms: C_7  and  C_8
REMARK    6  A    between atoms: C_8  and  O_9
REMARK    7  A    between atoms: O_9  and  C_10
REMARK    8  A    between atoms: C_10  and  C_11
REMARK    9  A    between atoms: C_16  and  O_17
REMARK   10  A    between atoms: O_17  and  C_18
REMARK   11  A    between atoms: C_18  and  C_19
REMARK   12  A    between atoms: C_21  and  O_22
REMARK   13  A    between atoms: O_22  and  C_23
REMARK   14  A    between atoms: C_23  and  C_24
REMARK                            x       y       z     vdW  Elec       q    Type
REMARK                         _______ _______ _______ _____ _____    ______ ____
ROOT
ATOM      1  C   UNL     1       3.866   4.454  17.105  0.00  0.00    +0.000 C 
ATOM      2  C   UNL     1       5.149   4.764  16.851  0.00  0.00    +0.000 C 
ATOM      3  C   UNL     1       5.348   6.137  17.430  0.00  0.00    +0.000 C 
ATOM      4  O   UNL     1       4.039   6.707  17.165  0.00  0.00    +0.000 OA
ATOM      5  C   UNL     1       3.269   5.644  17.804  0.00  0.00    +0.000 C 
ATOM      6  C   UNL     1       3.810   5.764  19.252  0.00  0.00    +0.000 C 
ATOM      7  C   UNL     1       5.326   6.072  18.978  0.00  0.00    +0.000 C 
ENDROOT
BRANCH   1   8
ATOM      8  C   UNL     1       3.094   3.206  16.889  0.00  0.00    +0.000 C 
BRANCH   8   9
ATOM      9  O   UNL     1       1.770   3.360  17.406  0.00  0.00    +0.000 OA
BRANCH   9  11
ATOM     10  C   UNL     1       2.618   1.620  18.724  0.00  0.00    +0.000 C 
ATOM     11  C   UNL     1       1.424   2.436  18.346  0.00  0.00    +0.000 C 
ATOM     12  O   UNL     1       0.310   2.288  18.826  0.00  0.00    +0.000 OA
ENDBRANCH   9  11
ENDBRANCH   8   9
ENDBRANCH   1   8
BRANCH   2  13
ATOM     13  C   UNL     1       6.247   3.941  16.277  0.00  0.00    +0.000 C 
BRANCH  13  14
ATOM     14  O   UNL     1       5.890   3.483  14.961  0.00  0.00    +0.000 OA
BRANCH  14  15
ATOM     15  C   UNL     1       6.433   4.170  13.924  0.00  0.00    +0.000 C 
ATOM     16  C   UNL     1       6.065   3.575  12.595  0.00  0.00    +0.000 C 
ATOM     17  O   UNL     1       7.131   5.176  14.024  0.00  0.00    +0.000 OA
ENDBRANCH  14  15
ENDBRANCH  13  14
ENDBRANCH   2  13
BRANCH   6  18
ATOM     18  O   UNL     1       3.618   4.608  20.090  0.00  0.00    +0.000 OA
BRANCH  18  19
ATOM     19  C   UNL     1       2.513   4.612  20.884  0.00  0.00    +0.000 C 
ATOM     20  C   UNL     1       1.707   5.867  20.700  0.00  0.00    +0.000 C 
ATOM     21  O   UNL     1       2.220   3.732  21.680  0.00  0.00    +0.000 OA
ENDBRANCH  18  19
ENDBRANCH   6  18
BRANCH   7  22
ATOM     22  O   UNL     1       6.265   5.081  19.435  0.00  0.00    +0.000 OA
BRANCH  22  23
ATOM     23  C   UNL     1       7.505   5.527  19.756  0.00  0.00    +0.000 C 
ATOM     24  C   UNL     1       8.012   6.509  18.737  0.00  0.00    +0.000 C 
ATOM     25  O   UNL     1       8.133   5.196  20.754  0.00  0.00    +0.000 OA
ENDBRANCH  22  23
ENDBRANCH   7  22
TORSDOF 10
ENDMDL
MODEL 4
REMARK VINA RESULT:      -7.0      1.206      4.985
REMARK  Name = 
REMARK  14 active torsions:
REMARK  status: ('A' for Active; 'I' for Inactive)
REMARK    1  A    between atoms: C_1  and  C_2
REMARK    2  A    between atoms: C_2  and  O_4
REMARK    3  A    between atoms: O_4  and  C_5
REMARK    4  A    between atoms: C_5  and  C_6
REMARK    5  A    between atoms: C_7  and  C_8
REMARK    6  A    between atoms: C_8  and  O_9
REMARK    7  A    between atoms: O_9  and  C_10
REMARK    8  A    between atoms: C_10  and  C_11
REMARK    9  A    between atoms: C_16  and  O_17
REMARK   10  A    between atoms: O_17  and  C_18
REMARK   11  A    between atoms: C_18  and  C_19
REMARK   12  A    between atoms: C_21  and  O_22
REMARK   13  A    between atoms: O_22  and  C_23
REMARK   14  A    between atoms: C_23  and  C_24
REMARK                            x       y       z     vdW  Elec       q    Type
REMARK                         _______ _______ _______ _____ _____    ______ ____
ROOT
ATOM      1  C   UNL     1       5.198   5.947  17.854  0.00  0.00    +0.000 C 
ATOM      2  C   UNL     1       5.223   4.627  17.600  0.00  0.00    +0.000 C 
ATOM      3  C   UNL     1       4.803   3.967  18.883  0.00  0.00    +0.000 C 
ATOM      4  O   UNL     1       5.404   4.882  19.838  0.00  0.00    +0.000 OA
ATOM      5  C   UNL     1       4.801   6.097  19.297  0.00  0.00    +0.000 C 
ATOM      6  C   UNL     1       3.302   5.755  19.495  0.00  0.00    +0.000 C 
ATOM      7  C   UNL     1       3.298   4.223  19.148  0.00  0.00    +0.000 C 
ENDROOT
BRANCH   1   8
ATOM      8  C   UNL     1       5.401   7.122  16.972  0.00  0.00    +0.000 C 
BRANCH   8   9
ATOM      9  O   UNL     1       6.782   7.231  16.622  0.00  0.00    +0.000 OA
BRANCH   9  11
ATOM     10  C   UNL     1       7.877   8.979  17.731  0.00  0.00    +0.000 C 
ATOM     11  C   UNL     1       7.606   7.511  17.670  0.00  0.00    +0.000 C 
ATOM     12  O   UNL     1       8.059   6.694  18.460  0.00  0.00    +0.000 OA
ENDBRANCH   9  11
ENDBRANCH   8   9
ENDBRANCH   1   8
BRANCH   2  13
ATOM     13  C   UNL     1       5.446   3.892  16.326  0.00  0.00    +0.000 C 
BRANCH  13  14
ATOM     14  O   UNL     1       6.795   4.088  15.867  0.00  0.00    +0.000 OA
BRANCH  14  15
ATOM     15  C   UNL     1       6.932   4.529  14.592  0.00  0.00    +0.000 C 
ATOM     16  C   UNL     1       5.970   3.859  13.653  0.00  0.00    +0.000 C 
ATOM     17  O   UNL     1       7.726   5.388  14.217  0.00  0.00    +0.000 OA
ENDBRANCH  14  15
ENDBRANCH  13  14
ENDBRANCH   2  13
BRANCH   6  18
ATOM     18  O   UNL     1       2.375   6.512  18.693  0.00  0.00    +0.000 OA
BRANCH  18  19
ATOM     19  C   UNL     1       2.227   7.825  19.015  0.00  0.00    +0.000 C 
ATOM     20  C   UNL     1       1.691   7.994  20.409  0.00  0.00    +0.000 C 
ATOM     21  O   UNL     1       2.459   8.761  18.263  0.00  0.00    +0.000 OA
ENDBRANCH  18  19
ENDBRANCH   6  18
BRANCH   7  22
ATOM     22  O   UNL     1       2.531   3.839  17.992  0.00  0.00    +0.000 OA
BRANCH  22  23
ATOM     23  C   UNL     1       2.062   2.566  17.973  0.00  0.00    +0.000 C 
ATOM     24  C   UNL     1       0.790   2.443  18.765  0.00  0.00    +0.000 C 
ATOM     25  O   UNL     1       2.585   1.635  17.375  0.00  0.00    +0.000 OA
ENDBRANCH  22  23
ENDBRANCH   7  22
TORSDOF 10
ENDMDL
MODEL 5
REMARK VINA RESULT:      -7.0      1.158      5.309
REMARK  Name = 
REMARK  14 active torsions:
REMARK  status: ('A' for Active; 'I' for Inactive)
REMARK    1  A    between atoms: C_1  and  C_2
REMARK    2  A    between atoms: C_2  and  O_4
REMARK    3  A    between atoms: O_4  and  C_5
REMARK    4  A    between atoms: C_5  and  C_6
REMARK    5  A    between atoms: C_7  and  C_8
REMARK    6  A    between atoms: C_8  and  O_9
REMARK    7  A    between atoms: O_9  and  C_10
REMARK    8  A    between atoms: C_10  and  C_11
REMARK    9  A    between atoms: C_16  and  O_17
REMARK   10  A    between atoms: O_17  and  C_18
REMARK   11  A    between atoms: C_18  and  C_19
REMARK   12  A    between atoms: C_21  and  O_22
REMARK   13  A    between atoms: O_22  and  C_23
REMARK   14  A    between atoms: C_23  and  C_24
REMARK                            x       y       z     vdW  Elec       q    Type
REMARK                         _______ _______ _______ _____ _____    ______ ____
ROOT
ATOM      1  C   UNL     1       5.760   6.007  17.582  0.00  0.00    +0.000 C 
ATOM      2  C   UNL     1       5.579   4.926  16.803  0.00  0.00    +0.000 C 
ATOM      3  C   UNL     1       5.349   3.785  17.754  0.00  0.00    +0.000 C 
ATOM      4  O   UNL     1       6.230   4.186  18.837  0.00  0.00    +0.000 OA
ATOM      5  C   UNL     1       5.678   5.528  19.005  0.00  0.00    +0.000 C 
ATOM      6  C   UNL     1       4.218   5.163  19.381  0.00  0.00    +0.000 C 
ATOM      7  C   UNL     1       3.966   3.932  18.439  0.00  0.00    +0.000 C 
ENDROOT
BRANCH   1   8
ATOM      8  C   UNL     1       5.919   7.444  17.249  0.00  0.00    +0.000 C 
BRANCH   8   9
ATOM      9  O   UNL     1       7.280   7.713  16.908  0.00  0.00    +0.000 OA
BRANCH   9  11
ATOM     10  C   UNL     1       8.207   9.628  17.887  0.00  0.00    +0.000 C 
ATOM     11  C   UNL     1       8.045   8.143  17.950  0.00  0.00    +0.000 C 
ATOM     12  O   UNL     1       8.529   7.435  18.821  0.00  0.00    +0.000 OA
ENDBRANCH   9  11
ENDBRANCH   8   9
ENDBRANCH   1   8
BRANCH   2  13
ATOM     13  C   UNL     1       5.457   4.809  15.326  0.00  0.00    +0.000 C 
BRANCH  13  14
ATOM     14  O   UNL     1       6.555   4.048  14.793  0.00  0.00    +0.000 OA
BRANCH  14  15
ATOM     15  C   UNL     1       7.144   4.550  13.679  0.00  0.00    +0.000 C 
ATOM     16  C   UNL     1       6.718   3.824  12.436  0.00  0.00    +0.000 C 
ATOM     17  O   UNL     1       7.924   5.499  13.653  0.00  0.00    +0.000 OA
ENDBRANCH  14  15
ENDBRANCH  13  14
ENDBRANCH   2  13
BRANCH   6  18
ATOM     18  O   UNL     1       3.245   6.211  19.203  0.00  0.00    +0.000 OA
BRANCH  18  19
ATOM     19  C   UNL     1       2.253   6.280  20.132  0.00  0.00    +0.000 C 
ATOM     20  C   UNL     1       1.831   7.700  20.383  0.00  0.00    +0.000 C 
ATOM     21  O   UNL     1       1.781   5.321  20.725  0.00  0.00    +0.000 OA
ENDBRANCH  18  19
ENDBRANCH   6  18
BRANCH   7  22
ATOM     22  O   UNL     1       2.945   4.101  17.438  0.00  0.00    +0.000 OA
BRANCH  22  23
ATOM     23  C   UNL     1       1.730   3.567  17.719  0.00  0.00    +0.000 C 
ATOM     24  C   UNL     1       1.860   2.332  18.565  0.00  0.00    +0.000 C 
ATOM     25  O   UNL     1       0.658   4.035  17.355  0.00  0.00    +0.000 OA
ENDBRANCH  22  23
ENDBRANCH   7  22
TORSDOF 10
ENDMDL
MODEL 6
REMARK VINA RESULT:      -7.0      2.010      4.448
REMARK  Name = 
REMARK  14 active torsions:
REMARK  status: ('A' for Active; 'I' for Inactive)
REMARK    1  A    between atoms: C_1  and  C_2
REMARK    2  A    between atoms: C_2  and  O_4
REMARK    3  A    between atoms: O_4  and  C_5
REMARK    4  A    between atoms: C_5  and  C_6
REMARK    5  A    between atoms: C_7  and  C_8
REMARK    6  A    between atoms: C_8  and  O_9
REMARK    7  A    between atoms: O_9  and  C_10
REMARK    8  A    between atoms: C_10  and  C_11
REMARK    9  A    between atoms: C_16  and  O_17
REMARK   10  A    between atoms: O_17  and  C_18
REMARK   11  A    between atoms: C_18  and  C_19
REMARK   12  A    between atoms: C_21  and  O_22
REMARK   13  A    between atoms: O_22  and  C_23
REMARK   14  A    between atoms: C_23  and  C_24
REMARK                            x       y       z     vdW  Elec       q    Type
REMARK                         _______ _______ _______ _____ _____    ______ ____
ROOT
ATOM      1  C   UNL     1       3.809   6.132  17.409  0.00  0.00    +0.000 C 
ATOM      2  C   UNL     1       3.038   5.031  17.462  0.00  0.00    +0.000 C 
ATOM      3  C   UNL     1       3.921   3.907  16.995  0.00  0.00    +0.000 C 
ATOM      4  O   UNL     1       4.712   4.612  16.001  0.00  0.00    +0.000 OA
ATOM      5  C   UNL     1       5.146   5.694  16.879  0.00  0.00    +0.000 C 
ATOM      6  C   UNL     1       5.920   4.873  17.943  0.00  0.00    +0.000 C 
ATOM      7  C   UNL     1       5.005   3.601  18.060  0.00  0.00    +0.000 C 
ENDROOT
BRANCH   1   8
ATOM      8  C   UNL     1       3.558   7.528  17.842  0.00  0.00    +0.000 C 
BRANCH   8   9
ATOM      9  O   UNL     1       2.758   7.531  19.027  0.00  0.00    +0.000 OA
BRANCH   9  11
ATOM     10  C   UNL     1       1.748   9.223  17.762  0.00  0.00    +0.000 C 
ATOM     11  C   UNL     1       1.857   8.551  19.092  0.00  0.00    +0.000 C 
ATOM     12  O   UNL     1       1.218   8.877  20.082  0.00  0.00    +0.000 OA
ENDBRANCH   9  11
ENDBRANCH   8   9
ENDBRANCH   1   8
BRANCH   2  13
ATOM     13  C   UNL     1       1.664   4.836  17.996  0.00  0.00    +0.000 C 
BRANCH  13  14
ATOM     14  O   UNL     1       1.232   3.482  17.779  0.00  0.00    +0.000 OA
BRANCH  14  15
ATOM     15  C   UNL     1       0.750   2.829  18.866  0.00  0.00    +0.000 C 
ATOM     16  C   UNL     1       0.913   3.628  20.126  0.00  0.00    +0.000 C 
ATOM     17  O   UNL     1       0.218   1.721  18.853  0.00  0.00    +0.000 OA
ENDBRANCH  14  15
ENDBRANCH  13  14
ENDBRANCH   2  13
BRANCH   6  18
ATOM     18  O   UNL     1       6.130   5.528  19.209  0.00  0.00    +0.000 OA
BRANCH  18  19
ATOM     19  C   UNL     1       7.423   5.763  19.561  0.00  0.00    +0.000 C 
ATOM     20  C   UNL     1       8.072   6.760  18.643  0.00  0.00    +0.000 C 
ATOM     21  O   UNL     1       8.010   5.212  20.481  0.00  0.00    +0.000 OA
ENDBRANCH  18  19
ENDBRANCH   6  18
BRANCH   7  22
ATOM     22  O   UNL     1       4.380   3.389  19.340  0.00  0.00    +0.000 OA
BRANCH  22  23
ATOM     23  C   UNL     1       4.463   2.135  19.852  0.00  0.00    +0.000 C 
ATOM     24  C   UNL     1       3.848   1.126  18.923  0.00  0.00    +0.000 C 
ATOM     25  O   UNL     1       4.987   1.848  20.920  0.00  0.00    +0.000 OA
ENDBRANCH  22  23
ENDBRANCH   7  22
TORSDOF 10
ENDMDL
MODEL 7
REMARK VINA RESULT:      -6.9      1.131      4.978
REMARK  Name = 
REMARK  14 active torsions:
REMARK  status: ('A' for Active; 'I' for Inactive)
REMARK    1  A    between atoms: C_1  and  C_2
REMARK    2  A    between atoms: C_2  and  O_4
REMARK    3  A    between atoms: O_4  and  C_5
REMARK    4  A    between atoms: C_5  and  C_6
REMARK    5  A    between atoms: C_7  and  C_8
REMARK    6  A    between atoms: C_8  and  O_9
REMARK    7  A    between atoms: O_9  and  C_10
REMARK    8  A    between atoms: C_10  and  C_11
REMARK    9  A    between atoms: C_16  and  O_17
REMARK   10  A    between atoms: O_17  and  C_18
REMARK   11  A    between atoms: C_18  and  C_19
REMARK   12  A    between atoms: C_21  and  O_22
REMARK   13  A    between atoms: O_22  and  C_23
REMARK   14  A    between atoms: C_23  and  C_24
REMARK                            x       y       z     vdW  Elec       q    Type
REMARK                         _______ _______ _______ _____ _____    ______ ____
ROOT
ATOM      1  C   UNL     1       3.573   4.345  18.078  0.00  0.00    +0.000 C 
ATOM      2  C   UNL     1       3.896   5.352  18.909  0.00  0.00    +0.000 C 
ATOM      3  C   UNL     1       5.330   5.108  19.289  0.00  0.00    +0.000 C 
ATOM      4  O   UNL     1       5.331   3.655  19.320  0.00  0.00    +0.000 OA
ATOM      5  C   UNL     1       4.788   3.466  17.978  0.00  0.00    +0.000 C 
ATOM      6  C   UNL     1       5.901   4.156  17.146  0.00  0.00    +0.000 C 
ATOM      7  C   UNL     1       6.257   5.371  18.076  0.00  0.00    +0.000 C 
ENDROOT
BRANCH   1   8
ATOM      8  C   UNL     1       2.349   4.083  17.281  0.00  0.00    +0.000 C 
BRANCH   8   9
ATOM      9  O   UNL     1       1.193   4.221  18.111  0.00  0.00    +0.000 OA
BRANCH   9  11
ATOM     10  C   UNL     1       0.924   3.468  20.311  0.00  0.00    +0.000 C 
ATOM     11  C   UNL     1       0.904   3.120  18.858  0.00  0.00    +0.000 C 
ATOM     12  O   UNL     1       0.655   2.005  18.421  0.00  0.00    +0.000 OA
ENDBRANCH   9  11
ENDBRANCH   8   9
ENDBRANCH   1   8
BRANCH   2  13
ATOM     13  C   UNL     1       3.133   6.567  19.298  0.00  0.00    +0.000 C 
BRANCH  13  14
ATOM     14  O   UNL     1       2.680   7.268  18.126  0.00  0.00    +0.000 OA
BRANCH  14  15
ATOM     15  C   UNL     1       2.122   8.486  18.339  0.00  0.00    +0.000 C 
ATOM     16  C   UNL     1       1.549   8.614  19.720  0.00  0.00    +0.000 C 
ATOM     17  O   UNL     1       2.090   9.407  17.525  0.00  0.00    +0.000 OA
ENDBRANCH  14  15
ENDBRANCH  13  14
ENDBRANCH   2  13
BRANCH   6  18
ATOM     18  O   UNL     1       5.529   4.561  15.816  0.00  0.00    +0.000 OA
BRANCH  18  19
ATOM     19  C   UNL     1       6.524   4.584  14.888  0.00  0.00    +0.000 C 
ATOM     20  C   UNL     1       6.158   3.788  13.667  0.00  0.00    +0.000 C 
ATOM     21  O   UNL     1       7.602   5.142  15.032  0.00  0.00    +0.000 OA
ENDBRANCH  18  19
ENDBRANCH   6  18
BRANCH   7  22
ATOM     22  O   UNL     1       5.989   6.679  17.537  0.00  0.00    +0.000 OA
BRANCH  22  23
ATOM     23  C   UNL     1       7.001   7.580  17.609  0.00  0.00    +0.000 C 
ATOM     24  C   UNL     1       8.108   7.087  18.496  0.00  0.00    +0.000 C 
ATOM     25  O   UNL     1       7.028   8.651  17.015  0.00  0.00    +0.000 OA
ENDBRANCH  22  23
ENDBRANCH   7  22
TORSDOF 10
ENDMDL
MODEL 8
REMARK VINA RESULT:      -6.9      1.753      5.671
REMARK  Name = 
REMARK  14 active torsions:
REMARK  status: ('A' for Active; 'I' for Inactive)
REMARK    1  A    between atoms: C_1  and  C_2
REMARK    2  A    between atoms: C_2  and  O_4
REMARK    3  A    between atoms: O_4  and  C_5
REMARK    4  A    between atoms: C_5  and  C_6
REMARK    5  A    between atoms: C_7  and  C_8
REMARK    6  A    between atoms: C_8  and  O_9
REMARK    7  A    between atoms: O_9  and  C_10
REMARK    8  A    between atoms: C_10  and  C_11
REMARK    9  A    between atoms: C_16  and  O_17
REMARK   10  A    between atoms: O_17  and  C_18
REMARK   11  A    between atoms: C_18  and  C_19
REMARK   12  A    between atoms: C_21  and  O_22
REMARK   13  A    between atoms: O_22  and  C_23
REMARK   14  A    between atoms: C_23  and  C_24
REMARK                            x       y       z     vdW  Elec       q    Type
REMARK                         _______ _______ _______ _____ _____    ______ ____
ROOT
ATOM      1  C   UNL     1       3.351   4.559  17.187  0.00  0.00    +0.000 C 
ATOM      2  C   UNL     1       4.593   4.838  16.755  0.00  0.00    +0.000 C 
ATOM      3  C   UNL     1       4.901   6.208  17.292  0.00  0.00    +0.000 C 
ATOM      4  O   UNL     1       3.581   6.808  17.208  0.00  0.00    +0.000 OA
ATOM      5  C   UNL     1       2.883   5.764  17.954  0.00  0.00    +0.000 C 
ATOM      6  C   UNL     1       3.623   5.875  19.312  0.00  0.00    +0.000 C 
ATOM      7  C   UNL     1       5.093   6.149  18.829  0.00  0.00    +0.000 C 
ENDROOT
BRANCH   1   8
ATOM      8  C   UNL     1       2.529   3.328  17.087  0.00  0.00    +0.000 C 
BRANCH   8   9
ATOM      9  O   UNL     1       3.316   2.191  17.450  0.00  0.00    +0.000 OA
BRANCH   9  11
ATOM     10  C   UNL     1       1.739   1.750  19.124  0.00  0.00    +0.000 C 
ATOM     11  C   UNL     1       3.186   1.812  18.752  0.00  0.00    +0.000 C 
ATOM     12  O   UNL     1       4.104   1.550  19.516  0.00  0.00    +0.000 OA
ENDBRANCH   9  11
ENDBRANCH   8   9
ENDBRANCH   1   8
BRANCH   2  13
ATOM     13  C   UNL     1       5.582   3.989  16.039  0.00  0.00    +0.000 C 
BRANCH  13  14
ATOM     14  O   UNL     1       6.750   4.759  15.704  0.00  0.00    +0.000 OA
BRANCH  14  15
ATOM     15  C   UNL     1       7.066   4.820  14.386  0.00  0.00    +0.000 C 
ATOM     16  C   UNL     1       6.236   3.881  13.560  0.00  0.00    +0.000 C 
ATOM     17  O   UNL     1       7.914   5.559  13.891  0.00  0.00    +0.000 OA
ENDBRANCH  14  15
ENDBRANCH  13  14
ENDBRANCH   2  13
BRANCH   6  18
ATOM     18  O   UNL     1       3.524   4.727  20.176  0.00  0.00    +0.000 OA
BRANCH  18  19
ATOM     19  C   UNL     1       2.456   4.692  21.017  0.00  0.00    +0.000 C 
ATOM     20  C   UNL     1       1.583   5.904  20.851  0.00  0.00    +0.000 C 
ATOM     21  O   UNL     1       2.240   3.813  21.839  0.00  0.00    +0.000 OA
ENDBRANCH  18  19
ENDBRANCH   6  18
BRANCH   7  22
ATOM     22  O   UNL     1       6.064   5.138  19.157  0.00  0.00    +0.000 OA
BRANCH  22  23
ATOM     23  C   UNL     1       7.289   5.578  19.540  0.00  0.00    +0.000 C 
ATOM     24  C   UNL     1       7.866   6.529  18.529  0.00  0.00    +0.000 C 
ATOM     25  O   UNL     1       7.851   5.267  20.582  0.00  0.00    +0.000 OA
ENDBRANCH  22  23
ENDBRANCH   7  22
TORSDOF 10
ENDMDL
MODEL 9
REMARK VINA RESULT:      -6.9      1.050      1.191
REMARK  Name = 
REMARK  14 active torsions:
REMARK  status: ('A' for Active; 'I' for Inactive)
REMARK    1  A    between atoms: C_1  and  C_2
REMARK    2  A    between atoms: C_2  and  O_4
REMARK    3  A    between atoms: O_4  and  C_5
REMARK    4  A    between atoms: C_5  and  C_6
REMARK    5  A    between atoms: C_7  and  C_8
REMARK    6  A    between atoms: C_8  and  O_9
REMARK    7  A    between atoms: O_9  and  C_10
REMARK    8  A    between atoms: C_10  and  C_11
REMARK    9  A    between atoms: C_16  and  O_17
REMARK   10  A    between atoms: O_17  and  C_18
REMARK   11  A    between atoms: C_18  and  C_19
REMARK   12  A    between atoms: C_21  and  O_22
REMARK   13  A    between atoms: O_22  and  C_23
REMARK   14  A    between atoms: C_23  and  C_24
REMARK                            x       y       z     vdW  Elec       q    Type
REMARK                         _______ _______ _______ _____ _____    ______ ____
ROOT
ATOM      1  C   UNL     1       5.047   3.782  17.281  0.00  0.00    +0.000 C 
ATOM      2  C   UNL     1       4.075   3.258  18.048  0.00  0.00    +0.000 C 
ATOM      3  C   UNL     1       4.367   3.738  19.442  0.00  0.00    +0.000 C 
ATOM      4  O   UNL     1       5.820   3.729  19.405  0.00  0.00    +0.000 OA
ATOM      5  C   UNL     1       5.954   4.549  18.204  0.00  0.00    +0.000 C 
ATOM      6  C   UNL     1       5.268   5.849  18.697  0.00  0.00    +0.000 C 
ATOM      7  C   UNL     1       4.091   5.259  19.554  0.00  0.00    +0.000 C 
ENDROOT
BRANCH   1   8
ATOM      8  C   UNL     1       5.254   3.771  15.812  0.00  0.00    +0.000 C 
BRANCH   8   9
ATOM      9  O   UNL     1       6.642   3.952  15.518  0.00  0.00    +0.000 OA
BRANCH   9  11
ATOM     10  C   UNL     1       6.008   3.786  13.270  0.00  0.00    +0.000 C 
ATOM     11  C   UNL     1       6.891   4.452  14.276  0.00  0.00    +0.000 C 
ATOM     12  O   UNL     1       7.706   5.323  14.006  0.00  0.00    +0.000 OA
ENDBRANCH   9  11
ENDBRANCH   8   9
ENDBRANCH   1   8
BRANCH   2  13
ATOM     13  C   UNL     1       2.853   2.498  17.674  0.00  0.00    +0.000 C 
BRANCH  13  14
ATOM     14  O   UNL     1       2.303   1.839  18.828  0.00  0.00    +0.000 OA
BRANCH  14  15
ATOM     15  C   UNL     1       1.098   2.293  19.256  0.00  0.00    +0.000 C 
ATOM     16  C   UNL     1       1.133   2.730  20.692  0.00  0.00    +0.000 C 
ATOM     17  O   UNL     1       0.081   2.368  18.570  0.00  0.00    +0.000 OA
ENDBRANCH  14  15
ENDBRANCH  13  14
ENDBRANCH   2  13
BRANCH   6  18
ATOM     18  O   UNL     1       4.813   6.747  17.666  0.00  0.00    +0.000 OA
BRANCH  18  19
ATOM     19  C   UNL     1       5.726   7.096  16.720  0.00  0.00    +0.000 C 
ATOM     20  C   UNL     1       7.043   7.475  17.338  0.00  0.00    +0.000 C 
ATOM     21  O   UNL     1       5.507   7.139  15.518  0.00  0.00    +0.000 OA
ENDBRANCH  18  19
ENDBRANCH   6  18
BRANCH   7  22
ATOM     22  O   UNL     1       2.761   5.545  19.082  0.00  0.00    +0.000 OA
BRANCH  22  23
ATOM     23  C   UNL     1       2.153   6.634  19.615  0.00  0.00    +0.000 C 
ATOM     24  C   UNL     1       1.488   6.303  20.921  0.00  0.00    +0.000 C 
ATOM     25  O   UNL     1       2.158   7.753  19.117  0.00  0.00    +0.000 OA
ENDBRANCH  22  23
ENDBRANCH   7  22
TORSDOF 10
ENDMDL
