MODEL 1
REMARK VINA RESULT:      -7.5      0.000      0.000
REMARK  Name = 
REMARK  7 active torsions:
REMARK  status: ('A' for Active; 'I' for Inactive)
REMARK    1  A    between atoms: C_2  and  C_3
REMARK    2  A    between atoms: C_6  and  C_7
REMARK    3  A    between atoms: C_12  and  C_13
REMARK    4  A    between atoms: C_13  and  O_14
REMARK    5  A    between atoms: O_14  and  C_15
REMARK    6  A    between atoms: C_18  and  C_19
REMARK    7  A    between atoms: N_21  and  C_22
REMARK                            x       y       z     vdW  Elec       q    Type
REMARK                         _______ _______ _______ _____ _____    ______ ____
ROOT
ATOM      1  C   UNL     1       4.835   3.988  18.629  0.00  0.00    +0.000 C 
ATOM      2  O   UNL     1       5.192   2.954  19.196  0.00  0.00    +0.000 OA
ATOM      3  N   UNL     1       3.846   4.826  19.159  0.00  0.00    +0.000 N 
ATOM      4  C   UNL     1       3.423   4.586  20.541  0.00  0.00    +0.000 C 
ATOM      5  C   UNL     1       1.903   4.657  20.683  0.00  0.00    +0.000 C 
ATOM      6  C   UNL     1       1.327   5.970  20.126  0.00  0.00    +0.000 C 
ATOM      7  C   UNL     1       1.785   6.145  18.680  0.00  0.00    +0.000 C 
ATOM      8  C   UNL     1       3.294   6.025  18.526  0.00  0.00    +0.000 C 
ENDROOT
BRANCH   1  12
ATOM      9  C   UNL     1       6.847   4.924  14.942  0.00  0.00    +0.000 A 
ATOM     10  C   UNL     1       7.384   5.323  16.171  0.00  0.00    +0.000 A 
ATOM     11  C   UNL     1       6.723   4.998  17.362  0.00  0.00    +0.000 A 
ATOM     12  C   UNL     1       5.506   4.298  17.332  0.00  0.00    +0.000 A 
ATOM     13  C   UNL     1       4.939   3.993  16.090  0.00  0.00    +0.000 A 
ATOM     14  C   UNL     1       5.628   4.250  14.905  0.00  0.00    +0.000 A 
BRANCH   9  16
ATOM     15  N   UNL     1       8.087   5.479  12.736  0.00  0.00    +0.000 NA
ATOM     16  C   UNL     1       7.530   5.222  13.718  0.00  0.00    +0.000 C 
ENDBRANCH   9  16
ENDBRANCH   1  12
BRANCH   6  17
ATOM     17  C   UNL     1       1.715   7.189  20.975  0.00  0.00    +0.000 C 
BRANCH  17  18
ATOM     18  O   UNL     1       1.535   8.373  20.198  0.00  0.00    +0.000 OA
BRANCH  18  19
ATOM     19  C   UNL     1       0.760   9.337  20.779  0.00  0.00    +0.000 A 
ATOM     20  C   UNL     1       0.343   9.069  22.081  0.00  0.00    +0.000 A 
ATOM     21  C   UNL     1      -0.449   9.991  22.768  0.00  0.00    +0.000 A 
ATOM     22  C   UNL     1      -0.817  11.209  22.178  0.00  0.00    +0.000 A 
ATOM     23  C   UNL     1      -0.382  11.474  20.873  0.00  0.00    +0.000 A 
ATOM     24  C   UNL     1       0.404  10.546  20.184  0.00  0.00    +0.000 A 
BRANCH  22  25
ATOM     25  C   UNL     1      -1.644  12.161  22.986  0.00  0.00    +0.000 C 
ATOM     26  O   UNL     1      -1.090  13.049  23.624  0.00  0.00    +0.000 OA
ATOM     27  N   UNL     1      -3.018  12.001  22.963  0.00  0.00    +0.000 N 
ATOM     28  H   UNL     1      -3.448  11.311  22.368  0.00  0.00    +0.000 HD
BRANCH  27  29
ATOM     29  C   UNL     1      -3.893  12.891  23.665  0.00  0.00    +0.000 C 
ATOM     30  C   UNL     1      -5.376  12.639  23.700  0.00  0.00    +0.000 C 
ATOM     31  C   UNL     1      -4.558  12.470  24.945  0.00  0.00    +0.000 C 
ENDBRANCH  27  29
ENDBRANCH  22  25
ENDBRANCH  18  19
ENDBRANCH  17  18
ENDBRANCH   6  17
TORSDOF 7
ENDMDL
MODEL 2
REMARK VINA RESULT:      -7.4      1.192      1.660
REMARK  Name = 
REMARK  7 active torsions:
REMARK  status: ('A' for Active; 'I' for Inactive)
REMARK    1  A    between atoms: C_2  and  C_3
REMARK    2  A    between atoms: C_6  and  C_7
REMARK    3  A    between atoms: C_12  and  C_13
REMARK    4  A    between atoms: C_13  and  O_14
REMARK    5  A    between atoms: O_14  and  C_15
REMARK    6  A    between atoms: C_18  and  C_19
REMARK    7  A    between atoms: N_21  and  C_22
REMARK                            x       y       z     vdW  Elec       q    Type
REMARK                         _______ _______ _______ _____ _____    ______ ____
ROOT
ATOM      1  C   UNL     1       4.720   4.015  18.577  0.00  0.00    +0.000 C 
ATOM      2  O   UNL     1       5.014   2.950  19.120  0.00  0.00    +0.000 OA
ATOM      3  N   UNL     1       3.777   4.896  19.123  0.00  0.00    +0.000 N 
ATOM      4  C   UNL     1       3.333   4.646  20.497  0.00  0.00    +0.000 C 
ATOM      5  C   UNL     1       1.819   4.801  20.633  0.00  0.00    +0.000 C 
ATOM      6  C   UNL     1       1.321   6.157  20.107  0.00  0.00    +0.000 C 
ATOM      7  C   UNL     1       1.798   6.341  18.668  0.00  0.00    +0.000 C 
ATOM      8  C   UNL     1       3.298   6.139  18.517  0.00  0.00    +0.000 C 
ENDROOT
BRANCH   1  12
ATOM      9  C   UNL     1       6.805   4.924  14.924  0.00  0.00    +0.000 A 
ATOM     10  C   UNL     1       7.366   5.241  16.166  0.00  0.00    +0.000 A 
ATOM     11  C   UNL     1       6.681   4.926  17.345  0.00  0.00    +0.000 A 
ATOM     12  C   UNL     1       5.416   4.319  17.292  0.00  0.00    +0.000 A 
ATOM     13  C   UNL     1       4.831   4.098  16.040  0.00  0.00    +0.000 A 
ATOM     14  C   UNL     1       5.540   4.343  14.865  0.00  0.00    +0.000 A 
BRANCH   9  16
ATOM     15  N   UNL     1       8.093   5.456  12.740  0.00  0.00    +0.000 NA
ATOM     16  C   UNL     1       7.511   5.211  13.711  0.00  0.00    +0.000 C 
ENDBRANCH   9  16
ENDBRANCH   1  12
BRANCH   6  17
ATOM     17  C   UNL     1       1.774   7.331  20.988  0.00  0.00    +0.000 C 
BRANCH  17  18
ATOM     18  O   UNL     1       1.379   8.555  20.369  0.00  0.00    +0.000 OA
BRANCH  18  19
ATOM     19  C   UNL     1       0.589   9.365  21.136  0.00  0.00    +0.000 A 
ATOM     20  C   UNL     1       0.173  10.548  20.530  0.00  0.00    +0.000 A 
ATOM     21  C   UNL     1      -0.641  11.444  21.227  0.00  0.00    +0.000 A 
ATOM     22  C   UNL     1      -1.076  11.162  22.530  0.00  0.00    +0.000 A 
ATOM     23  C   UNL     1      -0.662   9.964  23.125  0.00  0.00    +0.000 A 
ATOM     24  C   UNL     1       0.159   9.072  22.430  0.00  0.00    +0.000 A 
BRANCH  22  25
ATOM     25  C   UNL     1      -1.970  12.158  23.204  0.00  0.00    +0.000 C 
ATOM     26  O   UNL     1      -3.073  11.802  23.607  0.00  0.00    +0.000 OA
ATOM     27  N   UNL     1      -1.499  13.449  23.356  0.00  0.00    +0.000 N 
ATOM     28  H   UNL     1      -0.559  13.691  23.084  0.00  0.00    +0.000 HD
BRANCH  27  29
ATOM     29  C   UNL     1      -2.262  14.457  24.030  0.00  0.00    +0.000 C 
ATOM     30  C   UNL     1      -1.656  15.255  25.152  0.00  0.00    +0.000 C 
ATOM     31  C   UNL     1      -1.952  15.915  23.839  0.00  0.00    +0.000 C 
ENDBRANCH  27  29
ENDBRANCH  22  25
ENDBRANCH  18  19
ENDBRANCH  17  18
ENDBRANCH   6  17
TORSDOF 7
ENDMDL
MODEL 3
REMARK VINA RESULT:      -7.4      1.920      3.066
REMARK  Name = 
REMARK  7 active torsions:
REMARK  status: ('A' for Active; 'I' for Inactive)
REMARK    1  A    between atoms: C_2  and  C_3
REMARK    2  A    between atoms: C_6  and  C_7
REMARK    3  A    between atoms: C_12  and  C_13
REMARK    4  A    between atoms: C_13  and  O_14
REMARK    5  A    between atoms: O_14  and  C_15
REMARK    6  A    between atoms: C_18  and  C_19
REMARK    7  A    between atoms: N_21  and  C_22
REMARK                            x       y       z     vdW  Elec       q    Type
REMARK                         _______ _______ _______ _____ _____    ______ ____
ROOT
ATOM      1  C   UNL     1       2.673   6.343  19.440  0.00  0.00    +0.000 C 
ATOM      2  O   UNL     1       2.546   5.582  20.400  0.00  0.00    +0.000 OA
ATOM      3  N   UNL     1       2.101   7.622  19.420  0.00  0.00    +0.000 N 
ATOM      4  C   UNL     1       1.562   8.142  20.679  0.00  0.00    +0.000 C 
ATOM      5  C   UNL     1       0.205   8.813  20.473  0.00  0.00    +0.000 C 
ATOM      6  C   UNL     1       0.248   9.892  19.377  0.00  0.00    +0.000 C 
ATOM      7  C   UNL     1       0.794   9.277  18.091  0.00  0.00    +0.000 C 
ATOM      8  C   UNL     1       2.122   8.564  18.301  0.00  0.00    +0.000 C 
ENDROOT
BRANCH   1  12
ATOM      9  C   UNL     1       4.996   4.943  16.099  0.00  0.00    +0.000 A 
ATOM     10  C   UNL     1       5.069   6.278  16.512  0.00  0.00    +0.000 A 
ATOM     11  C   UNL     1       4.318   6.713  17.610  0.00  0.00    +0.000 A 
ATOM     12  C   UNL     1       3.464   5.826  18.284  0.00  0.00    +0.000 A 
ATOM     13  C   UNL     1       3.333   4.521  17.796  0.00  0.00    +0.000 A 
ATOM     14  C   UNL     1       4.133   4.064  16.750  0.00  0.00    +0.000 A 
BRANCH   9  16
ATOM     15  N   UNL     1       6.431   4.086  14.120  0.00  0.00    +0.000 NA
ATOM     16  C   UNL     1       5.786   4.476  14.998  0.00  0.00    +0.000 C 
ENDBRANCH   9  16
ENDBRANCH   1  12
BRANCH   6  17
ATOM     17  C   UNL     1       1.073  11.118  19.792  0.00  0.00    +0.000 C 
BRANCH  17  18
ATOM     18  O   UNL     1       0.881  11.356  21.187  0.00  0.00    +0.000 OA
BRANCH  18  19
ATOM     19  C   UNL     1      -0.373  11.773  21.537  0.00  0.00    +0.000 A 
ATOM     20  C   UNL     1      -0.826  11.338  22.781  0.00  0.00    +0.000 A 
ATOM     21  C   UNL     1      -2.092  11.711  23.235  0.00  0.00    +0.000 A 
ATOM     22  C   UNL     1      -2.918  12.547  22.470  0.00  0.00    +0.000 A 
ATOM     23  C   UNL     1      -2.448  12.988  21.226  0.00  0.00    +0.000 A 
ATOM     24  C   UNL     1      -1.184  12.607  20.768  0.00  0.00    +0.000 A 
BRANCH  22  25
ATOM     25  C   UNL     1      -4.252  12.927  23.035  0.00  0.00    +0.000 C 
ATOM     26  O   UNL     1      -4.310  13.460  24.138  0.00  0.00    +0.000 OA
ATOM     27  N   UNL     1      -5.375  12.669  22.269  0.00  0.00    +0.000 N 
ATOM     28  H   UNL     1      -5.290  12.301  21.335  0.00  0.00    +0.000 HD
BRANCH  27  29
ATOM     29  C   UNL     1      -6.688  13.040  22.705  0.00  0.00    +0.000 C 
ATOM     30  C   UNL     1      -7.907  12.401  22.098  0.00  0.00    +0.000 C 
ATOM     31  C   UNL     1      -7.528  12.094  23.516  0.00  0.00    +0.000 C 
ENDBRANCH  27  29
ENDBRANCH  22  25
ENDBRANCH  18  19
ENDBRANCH  17  18
ENDBRANCH   6  17
TORSDOF 7
ENDMDL
MODEL 4
REMARK VINA RESULT:      -7.4      1.966      3.170
REMARK  Name = 
REMARK  7 active torsions:
REMARK  status: ('A' for Active; 'I' for Inactive)
REMARK    1  A    between atoms: C_2  and  C_3
REMARK    2  A    between atoms: C_6  and  C_7
REMARK    3  A    between atoms: C_12  and  C_13
REMARK    4  A    between atoms: C_13  and  O_14
REMARK    5  A    between atoms: O_14  and  C_15
REMARK    6  A    between atoms: C_18  and  C_19
REMARK    7  A    between atoms: N_21  and  C_22
REMARK                            x       y       z     vdW  Elec       q    Type
REMARK                         _______ _______ _______ _____ _____    ______ ____
ROOT
ATOM      1  C   UNL     1       2.854   6.295  19.259  0.00  0.00    +0.000 C 
ATOM      2  O   UNL     1       2.723   5.446  20.142  0.00  0.00    +0.000 OA
ATOM      3  N   UNL     1       2.277   7.568  19.355  0.00  0.00    +0.000 N 
ATOM      4  C   UNL     1       1.728   7.966  20.654  0.00  0.00    +0.000 C 
ATOM      5  C   UNL     1       0.369   8.648  20.502  0.00  0.00    +0.000 C 
ATOM      6  C   UNL     1       0.415   9.825  19.513  0.00  0.00    +0.000 C 
ATOM      7  C   UNL     1       0.973   9.336  18.178  0.00  0.00    +0.000 C 
ATOM      8  C   UNL     1       2.301   8.611  18.329  0.00  0.00    +0.000 C 
ENDROOT
BRANCH   1  12
ATOM      9  C   UNL     1       5.125   5.034  15.828  0.00  0.00    +0.000 A 
ATOM     10  C   UNL     1       4.388   4.110  16.577  0.00  0.00    +0.000 A 
ATOM     11  C   UNL     1       3.643   4.540  17.681  0.00  0.00    +0.000 A 
ATOM     12  C   UNL     1       3.654   5.890  18.065  0.00  0.00    +0.000 A 
ATOM     13  C   UNL     1       4.473   6.780  17.362  0.00  0.00    +0.000 A 
ATOM     14  C   UNL     1       5.159   6.372  16.219  0.00  0.00    +0.000 A 
BRANCH   9  16
ATOM     15  N   UNL     1       6.454   4.257  13.744  0.00  0.00    +0.000 NA
ATOM     16  C   UNL     1       5.865   4.614  14.675  0.00  0.00    +0.000 C 
ENDBRANCH   9  16
ENDBRANCH   1  12
BRANCH   6  17
ATOM     17  C   UNL     1       1.233  11.010  20.047  0.00  0.00    +0.000 C 
BRANCH  17  18
ATOM     18  O   UNL     1       0.922  11.204  21.427  0.00  0.00    +0.000 OA
BRANCH  18  19
ATOM     19  C   UNL     1      -0.329  11.695  21.676  0.00  0.00    +0.000 A 
ATOM     20  C   UNL     1      -0.858  12.523  20.689  0.00  0.00    +0.000 A 
ATOM     21  C   UNL     1      -2.132  13.073  20.845  0.00  0.00    +0.000 A 
ATOM     22  C   UNL     1      -2.911  12.785  21.975  0.00  0.00    +0.000 A 
ATOM     23  C   UNL     1      -2.374  11.941  22.955  0.00  0.00    +0.000 A 
ATOM     24  C   UNL     1      -1.095  11.398  22.803  0.00  0.00    +0.000 A 
BRANCH  22  25
ATOM     25  C   UNL     1      -4.279  13.389  22.059  0.00  0.00    +0.000 C 
ATOM     26  O   UNL     1      -4.481  14.494  21.566  0.00  0.00    +0.000 OA
ATOM     27  N   UNL     1      -5.271  12.656  22.685  0.00  0.00    +0.000 N 
ATOM     28  H   UNL     1      -5.093  11.720  23.011  0.00  0.00    +0.000 HD
BRANCH  27  29
ATOM     29  C   UNL     1      -6.620  13.131  22.772  0.00  0.00    +0.000 C 
ATOM     30  C   UNL     1      -7.568  12.565  23.794  0.00  0.00    +0.000 C 
ATOM     31  C   UNL     1      -7.068  13.972  23.933  0.00  0.00    +0.000 C 
ENDBRANCH  27  29
ENDBRANCH  22  25
ENDBRANCH  18  19
ENDBRANCH  17  18
ENDBRANCH   6  17
TORSDOF 7
ENDMDL
MODEL 5
REMARK VINA RESULT:      -7.4      0.555      1.360
REMARK  Name = 
REMARK  7 active torsions:
REMARK  status: ('A' for Active; 'I' for Inactive)
REMARK    1  A    between atoms: C_2  and  C_3
REMARK    2  A    between atoms: C_6  and  C_7
REMARK    3  A    between atoms: C_12  and  C_13
REMARK    4  A    between atoms: C_13  and  O_14
REMARK    5  A    between atoms: O_14  and  C_15
REMARK    6  A    between atoms: C_18  and  C_19
REMARK    7  A    between atoms: N_21  and  C_22
REMARK                            x       y       z     vdW  Elec       q    Type
REMARK                         _______ _______ _______ _____ _____    ______ ____
ROOT
ATOM      1  C   UNL     1       4.739   3.842  18.596  0.00  0.00    +0.000 C 
ATOM      2  O   UNL     1       4.980   2.734  19.076  0.00  0.00    +0.000 OA
ATOM      3  N   UNL     1       3.804   4.715  19.167  0.00  0.00    +0.000 N 
ATOM      4  C   UNL     1       3.303   4.391  20.505  0.00  0.00    +0.000 C 
ATOM      5  C   UNL     1       1.790   4.585  20.600  0.00  0.00    +0.000 C 
ATOM      6  C   UNL     1       1.354   5.989  20.148  0.00  0.00    +0.000 C 
ATOM      7  C   UNL     1       1.887   6.251  18.741  0.00  0.00    +0.000 C 
ATOM      8  C   UNL     1       3.385   6.010  18.629  0.00  0.00    +0.000 C 
ENDROOT
BRANCH   1  12
ATOM      9  C   UNL     1       6.821   4.866  14.972  0.00  0.00    +0.000 A 
ATOM     10  C   UNL     1       5.526   4.338  14.928  0.00  0.00    +0.000 A 
ATOM     11  C   UNL     1       4.858   4.023  16.117  0.00  0.00    +0.000 A 
ATOM     12  C   UNL     1       5.490   4.206  17.358  0.00  0.00    +0.000 A 
ATOM     13  C   UNL     1       6.818   4.644  17.375  0.00  0.00    +0.000 A 
ATOM     14  C   UNL     1       7.462   5.026  16.199  0.00  0.00    +0.000 A 
BRANCH   9  16
ATOM     15  N   UNL     1       8.064   5.526  12.797  0.00  0.00    +0.000 NA
ATOM     16  C   UNL     1       7.504   5.223  13.764  0.00  0.00    +0.000 C 
ENDBRANCH   9  16
ENDBRANCH   1  12
BRANCH   6  17
ATOM     17  C   UNL     1       1.809   7.087  21.120  0.00  0.00    +0.000 C 
BRANCH  17  18
ATOM     18  O   UNL     1       1.750   8.349  20.455  0.00  0.00    +0.000 OA
BRANCH  18  19
ATOM     19  C   UNL     1       0.868   9.246  20.990  0.00  0.00    +0.000 A 
ATOM     20  C   UNL     1       0.237  10.087  20.077  0.00  0.00    +0.000 A 
ATOM     21  C   UNL     1      -0.686  11.037  20.519  0.00  0.00    +0.000 A 
ATOM     22  C   UNL     1      -1.016  11.146  21.878  0.00  0.00    +0.000 A 
ATOM     23  C   UNL     1      -0.385  10.286  22.786  0.00  0.00    +0.000 A 
ATOM     24  C   UNL     1       0.545   9.342  22.343  0.00  0.00    +0.000 A 
BRANCH  22  25
ATOM     25  C   UNL     1      -2.036  12.169  22.274  0.00  0.00    +0.000 C 
ATOM     26  O   UNL     1      -2.050  13.256  21.707  0.00  0.00    +0.000 OA
ATOM     27  N   UNL     1      -2.937  11.831  23.268  0.00  0.00    +0.000 N 
ATOM     28  H   UNL     1      -2.949  10.903  23.660  0.00  0.00    +0.000 HD
BRANCH  27  29
ATOM     29  C   UNL     1      -3.977  12.725  23.680  0.00  0.00    +0.000 C 
ATOM     30  C   UNL     1      -4.777  12.450  24.924  0.00  0.00    +0.000 C 
ATOM     31  C   UNL     1      -3.810  13.595  24.893  0.00  0.00    +0.000 C 
ENDBRANCH  27  29
ENDBRANCH  22  25
ENDBRANCH  18  19
ENDBRANCH  17  18
ENDBRANCH   6  17
TORSDOF 7
ENDMDL
MODEL 6
REMARK VINA RESULT:      -7.3      1.093      1.537
REMARK  Name = 
REMARK  7 active torsions:
REMARK  status: ('A' for Active; 'I' for Inactive)
REMARK    1  A    between atoms: C_2  and  C_3
REMARK    2  A    between atoms: C_6  and  C_7
REMARK    3  A    between atoms: C_12  and  C_13
REMARK    4  A    between atoms: C_13  and  O_14
REMARK    5  A    between atoms: O_14  and  C_15
REMARK    6  A    between atoms: C_18  and  C_19
REMARK    7  A    between atoms: N_21  and  C_22
REMARK                            x       y       z     vdW  Elec       q    Type
REMARK                         _______ _______ _______ _____ _____    ______ ____
ROOT
ATOM      1  C   UNL     1       4.743   4.016  18.717  0.00  0.00    +0.000 C 
ATOM      2  O   UNL     1       5.015   2.946  19.263  0.00  0.00    +0.000 OA
ATOM      3  N   UNL     1       3.780   4.893  19.234  0.00  0.00    +0.000 N 
ATOM      4  C   UNL     1       3.286   4.634  20.589  0.00  0.00    +0.000 C 
ATOM      5  C   UNL     1       1.768   4.789  20.670  0.00  0.00    +0.000 C 
ATOM      6  C   UNL     1       1.290   6.149  20.135  0.00  0.00    +0.000 C 
ATOM      7  C   UNL     1       1.820   6.343  18.716  0.00  0.00    +0.000 C 
ATOM      8  C   UNL     1       3.325   6.140  18.620  0.00  0.00    +0.000 C 
ENDROOT
BRANCH   1  12
ATOM      9  C   UNL     1       6.803   4.884  15.040  0.00  0.00    +0.000 A 
ATOM     10  C   UNL     1       5.522   4.321  15.027  0.00  0.00    +0.000 A 
ATOM     11  C   UNL     1       4.861   4.057  16.232  0.00  0.00    +0.000 A 
ATOM     12  C   UNL     1       5.485   4.327  17.461  0.00  0.00    +0.000 A 
ATOM     13  C   UNL     1       6.802   4.801  17.453  0.00  0.00    +0.000 A 
ATOM     14  C   UNL     1       7.437   5.132  16.257  0.00  0.00    +0.000 A 
BRANCH   9  16
ATOM     15  N   UNL     1       8.031   5.419  12.823  0.00  0.00    +0.000 NA
ATOM     16  C   UNL     1       7.478   5.189  13.814  0.00  0.00    +0.000 C 
ENDBRANCH   9  16
ENDBRANCH   1  12
BRANCH   6  17
ATOM     17  C   UNL     1       1.710   7.316  21.040  0.00  0.00    +0.000 C 
BRANCH  17  18
ATOM     18  O   UNL     1       1.550   8.541  20.323  0.00  0.00    +0.000 OA
BRANCH  18  19
ATOM     19  C   UNL     1       0.727   9.457  20.917  0.00  0.00    +0.000 A 
ATOM     20  C   UNL     1       0.200   9.082  22.150  0.00  0.00    +0.000 A 
ATOM     21  C   UNL     1      -0.649   9.947  22.842  0.00  0.00    +0.000 A 
ATOM     22  C   UNL     1      -0.965  11.214  22.330  0.00  0.00    +0.000 A 
ATOM     23  C   UNL     1      -0.419  11.586  21.095  0.00  0.00    +0.000 A 
ATOM     24  C   UNL     1       0.424  10.715  20.399  0.00  0.00    +0.000 A 
BRANCH  22  25
ATOM     25  C   UNL     1      -1.859  12.099  23.142  0.00  0.00    +0.000 C 
ATOM     26  O   UNL     1      -2.913  11.650  23.583  0.00  0.00    +0.000 OA
ATOM     27  N   UNL     1      -1.445  13.398  23.374  0.00  0.00    +0.000 N 
ATOM     28  H   UNL     1      -0.539  13.714  23.065  0.00  0.00    +0.000 HD
BRANCH  27  29
ATOM     29  C   UNL     1      -2.209  14.303  24.179  0.00  0.00    +0.000 C 
ATOM     30  C   UNL     1      -2.029  15.790  24.044  0.00  0.00    +0.000 C 
ATOM     31  C   UNL     1      -3.297  15.144  23.573  0.00  0.00    +0.000 C 
ENDBRANCH  27  29
ENDBRANCH  22  25
ENDBRANCH  18  19
ENDBRANCH  17  18
ENDBRANCH   6  17
TORSDOF 7
ENDMDL
MODEL 7
REMARK VINA RESULT:      -7.3      2.393     11.140
REMARK  Name = 
REMARK  7 active torsions:
REMARK  status: ('A' for Active; 'I' for Inactive)
REMARK    1  A    between atoms: C_2  and  C_3
REMARK    2  A    between atoms: C_6  and  C_7
REMARK    3  A    between atoms: C_12  and  C_13
REMARK    4  A    between atoms: C_13  and  O_14
REMARK    5  A    between atoms: O_14  and  C_15
REMARK    6  A    between atoms: C_18  and  C_19
REMARK    7  A    between atoms: N_21  and  C_22
REMARK                            x       y       z     vdW  Elec       q    Type
REMARK                         _______ _______ _______ _____ _____    ______ ____
ROOT
ATOM      1  C   UNL     1       1.311   9.538  18.738  0.00  0.00    +0.000 C 
ATOM      2  O   UNL     1       1.263   9.913  17.566  0.00  0.00    +0.000 OA
ATOM      3  N   UNL     1       1.878   8.310  19.105  0.00  0.00    +0.000 N 
ATOM      4  C   UNL     1       2.653   7.591  18.092  0.00  0.00    +0.000 C 
ATOM      5  C   UNL     1       2.319   6.100  18.084  0.00  0.00    +0.000 C 
ATOM      6  C   UNL     1       2.464   5.463  19.477  0.00  0.00    +0.000 C 
ATOM      7  C   UNL     1       1.614   6.245  20.476  0.00  0.00    +0.000 C 
ATOM      8  C   UNL     1       1.907   7.738  20.452  0.00  0.00    +0.000 C 
ENDROOT
BRANCH   1  12
ATOM      9  C   UNL     1      -0.325  12.260  21.642  0.00  0.00    +0.000 A 
ATOM     10  C   UNL     1       0.831  12.589  20.924  0.00  0.00    +0.000 A 
ATOM     11  C   UNL     1       1.341  11.698  19.973  0.00  0.00    +0.000 A 
ATOM     12  C   UNL     1       0.719  10.458  19.753  0.00  0.00    +0.000 A 
ATOM     13  C   UNL     1      -0.377  10.109  20.549  0.00  0.00    +0.000 A 
ATOM     14  C   UNL     1      -0.932  11.021  21.445  0.00  0.00    +0.000 A 
BRANCH   9  16
ATOM     15  N   UNL     1      -1.339  13.919  23.354  0.00  0.00    +0.000 NA
ATOM     16  C   UNL     1      -0.877  13.177  22.594  0.00  0.00    +0.000 C 
ENDBRANCH   9  16
ENDBRANCH   1  12
BRANCH   6  17
ATOM     17  C   UNL     1       3.926   5.391  19.940  0.00  0.00    +0.000 C 
BRANCH  17  18
ATOM     18  O   UNL     1       4.516   4.194  19.431  0.00  0.00    +0.000 OA
BRANCH  18  19
ATOM     19  C   UNL     1       5.082   4.308  18.193  0.00  0.00    +0.000 A 
ATOM     20  C   UNL     1       4.596   3.430  17.226  0.00  0.00    +0.000 A 
ATOM     21  C   UNL     1       5.105   3.466  15.927  0.00  0.00    +0.000 A 
ATOM     22  C   UNL     1       6.088   4.397  15.561  0.00  0.00    +0.000 A 
ATOM     23  C   UNL     1       6.561   5.283  16.537  0.00  0.00    +0.000 A 
ATOM     24  C   UNL     1       6.057   5.240  17.840  0.00  0.00    +0.000 A 
BRANCH  22  25
ATOM     25  C   UNL     1       6.566   4.395  14.141  0.00  0.00    +0.000 C 
ATOM     26  O   UNL     1       7.280   5.310  13.744  0.00  0.00    +0.000 OA
ATOM     27  N   UNL     1       6.186   3.338  13.334  0.00  0.00    +0.000 N 
ATOM     28  H   UNL     1       5.663   2.563  13.710  0.00  0.00    +0.000 HD
BRANCH  27  29
ATOM     29  C   UNL     1       6.633   3.225  11.978  0.00  0.00    +0.000 C 
ATOM     30  C   UNL     1       7.107   1.904  11.435  0.00  0.00    +0.000 C 
ATOM     31  C   UNL     1       5.813   2.490  10.955  0.00  0.00    +0.000 C 
ENDBRANCH  27  29
ENDBRANCH  22  25
ENDBRANCH  18  19
ENDBRANCH  17  18
ENDBRANCH   6  17
TORSDOF 7
ENDMDL
MODEL 8
REMARK VINA RESULT:      -7.1      0.531      1.085
REMARK  Name = 
REMARK  7 active torsions:
REMARK  status: ('A' for Active; 'I' for Inactive)
REMARK    1  A    between atoms: C_2  and  C_3
REMARK    2  A    between atoms: C_6  and  C_7
REMARK    3  A    between atoms: C_12  and  C_13
REMARK    4  A    between atoms: C_13  and  O_14
REMARK    5  A    between atoms: O_14  and  C_15
REMARK    6  A    between atoms: C_18  and  C_19
REMARK    7  A    between atoms: N_21  and  C_22
REMARK                            x       y       z     vdW  Elec       q    Type
REMARK                         _______ _______ _______ _____ _____    ______ ____
ROOT
ATOM      1  C   UNL     1       4.680   3.845  18.772  0.00  0.00    +0.000 C 
ATOM      2  O   UNL     1       4.961   2.762  19.285  0.00  0.00    +0.000 OA
ATOM      3  N   UNL     1       3.712   4.700  19.316  0.00  0.00    +0.000 N 
ATOM      4  C   UNL     1       3.221   4.397  20.663  0.00  0.00    +0.000 C 
ATOM      5  C   UNL     1       1.703   4.539  20.750  0.00  0.00    +0.000 C 
ATOM      6  C   UNL     1       1.215   5.911  20.257  0.00  0.00    +0.000 C 
ATOM      7  C   UNL     1       1.741   6.151  18.843  0.00  0.00    +0.000 C 
ATOM      8  C   UNL     1       3.247   5.962  18.739  0.00  0.00    +0.000 C 
ENDROOT
BRANCH   1  12
ATOM      9  C   UNL     1       6.730   4.835  15.120  0.00  0.00    +0.000 A 
ATOM     10  C   UNL     1       5.472   4.222  15.091  0.00  0.00    +0.000 A 
ATOM     11  C   UNL     1       4.814   3.920  16.288  0.00  0.00    +0.000 A 
ATOM     12  C   UNL     1       5.419   4.200  17.524  0.00  0.00    +0.000 A 
ATOM     13  C   UNL     1       6.716   4.724  17.531  0.00  0.00    +0.000 A 
ATOM     14  C   UNL     1       7.346   5.093  16.343  0.00  0.00    +0.000 A 
BRANCH   9  16
ATOM     15  N   UNL     1       7.953   5.471  12.927  0.00  0.00    +0.000 NA
ATOM     16  C   UNL     1       7.401   5.179  13.902  0.00  0.00    +0.000 C 
ENDBRANCH   9  16
ENDBRANCH   1  12
BRANCH   6  17
ATOM     17  C   UNL     1       1.628   7.054  21.196  0.00  0.00    +0.000 C 
BRANCH  17  18
ATOM     18  O   UNL     1       1.640   8.277  20.461  0.00  0.00    +0.000 OA
BRANCH  18  19
ATOM     19  C   UNL     1       0.778   9.236  20.914  0.00  0.00    +0.000 A 
ATOM     20  C   UNL     1       0.634   9.310  22.298  0.00  0.00    +0.000 A 
ATOM     21  C   UNL     1      -0.220  10.257  22.864  0.00  0.00    +0.000 A 
ATOM     22  C   UNL     1      -0.925  11.166  22.063  0.00  0.00    +0.000 A 
ATOM     23  C   UNL     1      -0.764  11.091  20.674  0.00  0.00    +0.000 A 
ATOM     24  C   UNL     1       0.084  10.137  20.107  0.00  0.00    +0.000 A 
BRANCH  22  25
ATOM     25  C   UNL     1      -1.802  12.172  22.743  0.00  0.00    +0.000 C 
ATOM     26  O   UNL     1      -1.351  12.833  23.674  0.00  0.00    +0.000 OA
ATOM     27  N   UNL     1      -3.095  12.324  22.275  0.00  0.00    +0.000 N 
ATOM     28  H   UNL     1      -3.411  11.823  21.461  0.00  0.00    +0.000 HD
BRANCH  27  29
ATOM     29  C   UNL     1      -3.990  13.294  22.831  0.00  0.00    +0.000 C 
ATOM     30  C   UNL     1      -5.136  13.833  22.020  0.00  0.00    +0.000 C 
ATOM     31  C   UNL     1      -5.403  12.926  23.184  0.00  0.00    +0.000 C 
ENDBRANCH  27  29
ENDBRANCH  22  25
ENDBRANCH  18  19
ENDBRANCH  17  18
ENDBRANCH   6  17
TORSDOF 7
ENDMDL
MODEL 9
REMARK VINA RESULT:      -7.0      2.086      3.442
REMARK  Name = 
REMARK  7 active torsions:
REMARK  status: ('A' for Active; 'I' for Inactive)
REMARK    1  A    between atoms: C_2  and  C_3
REMARK    2  A    between atoms: C_6  and  C_7
REMARK    3  A    between atoms: C_12  and  C_13
REMARK    4  A    between atoms: C_13  and  O_14
REMARK    5  A    between atoms: O_14  and  C_15
REMARK    6  A    between atoms: C_18  and  C_19
REMARK    7  A    between atoms: N_21  and  C_22
REMARK                            x       y       z     vdW  Elec       q    Type
REMARK                         _______ _______ _______ _____ _____    ______ ____
ROOT
ATOM      1  C   UNL     1       2.195   6.193  20.114  0.00  0.00    +0.000 C 
ATOM      2  O   UNL     1       1.936   5.410  21.029  0.00  0.00    +0.000 OA
ATOM      3  N   UNL     1       1.736   7.516  20.111  0.00  0.00    +0.000 N 
ATOM      4  C   UNL     1       1.156   8.034  21.353  0.00  0.00    +0.000 C 
ATOM      5  C   UNL     1      -0.122   8.828  21.086  0.00  0.00    +0.000 C 
ATOM      6  C   UNL     1       0.089   9.939  20.043  0.00  0.00    +0.000 C 
ATOM      7  C   UNL     1       0.671   9.328  18.771  0.00  0.00    +0.000 C 
ATOM      8  C   UNL     1       1.915   8.495  19.038  0.00  0.00    +0.000 C 
ENDROOT
BRANCH   1  12
ATOM      9  C   UNL     1       4.650   4.682  16.918  0.00  0.00    +0.000 A 
ATOM     10  C   UNL     1       5.176   5.564  17.869  0.00  0.00    +0.000 A 
ATOM     11  C   UNL     1       4.367   6.035  18.910  0.00  0.00    +0.000 A 
ATOM     12  C   UNL     1       3.018   5.652  18.992  0.00  0.00    +0.000 A 
ATOM     13  C   UNL     1       2.488   4.847  17.978  0.00  0.00    +0.000 A 
ATOM     14  C   UNL     1       3.306   4.318  16.981  0.00  0.00    +0.000 A 
BRANCH   9  16
ATOM     15  N   UNL     1       6.155   3.764  15.020  0.00  0.00    +0.000 NA
ATOM     16  C   UNL     1       5.475   4.166  15.867  0.00  0.00    +0.000 C 
ENDBRANCH   9  16
ENDBRANCH   1  12
BRANCH   6  17
ATOM     17  C   UNL     1       0.984  11.073  20.566  0.00  0.00    +0.000 C 
BRANCH  17  18
ATOM     18  O   UNL     1       0.612  11.375  21.910  0.00  0.00    +0.000 OA
BRANCH  18  19
ATOM     19  C   UNL     1      -0.502  12.156  22.042  0.00  0.00    +0.000 A 
ATOM     20  C   UNL     1      -1.495  11.651  22.880  0.00  0.00    +0.000 A 
ATOM     21  C   UNL     1      -2.672  12.372  23.086  0.00  0.00    +0.000 A 
ATOM     22  C   UNL     1      -2.869  13.623  22.483  0.00  0.00    +0.000 A 
ATOM     23  C   UNL     1      -1.860  14.127  21.653  0.00  0.00    +0.000 A 
ATOM     24  C   UNL     1      -0.685  13.400  21.440  0.00  0.00    +0.000 A 
BRANCH  22  25
ATOM     25  C   UNL     1      -4.145  14.351  22.773  0.00  0.00    +0.000 C 
ATOM     26  O   UNL     1      -4.257  15.527  22.442  0.00  0.00    +0.000 OA
ATOM     27  N   UNL     1      -5.160  13.650  23.399  0.00  0.00    +0.000 N 
ATOM     28  H   UNL     1      -5.066  12.665  23.589  0.00  0.00    +0.000 HD
BRANCH  27  29
ATOM     29  C   UNL     1      -6.432  14.248  23.674  0.00  0.00    +0.000 C 
ATOM     30  C   UNL     1      -7.638  13.899  22.845  0.00  0.00    +0.000 C 
ATOM     31  C   UNL     1      -7.551  13.440  24.270  0.00  0.00    +0.000 C 
ENDBRANCH  27  29
ENDBRANCH  22  25
ENDBRANCH  18  19
ENDBRANCH  17  18
ENDBRANCH   6  17
TORSDOF 7
ENDMDL
