MODEL 1
REMARK VINA RESULT:      -7.6      0.000      0.000
REMARK  Name = 
REMARK  7 active torsions:
REMARK  status: ('A' for Active; 'I' for Inactive)
REMARK    1  A    between atoms: C_1  and  C_2
REMARK    2  A    between atoms: C_5  and  C_6
REMARK    3  A    between atoms: C_7  and  C_8
REMARK    4  A    between atoms: N_10  and  C_11
REMARK    5  A    between atoms: N_10  and  C_18
REMARK    6  A    between atoms: C_11  and  C_12
REMARK    7  A    between atoms: C_18  and  C_19
REMARK                            x       y       z     vdW  Elec       q    Type
REMARK                         _______ _______ _______ _____ _____    ______ ____
ROOT
ATOM      1  C   UNL     1       3.843   6.266  17.537  0.00  0.00    +0.000 C 
ATOM      2  O   UNL     1       4.161   7.466  17.523  0.00  0.00    +0.000 OA
ATOM      3  N   UNL     1       2.550   5.915  17.989  0.00  0.00    +0.000 N 
ENDROOT
BRANCH   1  10
ATOM      4  C   UNL     1       6.432   4.152  13.693  0.00  0.00    +0.000 C 
ATOM      5  C   UNL     1       6.235   4.451  15.155  0.00  0.00    +0.000 A 
ATOM      6  C   UNL     1       7.303   4.199  16.018  0.00  0.00    +0.000 A 
ATOM      7  C   UNL     1       7.199   4.506  17.365  0.00  0.00    +0.000 A 
ATOM      8  C   UNL     1       6.023   5.077  17.886  0.00  0.00    +0.000 A 
ATOM      9  C   UNL     1       6.070   5.495  19.333  0.00  0.00    +0.000 C 
ATOM     10  C   UNL     1       4.915   5.342  17.031  0.00  0.00    +0.000 A 
ATOM     11  C   UNL     1       5.036   5.013  15.665  0.00  0.00    +0.000 A 
ENDBRANCH   1  10
BRANCH   3  12
ATOM     12  C   UNL     1       1.950   4.585  18.002  0.00  0.00    +0.000 C 
BRANCH  12  13
ATOM     13  C   UNL     1       2.176   3.653  19.184  0.00  0.00    +0.000 A 
ATOM     14  C   UNL     1       3.355   2.950  19.442  0.00  0.00    +0.000 A 
ATOM     15  C   UNL     1       3.603   2.523  20.745  0.00  0.00    +0.000 A 
ATOM     16  N   UNL     1       2.748   2.693  21.776  0.00  0.00    +0.000 NA
ATOM     17  C   UNL     1       1.567   3.270  21.486  0.00  0.00    +0.000 A 
ATOM     18  C   UNL     1       1.232   3.732  20.223  0.00  0.00    +0.000 A 
ENDBRANCH  12  13
ENDBRANCH   3  12
BRANCH   3  19
ATOM     19  C   UNL     1       1.647   7.062  18.251  0.00  0.00    +0.000 C 
BRANCH  19  20
ATOM     20  C   UNL     1       1.912   7.876  19.539  0.00  0.00    +0.000 C 
ATOM     21  C   UNL     1       1.359   7.311  20.841  0.00  0.00    +0.000 C 
ATOM     22  C   UNL     1       1.338   8.521  21.771  0.00  0.00    +0.000 C 
ATOM     23  C   UNL     1       1.090   9.664  20.816  0.00  0.00    +0.000 C 
ATOM     24  O   UNL     1       0.729  10.786  21.109  0.00  0.00    +0.000 OA
ATOM     25  N   UNL     1       1.378   9.207  19.546  0.00  0.00    +0.000 N 
ATOM     26  H   UNL     1       1.310   9.795  18.715  0.00  0.00    +0.000 HD
ENDBRANCH  19  20
ENDBRANCH   3  19
TORSDOF 5
ENDMDL
MODEL 2
REMARK VINA RESULT:      -7.6      2.638      6.198
REMARK  Name = 
REMARK  7 active torsions:
REMARK  status: ('A' for Active; 'I' for Inactive)
REMARK    1  A    between atoms: C_1  and  C_2
REMARK    2  A    between atoms: C_5  and  C_6
REMARK    3  A    between atoms: C_7  and  C_8
REMARK    4  A    between atoms: N_10  and  C_11
REMARK    5  A    between atoms: N_10  and  C_18
REMARK    6  A    between atoms: C_11  and  C_12
REMARK    7  A    between atoms: C_18  and  C_19
REMARK                            x       y       z     vdW  Elec       q    Type
REMARK                         _______ _______ _______ _____ _____    ______ ____
ROOT
ATOM      1  C   UNL     1       4.864   5.699  17.183  0.00  0.00    +0.000 C 
ATOM      2  O   UNL     1       6.064   6.019  17.194  0.00  0.00    +0.000 OA
ATOM      3  N   UNL     1       4.452   4.653  16.325  0.00  0.00    +0.000 N 
ENDROOT
BRANCH   1  10
ATOM      4  C   UNL     1       1.233   9.161  18.058  0.00  0.00    +0.000 C 
ATOM      5  C   UNL     1       2.155   8.062  18.512  0.00  0.00    +0.000 A 
ATOM      6  C   UNL     1       1.917   7.491  19.763  0.00  0.00    +0.000 A 
ATOM      7  C   UNL     1       2.700   6.438  20.209  0.00  0.00    +0.000 A 
ATOM      8  C   UNL     1       3.741   5.925  19.413  0.00  0.00    +0.000 A 
ATOM      9  C   UNL     1       4.436   4.695  19.938  0.00  0.00    +0.000 C 
ATOM     10  C   UNL     1       4.010   6.489  18.133  0.00  0.00    +0.000 A 
ATOM     11  C   UNL     1       3.209   7.567  17.701  0.00  0.00    +0.000 A 
ENDBRANCH   1  10
BRANCH   3  12
ATOM     12  C   UNL     1       3.120   4.067  16.224  0.00  0.00    +0.000 C 
BRANCH  12  13
ATOM     13  C   UNL     1       2.598   3.154  17.324  0.00  0.00    +0.000 A 
ATOM     14  C   UNL     1       3.302   2.087  17.888  0.00  0.00    +0.000 A 
ATOM     15  C   UNL     1       2.932   1.641  19.154  0.00  0.00    +0.000 A 
ATOM     16  N   UNL     1       1.893   2.136  19.861  0.00  0.00    +0.000 NA
ATOM     17  C   UNL     1       1.155   3.084  19.254  0.00  0.00    +0.000 A 
ATOM     18  C   UNL     1       1.447   3.595  18.001  0.00  0.00    +0.000 A 
ENDBRANCH  12  13
ENDBRANCH   3  12
BRANCH   3  19
ATOM     19  C   UNL     1       5.555   3.936  15.640  0.00  0.00    +0.000 C 
BRANCH  19  20
ATOM     20  C   UNL     1       6.060   4.544  14.310  0.00  0.00    +0.000 C 
ATOM     21  C   UNL     1       6.370   3.573  13.179  0.00  0.00    +0.000 C 
ATOM     22  C   UNL     1       7.276   4.384  12.256  0.00  0.00    +0.000 C 
ATOM     23  C   UNL     1       7.998   5.293  13.220  0.00  0.00    +0.000 C 
ATOM     24  O   UNL     1       9.007   5.931  12.996  0.00  0.00    +0.000 OA
ATOM     25  N   UNL     1       7.282   5.291  14.400  0.00  0.00    +0.000 N 
ATOM     26  H   UNL     1       7.549   5.845  15.214  0.00  0.00    +0.000 HD
ENDBRANCH  19  20
ENDBRANCH   3  19
TORSDOF 5
ENDMDL
MODEL 3
REMARK VINA RESULT:      -7.6      2.506      6.560
REMARK  Name = 
REMARK  7 active torsions:
REMARK  status: ('A' for Active; 'I' for Inactive)
REMARK    1  A    between atoms: C_1  and  C_2
REMARK    2  A    between atoms: C_5  and  C_6
REMARK    3  A    between atoms: C_7  and  C_8
REMARK    4  A    between atoms: N_10  and  C_11
REMARK    5  A    between atoms: N_10  and  C_18
REMARK    6  A    between atoms: C_11  and  C_12
REMARK    7  A    between atoms: C_18  and  C_19
REMARK                            x       y       z     vdW  Elec       q    Type
REMARK                         _______ _______ _______ _____ _____    ______ ____
ROOT
ATOM      1  C   UNL     1       4.456   4.162  18.727  0.00  0.00    +0.000 C 
ATOM      2  O   UNL     1       5.595   3.694  18.883  0.00  0.00    +0.000 OA
ATOM      3  N   UNL     1       4.323   5.428  18.112  0.00  0.00    +0.000 N 
ENDROOT
BRANCH   1  10
ATOM      4  C   UNL     1       1.218   2.695  22.376  0.00  0.00    +0.000 C 
ATOM      5  C   UNL     1       1.710   2.680  20.953  0.00  0.00    +0.000 A 
ATOM      6  C   UNL     1       0.870   2.133  19.983  0.00  0.00    +0.000 A 
ATOM      7  C   UNL     1       1.246   2.141  18.649  0.00  0.00    +0.000 A 
ATOM      8  C   UNL     1       2.473   2.703  18.249  0.00  0.00    +0.000 A 
ATOM      9  C   UNL     1       2.718   2.781  16.764  0.00  0.00    +0.000 C 
ATOM     10  C   UNL     1       3.353   3.266  19.217  0.00  0.00    +0.000 A 
ATOM     11  C   UNL     1       2.958   3.239  20.571  0.00  0.00    +0.000 A 
ENDBRANCH   1  10
BRANCH   3  12
ATOM     12  C   UNL     1       3.084   6.112  17.757  0.00  0.00    +0.000 C 
BRANCH  12  13
ATOM     13  C   UNL     1       2.632   7.335  18.543  0.00  0.00    +0.000 A 
ATOM     14  C   UNL     1       2.266   8.562  17.984  0.00  0.00    +0.000 A 
ATOM     15  C   UNL     1       1.453   9.415  18.727  0.00  0.00    +0.000 A 
ATOM     16  N   UNL     1       1.034   9.161  19.985  0.00  0.00    +0.000 NA
ATOM     17  C   UNL     1       1.490   8.028  20.551  0.00  0.00    +0.000 A 
ATOM     18  C   UNL     1       2.297   7.116  19.891  0.00  0.00    +0.000 A 
ENDBRANCH  12  13
ENDBRANCH   3  12
BRANCH   3  19
ATOM     19  C   UNL     1       5.582   5.992  17.567  0.00  0.00    +0.000 C 
BRANCH  19  20
ATOM     20  C   UNL     1       5.802   5.856  16.041  0.00  0.00    +0.000 C 
ATOM     21  C   UNL     1       5.416   4.528  15.402  0.00  0.00    +0.000 C 
ATOM     22  C   UNL     1       6.188   4.533  14.085  0.00  0.00    +0.000 C 
ATOM     23  C   UNL     1       7.425   5.325  14.433  0.00  0.00    +0.000 C 
ATOM     24  O   UNL     1       8.457   5.373  13.793  0.00  0.00    +0.000 OA
ATOM     25  N   UNL     1       7.158   6.012  15.599  0.00  0.00    +0.000 N 
ATOM     26  H   UNL     1       7.829   6.641  16.040  0.00  0.00    +0.000 HD
ENDBRANCH  19  20
ENDBRANCH   3  19
TORSDOF 5
ENDMDL
MODEL 4
REMARK VINA RESULT:      -7.4      2.389      4.536
REMARK  Name = 
REMARK  7 active torsions:
REMARK  status: ('A' for Active; 'I' for Inactive)
REMARK    1  A    between atoms: C_1  and  C_2
REMARK    2  A    between atoms: C_5  and  C_6
REMARK    3  A    between atoms: C_7  and  C_8
REMARK    4  A    between atoms: N_10  and  C_11
REMARK    5  A    between atoms: N_10  and  C_18
REMARK    6  A    between atoms: C_11  and  C_12
REMARK    7  A    between atoms: C_18  and  C_19
REMARK                            x       y       z     vdW  Elec       q    Type
REMARK                         _______ _______ _______ _____ _____    ______ ____
ROOT
ATOM      1  C   UNL     1       4.919   4.483  18.353  0.00  0.00    +0.000 C 
ATOM      2  O   UNL     1       5.136   3.547  19.140  0.00  0.00    +0.000 OA
ATOM      3  N   UNL     1       3.978   5.472  18.722  0.00  0.00    +0.000 N 
ENDROOT
BRANCH   1  10
ATOM      4  C   UNL     1       5.283   3.756  13.325  0.00  0.00    +0.000 C 
ATOM      5  C   UNL     1       5.848   4.208  14.645  0.00  0.00    +0.000 A 
ATOM      6  C   UNL     1       7.018   4.969  14.623  0.00  0.00    +0.000 A 
ATOM      7  C   UNL     1       7.553   5.459  15.803  0.00  0.00    +0.000 A 
ATOM      8  C   UNL     1       6.930   5.203  17.039  0.00  0.00    +0.000 A 
ATOM      9  C   UNL     1       7.521   5.897  18.239  0.00  0.00    +0.000 C 
ATOM     10  C   UNL     1       5.737   4.427  17.093  0.00  0.00    +0.000 A 
ATOM     11  C   UNL     1       5.213   3.928  15.883  0.00  0.00    +0.000 A 
ENDBRANCH   1  10
BRANCH   3  12
ATOM     12  C   UNL     1       3.644   6.689  17.991  0.00  0.00    +0.000 C 
BRANCH  12  13
ATOM     13  C   UNL     1       2.513   7.587  18.473  0.00  0.00    +0.000 A 
ATOM     14  C   UNL     1       2.045   7.658  19.787  0.00  0.00    +0.000 A 
ATOM     15  C   UNL     1       1.363   8.804  20.189  0.00  0.00    +0.000 A 
ATOM     16  N   UNL     1       1.072   9.840  19.374  0.00  0.00    +0.000 NA
ATOM     17  C   UNL     1       1.429   9.705  18.083  0.00  0.00    +0.000 A 
ATOM     18  C   UNL     1       2.114   8.607  17.591  0.00  0.00    +0.000 A 
ENDBRANCH  12  13
ENDBRANCH   3  12
BRANCH   3  19
ATOM     19  C   UNL     1       3.465   5.358  20.109  0.00  0.00    +0.000 C 
BRANCH  19  20
ATOM     20  C   UNL     1       2.185   4.513  20.311  0.00  0.00    +0.000 C 
ATOM     21  C   UNL     1       2.297   3.295  21.218  0.00  0.00    +0.000 C 
ATOM     22  C   UNL     1       1.092   2.446  20.819  0.00  0.00    +0.000 C 
ATOM     23  C   UNL     1       0.927   2.779  19.356  0.00  0.00    +0.000 C 
ATOM     24  O   UNL     1       0.275   2.157  18.541  0.00  0.00    +0.000 OA
ATOM     25  N   UNL     1       1.631   3.942  19.118  0.00  0.00    +0.000 N 
ATOM     26  H   UNL     1       1.664   4.394  18.204  0.00  0.00    +0.000 HD
ENDBRANCH  19  20
ENDBRANCH   3  19
TORSDOF 5
ENDMDL
MODEL 5
REMARK VINA RESULT:      -7.3      2.295      4.469
REMARK  Name = 
REMARK  7 active torsions:
REMARK  status: ('A' for Active; 'I' for Inactive)
REMARK    1  A    between atoms: C_1  and  C_2
REMARK    2  A    between atoms: C_5  and  C_6
REMARK    3  A    between atoms: C_7  and  C_8
REMARK    4  A    between atoms: N_10  and  C_11
REMARK    5  A    between atoms: N_10  and  C_18
REMARK    6  A    between atoms: C_11  and  C_12
REMARK    7  A    between atoms: C_18  and  C_19
REMARK                            x       y       z     vdW  Elec       q    Type
REMARK                         _______ _______ _______ _____ _____    ______ ____
ROOT
ATOM      1  C   UNL     1       3.601   3.998  17.029  0.00  0.00    +0.000 C 
ATOM      2  O   UNL     1       3.070   2.899  16.802  0.00  0.00    +0.000 OA
ATOM      3  N   UNL     1       2.835   5.000  17.667  0.00  0.00    +0.000 N 
ENDROOT
BRANCH   1  10
ATOM      4  C   UNL     1       7.106   4.914  13.448  0.00  0.00    +0.000 C 
ATOM      5  C   UNL     1       6.700   4.674  14.877  0.00  0.00    +0.000 A 
ATOM      6  C   UNL     1       7.642   4.943  15.872  0.00  0.00    +0.000 A 
ATOM      7  C   UNL     1       7.306   4.792  17.208  0.00  0.00    +0.000 A 
ATOM      8  C   UNL     1       6.018   4.371  17.586  0.00  0.00    +0.000 A 
ATOM      9  C   UNL     1       5.723   4.374  19.064  0.00  0.00    +0.000 C 
ATOM     10  C   UNL     1       5.037   4.086  16.593  0.00  0.00    +0.000 A 
ATOM     11  C   UNL     1       5.400   4.235  15.238  0.00  0.00    +0.000 A 
ENDBRANCH   1  10
BRANCH   3  12
ATOM     12  C   UNL     1       3.289   6.317  18.101  0.00  0.00    +0.000 C 
BRANCH  12  13
ATOM     13  C   UNL     1       2.291   7.337  18.629  0.00  0.00    +0.000 A 
ATOM     14  C   UNL     1       1.957   7.518  19.973  0.00  0.00    +0.000 A 
ATOM     15  C   UNL     1       1.416   8.741  20.365  0.00  0.00    +0.000 A 
ATOM     16  N   UNL     1       1.138   9.755  19.518  0.00  0.00    +0.000 NA
ATOM     17  C   UNL     1       1.358   9.522  18.211  0.00  0.00    +0.000 A 
ATOM     18  C   UNL     1       1.898   8.342  17.726  0.00  0.00    +0.000 A 
ENDBRANCH  12  13
ENDBRANCH   3  12
BRANCH   3  19
ATOM     19  C   UNL     1       1.503   4.558  18.145  0.00  0.00    +0.000 C 
BRANCH  19  20
ATOM     20  C   UNL     1       1.482   3.580  19.343  0.00  0.00    +0.000 C 
ATOM     21  C   UNL     1       1.025   4.140  20.684  0.00  0.00    +0.000 C 
ATOM     22  C   UNL     1       1.578   3.136  21.693  0.00  0.00    +0.000 C 
ATOM     23  C   UNL     1       2.840   2.655  21.018  0.00  0.00    +0.000 C 
ATOM     24  O   UNL     1       3.757   2.055  21.541  0.00  0.00    +0.000 OA
ATOM     25  N   UNL     1       2.748   2.998  19.684  0.00  0.00    +0.000 N 
ATOM     26  H   UNL     1       3.468   2.768  19.000  0.00  0.00    +0.000 HD
ENDBRANCH  19  20
ENDBRANCH   3  19
TORSDOF 5
ENDMDL
MODEL 6
REMARK VINA RESULT:      -7.3      2.431      5.127
REMARK  Name = 
REMARK  7 active torsions:
REMARK  status: ('A' for Active; 'I' for Inactive)
REMARK    1  A    between atoms: C_1  and  C_2
REMARK    2  A    between atoms: C_5  and  C_6
REMARK    3  A    between atoms: C_7  and  C_8
REMARK    4  A    between atoms: N_10  and  C_11
REMARK    5  A    between atoms: N_10  and  C_18
REMARK    6  A    between atoms: C_11  and  C_12
REMARK    7  A    between atoms: C_18  and  C_19
REMARK                            x       y       z     vdW  Elec       q    Type
REMARK                         _______ _______ _______ _____ _____    ______ ____
ROOT
ATOM      1  C   UNL     1       4.001   5.106  17.973  0.00  0.00    +0.000 C 
ATOM      2  O   UNL     1       4.062   4.159  17.173  0.00  0.00    +0.000 OA
ATOM      3  N   UNL     1       2.771   5.367  18.619  0.00  0.00    +0.000 N 
ENDROOT
BRANCH   1  10
ATOM      4  C   UNL     1       8.582   5.559  20.154  0.00  0.00    +0.000 C 
ATOM      5  C   UNL     1       7.560   5.948  19.119  0.00  0.00    +0.000 A 
ATOM      6  C   UNL     1       7.989   6.733  18.047  0.00  0.00    +0.000 A 
ATOM      7  C   UNL     1       7.105   7.075  17.037  0.00  0.00    +0.000 A 
ATOM      8  C   UNL     1       5.767   6.639  17.069  0.00  0.00    +0.000 A 
ATOM      9  C   UNL     1       4.934   6.955  15.854  0.00  0.00    +0.000 C 
ATOM     10  C   UNL     1       5.299   5.841  18.152  0.00  0.00    +0.000 A 
ATOM     11  C   UNL     1       6.211   5.511  19.177  0.00  0.00    +0.000 A 
ENDBRANCH   1  10
BRANCH   3  12
ATOM     12  C   UNL     1       2.509   6.366  19.650  0.00  0.00    +0.000 C 
BRANCH  12  13
ATOM     13  C   UNL     1       2.150   7.793  19.262  0.00  0.00    +0.000 A 
ATOM     14  C   UNL     1       2.207   8.315  17.967  0.00  0.00    +0.000 A 
ATOM     15  C   UNL     1       1.437   9.437  17.669  0.00  0.00    +0.000 A 
ATOM     16  N   UNL     1       0.673  10.096  18.566  0.00  0.00    +0.000 NA
ATOM     17  C   UNL     1       0.721   9.649  19.835  0.00  0.00    +0.000 A 
ATOM     18  C   UNL     1       1.451   8.539  20.228  0.00  0.00    +0.000 A 
ENDBRANCH  12  13
ENDBRANCH   3  12
BRANCH   3  19
ATOM     19  C   UNL     1       1.713   4.356  18.379  0.00  0.00    +0.000 C 
BRANCH  19  20
ATOM     20  C   UNL     1       1.573   3.231  19.432  0.00  0.00    +0.000 C 
ATOM     21  C   UNL     1       0.696   3.522  20.643  0.00  0.00    +0.000 C 
ATOM     22  C   UNL     1       1.155   2.487  21.667  0.00  0.00    +0.000 C 
ATOM     23  C   UNL     1       2.613   2.307  21.320  0.00  0.00    +0.000 C 
ATOM     24  O   UNL     1       3.464   1.790  22.017  0.00  0.00    +0.000 OA
ATOM     25  N   UNL     1       2.798   2.812  20.050  0.00  0.00    +0.000 N 
ATOM     26  H   UNL     1       3.698   2.793  19.570  0.00  0.00    +0.000 HD
ENDBRANCH  19  20
ENDBRANCH   3  19
TORSDOF 5
ENDMDL
MODEL 7
REMARK VINA RESULT:      -7.3      2.412      4.917
REMARK  Name = 
REMARK  7 active torsions:
REMARK  status: ('A' for Active; 'I' for Inactive)
REMARK    1  A    between atoms: C_1  and  C_2
REMARK    2  A    between atoms: C_5  and  C_6
REMARK    3  A    between atoms: C_7  and  C_8
REMARK    4  A    between atoms: N_10  and  C_11
REMARK    5  A    between atoms: N_10  and  C_18
REMARK    6  A    between atoms: C_11  and  C_12
REMARK    7  A    between atoms: C_18  and  C_19
REMARK                            x       y       z     vdW  Elec       q    Type
REMARK                         _______ _______ _______ _____ _____    ______ ____
ROOT
ATOM      1  C   UNL     1       4.439   5.360  17.513  0.00  0.00    +0.000 C 
ATOM      2  O   UNL     1       4.348   4.482  16.640  0.00  0.00    +0.000 OA
ATOM      3  N   UNL     1       3.272   5.740  18.215  0.00  0.00    +0.000 N 
ENDROOT
BRANCH   1  10
ATOM      4  C   UNL     1       7.808   9.177  17.348  0.00  0.00    +0.000 C 
ATOM      5  C   UNL     1       7.397   7.786  17.751  0.00  0.00    +0.000 A 
ATOM      6  C   UNL     1       8.193   7.119  18.683  0.00  0.00    +0.000 A 
ATOM      7  C   UNL     1       7.833   5.859  19.132  0.00  0.00    +0.000 A 
ATOM      8  C   UNL     1       6.664   5.232  18.663  0.00  0.00    +0.000 A 
ATOM      9  C   UNL     1       6.300   3.925  19.319  0.00  0.00    +0.000 C 
ATOM     10  C   UNL     1       5.833   5.886  17.709  0.00  0.00    +0.000 A 
ATOM     11  C   UNL     1       6.221   7.164  17.256  0.00  0.00    +0.000 A 
ENDBRANCH   1  10
BRANCH   3  12
ATOM     12  C   UNL     1       3.177   6.678  19.328  0.00  0.00    +0.000 C 
BRANCH  12  13
ATOM     13  C   UNL     1       2.127   7.779  19.315  0.00  0.00    +0.000 A 
ATOM     14  C   UNL     1       1.431   8.242  20.434  0.00  0.00    +0.000 A 
ATOM     15  C   UNL     1       0.869   9.516  20.388  0.00  0.00    +0.000 A 
ATOM     16  N   UNL     1       0.902  10.322  19.305  0.00  0.00    +0.000 NA
ATOM     17  C   UNL     1       1.476   9.815  18.198  0.00  0.00    +0.000 A 
ATOM     18  C   UNL     1       2.066   8.562  18.149  0.00  0.00    +0.000 A 
ENDBRANCH  12  13
ENDBRANCH   3  12
BRANCH   3  19
ATOM     19  C   UNL     1       2.075   4.912  17.930  0.00  0.00    +0.000 C 
BRANCH  19  20
ATOM     20  C   UNL     1       1.765   3.770  18.926  0.00  0.00    +0.000 C 
ATOM     21  C   UNL     1       0.793   4.082  20.056  0.00  0.00    +0.000 C 
ATOM     22  C   UNL     1       1.085   2.993  21.085  0.00  0.00    +0.000 C 
ATOM     23  C   UNL     1       2.556   2.730  20.874  0.00  0.00    +0.000 C 
ATOM     24  O   UNL     1       3.302   2.141  21.632  0.00  0.00    +0.000 OA
ATOM     25  N   UNL     1       2.896   3.256  19.645  0.00  0.00    +0.000 N 
ATOM     26  H   UNL     1       3.836   3.194  19.254  0.00  0.00    +0.000 HD
ENDBRANCH  19  20
ENDBRANCH   3  19
TORSDOF 5
ENDMDL
MODEL 8
REMARK VINA RESULT:      -7.3      0.859      1.059
REMARK  Name = 
REMARK  7 active torsions:
REMARK  status: ('A' for Active; 'I' for Inactive)
REMARK    1  A    between atoms: C_1  and  C_2
REMARK    2  A    between atoms: C_5  and  C_6
REMARK    3  A    between atoms: C_7  and  C_8
REMARK    4  A    between atoms: N_10  and  C_11
REMARK    5  A    between atoms: N_10  and  C_18
REMARK    6  A    between atoms: C_11  and  C_12
REMARK    7  A    between atoms: C_18  and  C_19
REMARK                            x       y       z     vdW  Elec       q    Type
REMARK                         _______ _______ _______ _____ _____    ______ ____
ROOT
ATOM      1  C   UNL     1       3.930   6.533  17.461  0.00  0.00    +0.000 C 
ATOM      2  O   UNL     1       4.402   7.681  17.491  0.00  0.00    +0.000 OA
ATOM      3  N   UNL     1       2.581   6.347  17.842  0.00  0.00    +0.000 N 
ENDROOT
BRANCH   1  10
ATOM      4  C   UNL     1       6.277   4.041  13.689  0.00  0.00    +0.000 C 
ATOM      5  C   UNL     1       6.114   4.403  15.141  0.00  0.00    +0.000 A 
ATOM      6  C   UNL     1       7.149   4.064  16.014  0.00  0.00    +0.000 A 
ATOM      7  C   UNL     1       7.078   4.420  17.351  0.00  0.00    +0.000 A 
ATOM      8  C   UNL     1       5.970   5.129  17.852  0.00  0.00    +0.000 A 
ATOM      9  C   UNL     1       6.062   5.582  19.286  0.00  0.00    +0.000 C 
ATOM     10  C   UNL     1       4.897   5.485  16.986  0.00  0.00    +0.000 A 
ATOM     11  C   UNL     1       4.982   5.105  15.630  0.00  0.00    +0.000 A 
ENDBRANCH   1  10
BRANCH   3  12
ATOM     12  C   UNL     1       1.813   5.107  17.796  0.00  0.00    +0.000 C 
BRANCH  12  13
ATOM     13  C   UNL     1       2.372   3.836  18.418  0.00  0.00    +0.000 A 
ATOM     14  C   UNL     1       2.787   2.706  17.708  0.00  0.00    +0.000 A 
ATOM     15  C   UNL     1       3.682   1.830  18.318  0.00  0.00    +0.000 A 
ATOM     16  N   UNL     1       4.139   1.967  19.581  0.00  0.00    +0.000 NA
ATOM     17  C   UNL     1       3.639   2.996  20.290  0.00  0.00    +0.000 A 
ATOM     18  C   UNL     1       2.751   3.923  19.769  0.00  0.00    +0.000 A 
ENDBRANCH  12  13
ENDBRANCH   3  12
BRANCH   3  19
ATOM     19  C   UNL     1       1.823   7.598  18.087  0.00  0.00    +0.000 C 
BRANCH  19  20
ATOM     20  C   UNL     1       1.941   8.218  19.499  0.00  0.00    +0.000 C 
ATOM     21  C   UNL     1       1.455   7.372  20.669  0.00  0.00    +0.000 C 
ATOM     22  C   UNL     1       1.238   8.397  21.780  0.00  0.00    +0.000 C 
ATOM     23  C   UNL     1       0.839   9.633  21.011  0.00  0.00    +0.000 C 
ATOM     24  O   UNL     1       0.310  10.628  21.465  0.00  0.00    +0.000 OA
ATOM     25  N   UNL     1       1.214   9.439  19.698  0.00  0.00    +0.000 N 
ATOM     26  H   UNL     1       1.074  10.140  18.970  0.00  0.00    +0.000 HD
ENDBRANCH  19  20
ENDBRANCH   3  19
TORSDOF 5
ENDMDL
MODEL 9
REMARK VINA RESULT:      -7.3      1.047      1.422
REMARK  Name = 
REMARK  7 active torsions:
REMARK  status: ('A' for Active; 'I' for Inactive)
REMARK    1  A    between atoms: C_1  and  C_2
REMARK    2  A    between atoms: C_5  and  C_6
REMARK    3  A    between atoms: C_7  and  C_8
REMARK    4  A    between atoms: N_10  and  C_11
REMARK    5  A    between atoms: N_10  and  C_18
REMARK    6  A    between atoms: C_11  and  C_12
REMARK    7  A    between atoms: C_18  and  C_19
REMARK                            x       y       z     vdW  Elec       q    Type
REMARK                         _______ _______ _______ _____ _____    ______ ____
ROOT
ATOM      1  C   UNL     1       4.276   6.938  17.492  0.00  0.00    +0.000 C 
ATOM      2  O   UNL     1       4.845   8.032  17.355  0.00  0.00    +0.000 OA
ATOM      3  N   UNL     1       2.983   6.916  18.064  0.00  0.00    +0.000 N 
ENDROOT
BRANCH   1  10
ATOM      4  C   UNL     1       6.267   4.233  13.663  0.00  0.00    +0.000 C 
ATOM      5  C   UNL     1       6.136   4.566  15.125  0.00  0.00    +0.000 A 
ATOM      6  C   UNL     1       7.088   4.037  15.998  0.00  0.00    +0.000 A 
ATOM      7  C   UNL     1       7.050   4.354  17.346  0.00  0.00    +0.000 A 
ATOM      8  C   UNL     1       6.060   5.213  17.858  0.00  0.00    +0.000 A 
ATOM      9  C   UNL     1       6.195   5.597  19.309  0.00  0.00    +0.000 C 
ATOM     10  C   UNL     1       5.073   5.766  16.992  0.00  0.00    +0.000 A 
ATOM     11  C   UNL     1       5.121   5.423  15.624  0.00  0.00    +0.000 A 
ENDBRANCH   1  10
BRANCH   3  12
ATOM     12  C   UNL     1       2.112   5.758  18.232  0.00  0.00    +0.000 C 
BRANCH  12  13
ATOM     13  C   UNL     1       2.414   4.720  19.303  0.00  0.00    +0.000 A 
ATOM     14  C   UNL     1       2.184   4.883  20.671  0.00  0.00    +0.000 A 
ATOM     15  C   UNL     1       2.060   3.745  21.465  0.00  0.00    +0.000 A 
ATOM     16  N   UNL     1       2.201   2.482  21.010  0.00  0.00    +0.000 NA
ATOM     17  C   UNL     1       2.537   2.347  19.714  0.00  0.00    +0.000 A 
ATOM     18  C   UNL     1       2.677   3.416  18.845  0.00  0.00    +0.000 A 
ENDBRANCH  12  13
ENDBRANCH   3  12
BRANCH   3  19
ATOM     19  C   UNL     1       2.378   8.250  18.291  0.00  0.00    +0.000 C 
BRANCH  19  20
ATOM     20  C   UNL     1       1.381   8.372  19.468  0.00  0.00    +0.000 C 
ATOM     21  C   UNL     1       0.471   9.593  19.480  0.00  0.00    +0.000 C 
ATOM     22  C   UNL     1       0.012   9.676  20.934  0.00  0.00    +0.000 C 
ATOM     23  C   UNL     1       1.196   9.117  21.684  0.00  0.00    +0.000 C 
ATOM     24  O   UNL     1       1.415   9.225  22.874  0.00  0.00    +0.000 OA
ATOM     25  N   UNL     1       1.975   8.434  20.772  0.00  0.00    +0.000 N 
ATOM     26  H   UNL     1       2.831   7.943  21.030  0.00  0.00    +0.000 HD
ENDBRANCH  19  20
ENDBRANCH   3  19
TORSDOF 5
ENDMDL
