MODEL 1
REMARK VINA RESULT:      -7.5      0.000      0.000
REMARK  Name = 
REMARK  1 active torsions:
REMARK  status: ('A' for Active; 'I' for Inactive)
REMARK    1  A    between atoms: N_9  and  N_10
REMARK                            x       y       z     vdW  Elec       q    Type
REMARK                         _______ _______ _______ _____ _____    ______ ____
ROOT
ATOM      1  F   UNL     1       4.853   1.236  20.146  0.00  0.00    +0.000 F 
ATOM      2  C   UNL     1       4.326   2.442  19.900  0.00  0.00    +0.000 A 
ATOM      3  C   UNL     1       3.238   2.874  20.643  0.00  0.00    +0.000 A 
ATOM      4  C   UNL     1       2.691   4.131  20.385  0.00  0.00    +0.000 A 
ATOM      5  C   UNL     1       3.230   4.959  19.386  0.00  0.00    +0.000 A 
ATOM      6  C   UNL     1       4.324   4.502  18.630  0.00  0.00    +0.000 A 
ATOM      7  C   UNL     1       4.873   3.238  18.902  0.00  0.00    +0.000 A 
ATOM      8  C   UNL     1       4.924   5.316  17.523  0.00  0.00    +0.000 C 
ATOM      9  N   UNL     1       6.065   4.931  17.024  0.00  0.00    +0.000 NA
ATOM     10  C   UNL     1       4.123   6.508  17.026  0.00  0.00    +0.000 C 
ATOM     11  C   UNL     1       3.714   7.385  18.189  0.00  0.00    +0.000 C 
ATOM     12  S   UNL     1       2.447   6.550  19.176  0.00  0.00    +0.000 S 
ENDROOT
BRANCH   9  13
ATOM     13  N   UNL     1       6.616   5.659  16.018  0.00  0.00    +0.000 N 
ATOM     14  C   UNL     1       6.684   5.081  14.735  0.00  0.00    +0.000 A 
ATOM     15  C   UNL     1       5.721   4.179  14.290  0.00  0.00    +0.000 A 
ATOM     16  C   UNL     1       5.829   3.636  13.012  0.00  0.00    +0.000 A 
ATOM     17  C   UNL     1       6.888   4.020  12.203  0.00  0.00    +0.000 A 
ATOM     18  C   UNL     1       7.791   4.939  12.709  0.00  0.00    +0.000 A 
ATOM     19  N   UNL     1       7.712   5.475  13.950  0.00  0.00    +0.000 NA
ATOM     20  H   UNL     1       7.504   6.140  16.158  0.00  0.00    +0.000 HD
ENDBRANCH   9  13
TORSDOF 1
ENDMDL
MODEL 2
REMARK VINA RESULT:      -7.5      4.207      7.264
REMARK  Name = 
REMARK  1 active torsions:
REMARK  status: ('A' for Active; 'I' for Inactive)
REMARK    1  A    between atoms: N_9  and  N_10
REMARK                            x       y       z     vdW  Elec       q    Type
REMARK                         _______ _______ _______ _____ _____    ______ ____
ROOT
ATOM      1  F   UNL     1       5.189   6.323  15.869  0.00  0.00    +0.000 F 
ATOM      2  C   UNL     1       4.581   5.488  16.721  0.00  0.00    +0.000 A 
ATOM      3  C   UNL     1       4.733   4.119  16.559  0.00  0.00    +0.000 A 
ATOM      4  C   UNL     1       4.099   3.251  17.448  0.00  0.00    +0.000 A 
ATOM      5  C   UNL     1       3.312   3.748  18.501  0.00  0.00    +0.000 A 
ATOM      6  C   UNL     1       3.155   5.138  18.645  0.00  0.00    +0.000 A 
ATOM      7  C   UNL     1       3.804   6.004  17.750  0.00  0.00    +0.000 A 
ATOM      8  C   UNL     1       2.300   5.736  19.722  0.00  0.00    +0.000 C 
ATOM      9  N   UNL     1       2.383   7.020  19.932  0.00  0.00    +0.000 NA
ATOM     10  C   UNL     1       1.354   4.801  20.456  0.00  0.00    +0.000 C 
ATOM     11  C   UNL     1       2.105   3.590  20.965  0.00  0.00    +0.000 C 
ATOM     12  S   UNL     1       2.577   2.528  19.577  0.00  0.00    +0.000 S 
ENDROOT
BRANCH   9  13
ATOM     13  N   UNL     1       1.610   7.574  20.903  0.00  0.00    +0.000 N 
ATOM     14  C   UNL     1       1.073   8.856  20.679  0.00  0.00    +0.000 A 
ATOM     15  C   UNL     1       0.735   9.291  19.399  0.00  0.00    +0.000 A 
ATOM     16  C   UNL     1       0.204  10.567  19.227  0.00  0.00    +0.000 A 
ATOM     17  C   UNL     1       0.007  11.372  20.340  0.00  0.00    +0.000 A 
ATOM     18  C   UNL     1       0.345  10.858  21.580  0.00  0.00    +0.000 A 
ATOM     19  N   UNL     1       0.870   9.625  21.772  0.00  0.00    +0.000 NA
ATOM     20  H   UNL     1       1.919   7.563  21.875  0.00  0.00    +0.000 HD
ENDBRANCH   9  13
TORSDOF 1
ENDMDL
MODEL 3
REMARK VINA RESULT:      -7.4      3.807      6.490
REMARK  Name = 
REMARK  1 active torsions:
REMARK  status: ('A' for Active; 'I' for Inactive)
REMARK    1  A    between atoms: N_9  and  N_10
REMARK                            x       y       z     vdW  Elec       q    Type
REMARK                         _______ _______ _______ _____ _____    ______ ____
ROOT
ATOM      1  F   UNL     1       0.379   2.519  19.033  0.00  0.00    +0.000 F 
ATOM      2  C   UNL     1       1.526   2.961  18.503  0.00  0.00    +0.000 A 
ATOM      3  C   UNL     1       2.471   2.046  18.063  0.00  0.00    +0.000 A 
ATOM      4  C   UNL     1       3.665   2.509  17.511  0.00  0.00    +0.000 A 
ATOM      5  C   UNL     1       3.919   3.886  17.397  0.00  0.00    +0.000 A 
ATOM      6  C   UNL     1       2.959   4.803  17.860  0.00  0.00    +0.000 A 
ATOM      7  C   UNL     1       1.755   4.327  18.407  0.00  0.00    +0.000 A 
ATOM      8  C   UNL     1       3.180   6.285  17.805  0.00  0.00    +0.000 C 
ATOM      9  N   UNL     1       2.164   7.068  18.040  0.00  0.00    +0.000 NA
ATOM     10  C   UNL     1       4.594   6.766  17.531  0.00  0.00    +0.000 C 
ATOM     11  C   UNL     1       5.149   6.085  16.299  0.00  0.00    +0.000 C 
ATOM     12  S   UNL     1       5.476   4.340  16.652  0.00  0.00    +0.000 S 
ENDROOT
BRANCH   9  13
ATOM     13  N   UNL     1       2.353   8.413  17.997  0.00  0.00    +0.000 N 
ATOM     14  C   UNL     1       1.592   9.223  18.861  0.00  0.00    +0.000 A 
ATOM     15  C   UNL     1       1.187   8.770  20.115  0.00  0.00    +0.000 A 
ATOM     16  C   UNL     1       0.437   9.609  20.936  0.00  0.00    +0.000 A 
ATOM     17  C   UNL     1       0.126  10.886  20.493  0.00  0.00    +0.000 A 
ATOM     18  C   UNL     1       0.587  11.270  19.245  0.00  0.00    +0.000 A 
ATOM     19  N   UNL     1       1.309  10.471  18.426  0.00  0.00    +0.000 NA
ATOM     20  H   UNL     1       2.377   8.900  17.101  0.00  0.00    +0.000 HD
ENDBRANCH   9  13
TORSDOF 1
ENDMDL
MODEL 4
REMARK VINA RESULT:      -7.1      5.149      7.059
REMARK  Name = 
REMARK  1 active torsions:
REMARK  status: ('A' for Active; 'I' for Inactive)
REMARK    1  A    between atoms: N_9  and  N_10
REMARK                            x       y       z     vdW  Elec       q    Type
REMARK                         _______ _______ _______ _____ _____    ______ ____
ROOT
ATOM      1  F   UNL     1      -0.110   9.256  24.111  0.00  0.00    +0.000 F 
ATOM      2  C   UNL     1       0.103   9.648  22.848  0.00  0.00    +0.000 A 
ATOM      3  C   UNL     1      -0.338  10.898  22.440  0.00  0.00    +0.000 A 
ATOM      4  C   UNL     1      -0.116  11.304  21.124  0.00  0.00    +0.000 A 
ATOM      5  C   UNL     1       0.547  10.463  20.213  0.00  0.00    +0.000 A 
ATOM      6  C   UNL     1       0.975   9.192  20.637  0.00  0.00    +0.000 A 
ATOM      7  C   UNL     1       0.754   8.796  21.966  0.00  0.00    +0.000 A 
ATOM      8  C   UNL     1       1.653   8.230  19.709  0.00  0.00    +0.000 C 
ATOM      9  N   UNL     1       2.220   7.174  20.224  0.00  0.00    +0.000 NA
ATOM     10  C   UNL     1       1.583   8.532  18.222  0.00  0.00    +0.000 C 
ATOM     11  C   UNL     1       2.028   9.954  17.955  0.00  0.00    +0.000 C 
ATOM     12  S   UNL     1       0.783  11.116  18.569  0.00  0.00    +0.000 S 
ENDROOT
BRANCH   9  13
ATOM     13  N   UNL     1       2.834   6.292  19.392  0.00  0.00    +0.000 N 
ATOM     14  C   UNL     1       2.525   4.925  19.522  0.00  0.00    +0.000 A 
ATOM     15  C   UNL     1       1.264   4.499  19.932  0.00  0.00    +0.000 A 
ATOM     16  C   UNL     1       1.004   3.134  20.044  0.00  0.00    +0.000 A 
ATOM     17  C   UNL     1       2.006   2.228  19.726  0.00  0.00    +0.000 A 
ATOM     18  C   UNL     1       3.225   2.731  19.303  0.00  0.00    +0.000 A 
ATOM     19  N   UNL     1       3.504   4.051  19.195  0.00  0.00    +0.000 NA
ATOM     20  H   UNL     1       3.842   6.341  19.245  0.00  0.00    +0.000 HD
ENDBRANCH   9  13
TORSDOF 1
ENDMDL
MODEL 5
REMARK VINA RESULT:      -7.0      3.753      6.754
REMARK  Name = 
REMARK  1 active torsions:
REMARK  status: ('A' for Active; 'I' for Inactive)
REMARK    1  A    between atoms: N_9  and  N_10
REMARK                            x       y       z     vdW  Elec       q    Type
REMARK                         _______ _______ _______ _____ _____    ______ ____
ROOT
ATOM      1  F   UNL     1       7.433   6.641  16.632  0.00  0.00    +0.000 F 
ATOM      2  C   UNL     1       6.434   5.763  16.780  0.00  0.00    +0.000 A 
ATOM      3  C   UNL     1       6.492   4.547  16.115  0.00  0.00    +0.000 A 
ATOM      4  C   UNL     1       5.449   3.633  16.270  0.00  0.00    +0.000 A 
ATOM      5  C   UNL     1       4.347   3.931  17.091  0.00  0.00    +0.000 A 
ATOM      6  C   UNL     1       4.295   5.174  17.747  0.00  0.00    +0.000 A 
ATOM      7  C   UNL     1       5.353   6.084  17.591  0.00  0.00    +0.000 A 
ATOM      8  C   UNL     1       3.132   5.573  18.605  0.00  0.00    +0.000 C 
ATOM      9  N   UNL     1       3.256   6.632  19.355  0.00  0.00    +0.000 NA
ATOM     10  C   UNL     1       1.868   4.737  18.495  0.00  0.00    +0.000 C 
ATOM     11  C   UNL     1       2.195   3.269  18.666  0.00  0.00    +0.000 C 
ATOM     12  S   UNL     1       3.096   2.664  17.217  0.00  0.00    +0.000 S 
ENDROOT
BRANCH   9  13
ATOM     13  N   UNL     1       2.207   7.006  20.134  0.00  0.00    +0.000 N 
ATOM     14  C   UNL     1       1.641   8.279  19.928  0.00  0.00    +0.000 A 
ATOM     15  C   UNL     1       1.622   8.871  18.667  0.00  0.00    +0.000 A 
ATOM     16  C   UNL     1       1.049  10.131  18.511  0.00  0.00    +0.000 A 
ATOM     17  C   UNL     1       0.493  10.762  19.616  0.00  0.00    +0.000 A 
ATOM     18  C   UNL     1       0.531  10.097  20.829  0.00  0.00    +0.000 A 
ATOM     19  N   UNL     1       1.089   8.877  21.007  0.00  0.00    +0.000 NA
ATOM     20  H   UNL     1       2.245   6.875  21.145  0.00  0.00    +0.000 HD
ENDBRANCH   9  13
TORSDOF 1
ENDMDL
MODEL 6
REMARK VINA RESULT:      -6.9      4.547      7.547
REMARK  Name = 
REMARK  1 active torsions:
REMARK  status: ('A' for Active; 'I' for Inactive)
REMARK    1  A    between atoms: N_9  and  N_10
REMARK                            x       y       z     vdW  Elec       q    Type
REMARK                         _______ _______ _______ _____ _____    ______ ____
ROOT
ATOM      1  F   UNL     1       1.101   2.599  22.200  0.00  0.00    +0.000 F 
ATOM      2  C   UNL     1       1.788   3.113  21.172  0.00  0.00    +0.000 A 
ATOM      3  C   UNL     1       2.526   2.268  20.356  0.00  0.00    +0.000 A 
ATOM      4  C   UNL     1       3.241   2.806  19.286  0.00  0.00    +0.000 A 
ATOM      5  C   UNL     1       3.220   4.187  19.027  0.00  0.00    +0.000 A 
ATOM      6  C   UNL     1       2.479   5.033  19.871  0.00  0.00    +0.000 A 
ATOM      7  C   UNL     1       1.755   4.482  20.942  0.00  0.00    +0.000 A 
ATOM      8  C   UNL     1       2.443   6.519  19.678  0.00  0.00    +0.000 C 
ATOM      9  N   UNL     1       1.564   7.207  20.351  0.00  0.00    +0.000 NA
ATOM     10  C   UNL     1       3.479   7.123  18.744  0.00  0.00    +0.000 C 
ATOM     11  C   UNL     1       3.471   6.398  17.415  0.00  0.00    +0.000 C 
ATOM     12  S   UNL     1       4.161   4.737  17.614  0.00  0.00    +0.000 S 
ENDROOT
BRANCH   9  13
ATOM     13  N   UNL     1       1.524   8.555  20.187  0.00  0.00    +0.000 N 
ATOM     14  C   UNL     1       0.726   9.313  21.065  0.00  0.00    +0.000 A 
ATOM     15  C   UNL     1       0.520   8.919  22.385  0.00  0.00    +0.000 A 
ATOM     16  C   UNL     1      -0.277   9.702  23.217  0.00  0.00    +0.000 A 
ATOM     17  C   UNL     1      -0.834  10.870  22.715  0.00  0.00    +0.000 A 
ATOM     18  C   UNL     1      -0.562  11.204  21.400  0.00  0.00    +0.000 A 
ATOM     19  N   UNL     1       0.201  10.456  20.569  0.00  0.00    +0.000 NA
ATOM     20  H   UNL     1       1.383   8.956  19.260  0.00  0.00    +0.000 HD
ENDBRANCH   9  13
TORSDOF 1
ENDMDL
MODEL 7
REMARK VINA RESULT:      -6.8      3.793      6.571
REMARK  Name = 
REMARK  1 active torsions:
REMARK  status: ('A' for Active; 'I' for Inactive)
REMARK    1  A    between atoms: N_9  and  N_10
REMARK                            x       y       z     vdW  Elec       q    Type
REMARK                         _______ _______ _______ _____ _____    ______ ____
ROOT
ATOM      1  F   UNL     1       1.678   3.135  22.025  0.00  0.00    +0.000 F 
ATOM      2  C   UNL     1       2.498   3.425  21.007  0.00  0.00    +0.000 A 
ATOM      3  C   UNL     1       3.402   2.470  20.568  0.00  0.00    +0.000 A 
ATOM      4  C   UNL     1       4.255   2.774  19.507  0.00  0.00    +0.000 A 
ATOM      5  C   UNL     1       4.206   4.031  18.881  0.00  0.00    +0.000 A 
ATOM      6  C   UNL     1       3.295   4.995  19.346  0.00  0.00    +0.000 A 
ATOM      7  C   UNL     1       2.434   4.677  20.410  0.00  0.00    +0.000 A 
ATOM      8  C   UNL     1       3.215   6.369  18.752  0.00  0.00    +0.000 C 
ATOM      9  N   UNL     1       2.203   7.124  19.078  0.00  0.00    +0.000 NA
ATOM     10  C   UNL     1       4.358   6.802  17.849  0.00  0.00    +0.000 C 
ATOM     11  C   UNL     1       4.606   5.759  16.782  0.00  0.00    +0.000 C 
ATOM     12  S   UNL     1       5.337   4.278  17.523  0.00  0.00    +0.000 S 
ENDROOT
BRANCH   9  13
ATOM     13  N   UNL     1       2.123   8.373  18.548  0.00  0.00    +0.000 N 
ATOM     14  C   UNL     1       1.197   9.276  19.105  0.00  0.00    +0.000 A 
ATOM     15  C   UNL     1       0.862   9.235  20.457  0.00  0.00    +0.000 A 
ATOM     16  C   UNL     1      -0.057  10.151  20.963  0.00  0.00    +0.000 A 
ATOM     17  C   UNL     1      -0.606  11.098  20.110  0.00  0.00    +0.000 A 
ATOM     18  C   UNL     1      -0.203  11.089  18.785  0.00  0.00    +0.000 A 
ATOM     19  N   UNL     1       0.681  10.204  18.268  0.00  0.00    +0.000 NA
ATOM     20  H   UNL     1       2.069   8.500  17.538  0.00  0.00    +0.000 HD
ENDBRANCH   9  13
TORSDOF 1
ENDMDL
MODEL 8
REMARK VINA RESULT:      -6.8      4.071      6.812
REMARK  Name = 
REMARK  1 active torsions:
REMARK  status: ('A' for Active; 'I' for Inactive)
REMARK    1  A    between atoms: N_9  and  N_10
REMARK                            x       y       z     vdW  Elec       q    Type
REMARK                         _______ _______ _______ _____ _____    ______ ____
ROOT
ATOM      1  F   UNL     1       7.938   7.588  17.016  0.00  0.00    +0.000 F 
ATOM      2  C   UNL     1       7.011   6.711  17.420  0.00  0.00    +0.000 A 
ATOM      3  C   UNL     1       7.395   5.424  17.764  0.00  0.00    +0.000 A 
ATOM      4  C   UNL     1       6.427   4.512  18.185  0.00  0.00    +0.000 A 
ATOM      5  C   UNL     1       5.073   4.883  18.263  0.00  0.00    +0.000 A 
ATOM      6  C   UNL     1       4.696   6.187  17.896  0.00  0.00    +0.000 A 
ATOM      7  C   UNL     1       5.679   7.101  17.482  0.00  0.00    +0.000 A 
ATOM      8  C   UNL     1       3.267   6.639  17.917  0.00  0.00    +0.000 C 
ATOM      9  N   UNL     1       3.022   7.913  17.785  0.00  0.00    +0.000 NA
ATOM     10  C   UNL     1       2.201   5.564  18.039  0.00  0.00    +0.000 C 
ATOM     11  C   UNL     1       2.504   4.656  19.211  0.00  0.00    +0.000 C 
ATOM     12  S   UNL     1       3.945   3.625  18.837  0.00  0.00    +0.000 S 
ENDROOT
BRANCH   9  13
ATOM     13  N   UNL     1       1.730   8.334  17.799  0.00  0.00    +0.000 N 
ATOM     14  C   UNL     1       1.462   9.656  18.203  0.00  0.00    +0.000 A 
ATOM     15  C   UNL     1       2.368  10.687  17.966  0.00  0.00    +0.000 A 
ATOM     16  C   UNL     1       2.059  11.980  18.382  0.00  0.00    +0.000 A 
ATOM     17  C   UNL     1       0.843  12.215  19.008  0.00  0.00    +0.000 A 
ATOM     18  C   UNL     1      -0.014  11.142  19.185  0.00  0.00    +0.000 A 
ATOM     19  N   UNL     1       0.268   9.876  18.797  0.00  0.00    +0.000 NA
ATOM     20  H   UNL     1       1.006   7.756  18.226  0.00  0.00    +0.000 HD
ENDBRANCH   9  13
TORSDOF 1
ENDMDL
MODEL 9
REMARK VINA RESULT:      -6.5      5.715      7.827
REMARK  Name = 
REMARK  1 active torsions:
REMARK  status: ('A' for Active; 'I' for Inactive)
REMARK    1  A    between atoms: N_9  and  N_10
REMARK                            x       y       z     vdW  Elec       q    Type
REMARK                         _______ _______ _______ _____ _____    ______ ____
ROOT
ATOM      1  F   UNL     1      -1.541  10.856  16.841  0.00  0.00    +0.000 F 
ATOM      2  C   UNL     1      -1.348  10.903  18.165  0.00  0.00    +0.000 A 
ATOM      3  C   UNL     1      -2.024  11.850  18.919  0.00  0.00    +0.000 A 
ATOM      4  C   UNL     1      -1.821  11.897  20.298  0.00  0.00    +0.000 A 
ATOM      5  C   UNL     1      -0.942  10.998  20.927  0.00  0.00    +0.000 A 
ATOM      6  C   UNL     1      -0.251  10.053  20.149  0.00  0.00    +0.000 A 
ATOM      7  C   UNL     1      -0.469  10.008  18.762  0.00  0.00    +0.000 A 
ATOM      8  C   UNL     1       0.730   9.091  20.747  0.00  0.00    +0.000 C 
ATOM      9  N   UNL     1       1.156   8.105  20.008  0.00  0.00    +0.000 NA
ATOM     10  C   UNL     1       1.198   9.370  22.166  0.00  0.00    +0.000 C 
ATOM     11  C   UNL     1       0.010   9.577  23.078  0.00  0.00    +0.000 C 
ATOM     12  S   UNL     1      -0.793  11.155  22.699  0.00  0.00    +0.000 S 
ENDROOT
BRANCH   9  13
ATOM     13  N   UNL     1       2.048   7.229  20.539  0.00  0.00    +0.000 N 
ATOM     14  C   UNL     1       2.590   6.236  19.700  0.00  0.00    +0.000 A 
ATOM     15  C   UNL     1       2.792   6.462  18.340  0.00  0.00    +0.000 A 
ATOM     16  C   UNL     1       3.333   5.450  17.551  0.00  0.00    +0.000 A 
ATOM     17  C   UNL     1       3.676   4.243  18.142  0.00  0.00    +0.000 A 
ATOM     18  C   UNL     1       3.467   4.105  19.504  0.00  0.00    +0.000 A 
ATOM     19  N   UNL     1       2.936   5.070  20.290  0.00  0.00    +0.000 NA
ATOM     20  H   UNL     1       1.852   6.771  21.428  0.00  0.00    +0.000 HD
ENDBRANCH   9  13
TORSDOF 1
ENDMDL
