MODEL 1
REMARK VINA RESULT:      -8.4      0.000      0.000
REMARK  Name = 
REMARK  2 active torsions:
REMARK  status: ('A' for Active; 'I' for Inactive)
REMARK    1  A    between atoms: C_5  and  C_6
REMARK    2  A    between atoms: C_11  and  C_12
REMARK                            x       y       z     vdW  Elec       q    Type
REMARK                         _______ _______ _______ _____ _____    ______ ____
ROOT
ATOM      1  C   UNL     1       2.668   6.215  18.890  0.00  0.00    +0.000 C 
ATOM      2  O   UNL     1       1.876   5.388  19.348  0.00  0.00    +0.000 OA
ATOM      3  N   UNL     1       3.788   5.831  18.161  0.00  0.00    +0.000 N 
ATOM      4  C   UNL     1       3.863   4.469  17.638  0.00  0.00    +0.000 C 
ATOM      5  C   UNL     1       5.200   3.816  17.975  0.00  0.00    +0.000 C 
ATOM      6  C   UNL     1       6.399   4.684  17.571  0.00  0.00    +0.000 C 
ATOM      7  C   UNL     1       6.231   6.116  18.100  0.00  0.00    +0.000 C 
ATOM      8  C   UNL     1       4.874   6.718  17.746  0.00  0.00    +0.000 C 
ENDROOT
BRANCH   6   9
ATOM      9  C   UNL     1       6.624   4.664  16.093  0.00  0.00    +0.000 A 
ATOM     10  N   UNL     1       7.449   5.396  15.364  0.00  0.00    +0.000 NA
ATOM     11  C   UNL     1       7.255   4.932  14.088  0.00  0.00    +0.000 A 
ATOM     12  C   UNL     1       7.844   5.301  12.874  0.00  0.00    +0.000 A 
ATOM     13  C   UNL     1       7.435   4.631  11.710  0.00  0.00    +0.000 A 
ATOM     14  C   UNL     1       6.466   3.619  11.761  0.00  0.00    +0.000 A 
ATOM     15  C   UNL     1       5.870   3.241  12.969  0.00  0.00    +0.000 A 
ATOM     16  C   UNL     1       6.301   3.928  14.096  0.00  0.00    +0.000 A 
ATOM     17  O   UNL     1       5.888   3.751  15.383  0.00  0.00    +0.000 OA
ENDBRANCH   6   9
BRANCH   1  22
ATOM     18  O   UNL     1       0.419  11.297  19.549  0.00  0.00    +0.000 OA
ATOM     19  C   UNL     1       0.978  10.219  19.377  0.00  0.00    +0.000 C 
ATOM     20  C   UNL     1       1.585   9.828  18.048  0.00  0.00    +0.000 C 
ATOM     21  C   UNL     1       1.747   8.328  17.868  0.00  0.00    +0.000 C 
ATOM     22  C   UNL     1       2.429   7.710  19.093  0.00  0.00    +0.000 C 
ATOM     23  C   UNL     1       1.511   7.962  20.289  0.00  0.00    +0.000 C 
ATOM     24  N   UNL     1       1.179   9.368  20.431  0.00  0.00    +0.000 N 
ATOM     25  H   UNL     1       0.717   9.669  21.282  0.00  0.00    +0.000 HD
ENDBRANCH   1  22
TORSDOF 2
ENDMDL
MODEL 2
REMARK VINA RESULT:      -8.4      0.718      1.232
REMARK  Name = 
REMARK  2 active torsions:
REMARK  status: ('A' for Active; 'I' for Inactive)
REMARK    1  A    between atoms: C_5  and  C_6
REMARK    2  A    between atoms: C_11  and  C_12
REMARK                            x       y       z     vdW  Elec       q    Type
REMARK                         _______ _______ _______ _____ _____    ______ ____
ROOT
ATOM      1  C   UNL     1       2.866   6.267  19.222  0.00  0.00    +0.000 C 
ATOM      2  O   UNL     1       2.229   5.473  19.915  0.00  0.00    +0.000 OA
ATOM      3  N   UNL     1       3.920   5.854  18.414  0.00  0.00    +0.000 N 
ATOM      4  C   UNL     1       4.070   4.431  18.115  0.00  0.00    +0.000 C 
ATOM      5  C   UNL     1       5.500   3.958  18.362  0.00  0.00    +0.000 C 
ATOM      6  C   UNL     1       6.541   4.837  17.657  0.00  0.00    +0.000 C 
ATOM      7  C   UNL     1       6.293   6.321  17.963  0.00  0.00    +0.000 C 
ATOM      8  C   UNL     1       4.847   6.739  17.711  0.00  0.00    +0.000 C 
ENDROOT
BRANCH   6   9
ATOM      9  C   UNL     1       6.581   4.576  16.184  0.00  0.00    +0.000 A 
ATOM     10  N   UNL     1       5.887   3.705  15.473  0.00  0.00    +0.000 NA
ATOM     11  C   UNL     1       6.309   3.925  14.187  0.00  0.00    +0.000 A 
ATOM     12  C   UNL     1       5.938   3.323  12.979  0.00  0.00    +0.000 A 
ATOM     13  C   UNL     1       6.555   3.773  11.800  0.00  0.00    +0.000 A 
ATOM     14  C   UNL     1       7.514   4.795  11.830  0.00  0.00    +0.000 A 
ATOM     15  C   UNL     1       7.893   5.405  13.031  0.00  0.00    +0.000 A 
ATOM     16  C   UNL     1       7.261   4.932  14.174  0.00  0.00    +0.000 A 
ATOM     17  O   UNL     1       7.442   5.355  15.456  0.00  0.00    +0.000 OA
ENDBRANCH   6   9
BRANCH   1  22
ATOM     18  O   UNL     1       0.192  11.183  19.110  0.00  0.00    +0.000 OA
ATOM     19  C   UNL     1       0.842  10.142  19.104  0.00  0.00    +0.000 C 
ATOM     20  C   UNL     1       1.529   9.628  17.859  0.00  0.00    +0.000 C 
ATOM     21  C   UNL     1       1.818   8.137  17.893  0.00  0.00    +0.000 C 
ATOM     22  C   UNL     1       2.500   7.751  19.209  0.00  0.00    +0.000 C 
ATOM     23  C   UNL     1       1.519   8.084  20.334  0.00  0.00    +0.000 C 
ATOM     24  N   UNL     1       1.070   9.463  20.271  0.00  0.00    +0.000 N 
ATOM     25  H   UNL     1       0.554   9.836  21.059  0.00  0.00    +0.000 HD
ENDBRANCH   1  22
TORSDOF 2
ENDMDL
MODEL 3
REMARK VINA RESULT:      -7.7      3.853      6.060
REMARK  Name = 
REMARK  2 active torsions:
REMARK  status: ('A' for Active; 'I' for Inactive)
REMARK    1  A    between atoms: C_5  and  C_6
REMARK    2  A    between atoms: C_11  and  C_12
REMARK                            x       y       z     vdW  Elec       q    Type
REMARK                         _______ _______ _______ _____ _____    ______ ____
ROOT
ATOM      1  C   UNL     1       3.772   4.709  18.099  0.00  0.00    +0.000 C 
ATOM      2  O   UNL     1       3.214   4.351  17.061  0.00  0.00    +0.000 OA
ATOM      3  N   UNL     1       4.956   5.439  18.081  0.00  0.00    +0.000 N 
ATOM      4  C   UNL     1       5.376   6.080  16.837  0.00  0.00    +0.000 C 
ATOM      5  C   UNL     1       6.833   5.766  16.513  0.00  0.00    +0.000 C 
ATOM      6  C   UNL     1       7.775   6.056  17.689  0.00  0.00    +0.000 C 
ATOM      7  C   UNL     1       7.248   5.406  18.976  0.00  0.00    +0.000 C 
ATOM      8  C   UNL     1       5.784   5.742  19.247  0.00  0.00    +0.000 C 
ENDROOT
BRANCH   6   9
ATOM      9  C   UNL     1       8.004   7.524  17.866  0.00  0.00    +0.000 A 
ATOM     10  N   UNL     1       7.552   8.532  17.142  0.00  0.00    +0.000 NA
ATOM     11  C   UNL     1       8.051   9.640  17.778  0.00  0.00    +0.000 A 
ATOM     12  C   UNL     1       7.915  11.004  17.497  0.00  0.00    +0.000 A 
ATOM     13  C   UNL     1       8.553  11.920  18.348  0.00  0.00    +0.000 A 
ATOM     14  C   UNL     1       9.305  11.484  19.448  0.00  0.00    +0.000 A 
ATOM     15  C   UNL     1       9.448  10.123  19.739  0.00  0.00    +0.000 A 
ATOM     16  C   UNL     1       8.803   9.249  18.874  0.00  0.00    +0.000 A 
ATOM     17  O   UNL     1       8.779   7.888  18.937  0.00  0.00    +0.000 OA
ENDBRANCH   6   9
BRANCH   1  22
ATOM     18  O   UNL     1       1.131   2.304  22.408  0.00  0.00    +0.000 OA
ATOM     19  C   UNL     1       1.696   2.902  21.498  0.00  0.00    +0.000 C 
ATOM     20  C   UNL     1       1.032   4.029  20.739  0.00  0.00    +0.000 C 
ATOM     21  C   UNL     1       1.635   4.281  19.367  0.00  0.00    +0.000 C 
ATOM     22  C   UNL     1       3.162   4.379  19.460  0.00  0.00    +0.000 C 
ATOM     23  C   UNL     1       3.665   3.031  19.976  0.00  0.00    +0.000 C 
ATOM     24  N   UNL     1       3.011   2.645  21.213  0.00  0.00    +0.000 N 
ATOM     25  H   UNL     1       3.385   1.857  21.728  0.00  0.00    +0.000 HD
ENDBRANCH   1  22
TORSDOF 2
ENDMDL
MODEL 4
REMARK VINA RESULT:      -7.4      3.695      6.094
REMARK  Name = 
REMARK  2 active torsions:
REMARK  status: ('A' for Active; 'I' for Inactive)
REMARK    1  A    between atoms: C_5  and  C_6
REMARK    2  A    between atoms: C_11  and  C_12
REMARK                            x       y       z     vdW  Elec       q    Type
REMARK                         _______ _______ _______ _____ _____    ______ ____
ROOT
ATOM      1  C   UNL     1       3.527   5.029  18.230  0.00  0.00    +0.000 C 
ATOM      2  O   UNL     1       2.656   5.114  17.363  0.00  0.00    +0.000 OA
ATOM      3  N   UNL     1       4.751   5.678  18.105  0.00  0.00    +0.000 N 
ATOM      4  C   UNL     1       4.894   6.739  17.110  0.00  0.00    +0.000 C 
ATOM      5  C   UNL     1       6.142   6.536  16.256  0.00  0.00    +0.000 C 
ATOM      6  C   UNL     1       7.406   6.325  17.100  0.00  0.00    +0.000 C 
ATOM      7  C   UNL     1       7.172   5.243  18.162  0.00  0.00    +0.000 C 
ATOM      8  C   UNL     1       5.906   5.486  18.980  0.00  0.00    +0.000 C 
ENDROOT
BRANCH   6   9
ATOM      9  C   UNL     1       7.884   7.604  17.710  0.00  0.00    +0.000 A 
ATOM     10  N   UNL     1       8.581   7.792  18.817  0.00  0.00    +0.000 NA
ATOM     11  C   UNL     1       8.755   9.150  18.867  0.00  0.00    +0.000 A 
ATOM     12  C   UNL     1       9.419   9.962  19.794  0.00  0.00    +0.000 A 
ATOM     13  C   UNL     1       9.429  11.348  19.571  0.00  0.00    +0.000 A 
ATOM     14  C   UNL     1       8.796  11.905  18.452  0.00  0.00    +0.000 A 
ATOM     15  C   UNL     1       8.129  11.105  17.517  0.00  0.00    +0.000 A 
ATOM     16  C   UNL     1       8.141   9.740  17.774  0.00  0.00    +0.000 A 
ATOM     17  O   UNL     1       7.577   8.751  17.025  0.00  0.00    +0.000 OA
ENDBRANCH   6   9
BRANCH   1  22
ATOM     18  O   UNL     1       1.257   2.156  22.462  0.00  0.00    +0.000 OA
ATOM     19  C   UNL     1       1.816   2.803  21.583  0.00  0.00    +0.000 C 
ATOM     20  C   UNL     1       2.277   4.227  21.798  0.00  0.00    +0.000 C 
ATOM     21  C   UNL     1       2.451   5.014  20.510  0.00  0.00    +0.000 C 
ATOM     22  C   UNL     1       3.281   4.216  19.499  0.00  0.00    +0.000 C 
ATOM     23  C   UNL     1       2.498   2.939  19.190  0.00  0.00    +0.000 C 
ATOM     24  N   UNL     1       2.154   2.208  20.396  0.00  0.00    +0.000 N 
ATOM     25  H   UNL     1       1.785   1.269  20.300  0.00  0.00    +0.000 HD
ENDBRANCH   1  22
TORSDOF 2
ENDMDL
MODEL 5
REMARK VINA RESULT:      -7.3      2.660      8.596
REMARK  Name = 
REMARK  2 active torsions:
REMARK  status: ('A' for Active; 'I' for Inactive)
REMARK    1  A    between atoms: C_5  and  C_6
REMARK    2  A    between atoms: C_11  and  C_12
REMARK                            x       y       z     vdW  Elec       q    Type
REMARK                         _______ _______ _______ _____ _____    ______ ____
ROOT
ATOM      1  C   UNL     1       2.301   6.578  19.447  0.00  0.00    +0.000 C 
ATOM      2  O   UNL     1       2.067   5.849  20.412  0.00  0.00    +0.000 OA
ATOM      3  N   UNL     1       1.946   7.922  19.440  0.00  0.00    +0.000 N 
ATOM      4  C   UNL     1       1.598   8.571  20.702  0.00  0.00    +0.000 C 
ATOM      5  C   UNL     1       0.285   9.342  20.587  0.00  0.00    +0.000 C 
ATOM      6  C   UNL     1       0.267  10.301  19.389  0.00  0.00    +0.000 C 
ATOM      7  C   UNL     1       0.699   9.574  18.109  0.00  0.00    +0.000 C 
ATOM      8  C   UNL     1       2.010   8.810  18.280  0.00  0.00    +0.000 C 
ENDROOT
BRANCH   6   9
ATOM      9  C   UNL     1       1.100  11.518  19.642  0.00  0.00    +0.000 A 
ATOM     10  N   UNL     1       1.376  12.117  20.786  0.00  0.00    +0.000 NA
ATOM     11  C   UNL     1       2.197  13.153  20.422  0.00  0.00    +0.000 A 
ATOM     12  C   UNL     1       2.829  14.141  21.185  0.00  0.00    +0.000 A 
ATOM     13  C   UNL     1       3.627  15.084  20.516  0.00  0.00    +0.000 A 
ATOM     14  C   UNL     1       3.788  15.037  19.125  0.00  0.00    +0.000 A 
ATOM     15  C   UNL     1       3.162  14.054  18.350  0.00  0.00    +0.000 A 
ATOM     16  C   UNL     1       2.382  13.142  19.049  0.00  0.00    +0.000 A 
ATOM     17  O   UNL     1       1.677  12.093  18.539  0.00  0.00    +0.000 OA
ENDBRANCH   6   9
BRANCH   1  22
ATOM     18  O   UNL     1       5.548   3.700  15.912  0.00  0.00    +0.000 OA
ATOM     19  C   UNL     1       4.837   4.391  16.634  0.00  0.00    +0.000 C 
ATOM     20  C   UNL     1       5.224   5.795  17.041  0.00  0.00    +0.000 C 
ATOM     21  C   UNL     1       4.529   6.278  18.304  0.00  0.00    +0.000 C 
ATOM     22  C   UNL     1       3.020   6.026  18.217  0.00  0.00    +0.000 C 
ATOM     23  C   UNL     1       2.826   4.514  18.100  0.00  0.00    +0.000 C 
ATOM     24  N   UNL     1       3.594   3.952  17.004  0.00  0.00    +0.000 N 
ATOM     25  H   UNL     1       3.411   2.993  16.731  0.00  0.00    +0.000 HD
ENDBRANCH   1  22
TORSDOF 2
ENDMDL
MODEL 6
REMARK VINA RESULT:      -7.2      2.591      8.594
REMARK  Name = 
REMARK  2 active torsions:
REMARK  status: ('A' for Active; 'I' for Inactive)
REMARK    1  A    between atoms: C_5  and  C_6
REMARK    2  A    between atoms: C_11  and  C_12
REMARK                            x       y       z     vdW  Elec       q    Type
REMARK                         _______ _______ _______ _____ _____    ______ ____
ROOT
ATOM      1  C   UNL     1       2.532   6.449  19.204  0.00  0.00    +0.000 C 
ATOM      2  O   UNL     1       2.364   5.769  20.218  0.00  0.00    +0.000 OA
ATOM      3  N   UNL     1       2.145   7.783  19.142  0.00  0.00    +0.000 N 
ATOM      4  C   UNL     1       1.843   8.492  20.384  0.00  0.00    +0.000 C 
ATOM      5  C   UNL     1       0.509   9.227  20.295  0.00  0.00    +0.000 C 
ATOM      6  C   UNL     1       0.408  10.118  19.049  0.00  0.00    +0.000 C 
ATOM      7  C   UNL     1       0.794   9.331  17.789  0.00  0.00    +0.000 C 
ATOM      8  C   UNL     1       2.129   8.607  17.935  0.00  0.00    +0.000 C 
ENDROOT
BRANCH   6   9
ATOM      9  C   UNL     1       1.222  11.365  19.193  0.00  0.00    +0.000 A 
ATOM     10  N   UNL     1       2.004  11.958  18.308  0.00  0.00    +0.000 NA
ATOM     11  C   UNL     1       2.467  13.064  18.972  0.00  0.00    +0.000 A 
ATOM     12  C   UNL     1       3.325  14.092  18.565  0.00  0.00    +0.000 A 
ATOM     13  C   UNL     1       3.618  15.111  19.485  0.00  0.00    +0.000 A 
ATOM     14  C   UNL     1       3.068  15.103  20.774  0.00  0.00    +0.000 A 
ATOM     15  C   UNL     1       2.208  14.081  21.193  0.00  0.00    +0.000 A 
ATOM     16  C   UNL     1       1.944  13.092  20.255  0.00  0.00    +0.000 A 
ATOM     17  O   UNL     1       1.142  12.000  20.405  0.00  0.00    +0.000 OA
ENDBRANCH   6   9
BRANCH   1  22
ATOM     18  O   UNL     1       5.812   3.606  15.671  0.00  0.00    +0.000 OA
ATOM     19  C   UNL     1       5.080   4.281  16.386  0.00  0.00    +0.000 C 
ATOM     20  C   UNL     1       5.292   5.765  16.586  0.00  0.00    +0.000 C 
ATOM     21  C   UNL     1       4.659   6.307  17.856  0.00  0.00    +0.000 C 
ATOM     22  C   UNL     1       3.202   5.845  17.970  0.00  0.00    +0.000 C 
ATOM     23  C   UNL     1       3.224   4.319  18.048  0.00  0.00    +0.000 C 
ATOM     24  N   UNL     1       3.957   3.729  16.942  0.00  0.00    +0.000 N 
ATOM     25  H   UNL     1       3.892   2.728  16.803  0.00  0.00    +0.000 HD
ENDBRANCH   1  22
TORSDOF 2
ENDMDL
MODEL 7
REMARK VINA RESULT:      -7.1      1.827      8.166
REMARK  Name = 
REMARK  2 active torsions:
REMARK  status: ('A' for Active; 'I' for Inactive)
REMARK    1  A    between atoms: C_5  and  C_6
REMARK    2  A    between atoms: C_11  and  C_12
REMARK                            x       y       z     vdW  Elec       q    Type
REMARK                         _______ _______ _______ _____ _____    ______ ____
ROOT
ATOM      1  C   UNL     1       6.078   4.737  17.261  0.00  0.00    +0.000 C 
ATOM      2  O   UNL     1       7.037   4.303  17.901  0.00  0.00    +0.000 OA
ATOM      3  N   UNL     1       4.935   5.219  17.890  0.00  0.00    +0.000 N 
ATOM      4  C   UNL     1       4.987   5.530  19.317  0.00  0.00    +0.000 C 
ATOM      5  C   UNL     1       3.819   4.897  20.068  0.00  0.00    +0.000 C 
ATOM      6  C   UNL     1       2.462   5.220  19.428  0.00  0.00    +0.000 C 
ATOM      7  C   UNL     1       2.492   4.928  17.921  0.00  0.00    +0.000 C 
ATOM      8  C   UNL     1       3.685   5.573  17.221  0.00  0.00    +0.000 C 
ENDROOT
BRANCH   6   9
ATOM      9  C   UNL     1       2.038   6.627  19.709  0.00  0.00    +0.000 A 
ATOM     10  N   UNL     1       2.047   7.677  18.908  0.00  0.00    +0.000 NA
ATOM     11  C   UNL     1       1.528   8.682  19.682  0.00  0.00    +0.000 A 
ATOM     12  C   UNL     1       1.275  10.029  19.398  0.00  0.00    +0.000 A 
ATOM     13  C   UNL     1       0.724  10.827  20.413  0.00  0.00    +0.000 A 
ATOM     14  C   UNL     1       0.435  10.293  21.676  0.00  0.00    +0.000 A 
ATOM     15  C   UNL     1       0.683   8.948  21.974  0.00  0.00    +0.000 A 
ATOM     16  C   UNL     1       1.227   8.193  20.943  0.00  0.00    +0.000 A 
ATOM     17  O   UNL     1       1.555   6.870  20.969  0.00  0.00    +0.000 OA
ENDBRANCH   6   9
BRANCH   1  22
ATOM     18  O   UNL     1       7.143   3.806  11.846  0.00  0.00    +0.000 OA
ATOM     19  C   UNL     1       6.893   4.086  13.014  0.00  0.00    +0.000 C 
ATOM     20  C   UNL     1       7.546   5.251  13.723  0.00  0.00    +0.000 C 
ATOM     21  C   UNL     1       7.530   5.132  15.237  0.00  0.00    +0.000 C 
ATOM     22  C   UNL     1       6.123   4.783  15.735  0.00  0.00    +0.000 C 
ATOM     23  C   UNL     1       5.761   3.425  15.134  0.00  0.00    +0.000 C 
ATOM     24  N   UNL     1       5.908   3.415  13.690  0.00  0.00    +0.000 N 
ATOM     25  H   UNL     1       5.537   2.624  13.175  0.00  0.00    +0.000 HD
ENDBRANCH   1  22
TORSDOF 2
ENDMDL
MODEL 8
REMARK VINA RESULT:      -7.0      1.065      1.709
REMARK  Name = 
REMARK  2 active torsions:
REMARK  status: ('A' for Active; 'I' for Inactive)
REMARK    1  A    between atoms: C_5  and  C_6
REMARK    2  A    between atoms: C_11  and  C_12
REMARK                            x       y       z     vdW  Elec       q    Type
REMARK                         _______ _______ _______ _____ _____    ______ ____
ROOT
ATOM      1  C   UNL     1       2.957   5.918  19.435  0.00  0.00    +0.000 C 
ATOM      2  O   UNL     1       2.822   5.136  20.377  0.00  0.00    +0.000 OA
ATOM      3  N   UNL     1       3.973   5.767  18.497  0.00  0.00    +0.000 N 
ATOM      4  C   UNL     1       4.685   4.493  18.420  0.00  0.00    +0.000 C 
ATOM      5  C   UNL     1       6.197   4.700  18.422  0.00  0.00    +0.000 C 
ATOM      6  C   UNL     1       6.655   5.713  17.364  0.00  0.00    +0.000 C 
ATOM      7  C   UNL     1       5.830   7.004  17.459  0.00  0.00    +0.000 C 
ATOM      8  C   UNL     1       4.326   6.741  17.465  0.00  0.00    +0.000 C 
ENDROOT
BRANCH   6   9
ATOM      9  C   UNL     1       6.615   5.132  15.987  0.00  0.00    +0.000 A 
ATOM     10  N   UNL     1       5.831   4.185  15.503  0.00  0.00    +0.000 NA
ATOM     11  C   UNL     1       6.215   4.081  14.191  0.00  0.00    +0.000 A 
ATOM     12  C   UNL     1       5.752   3.261  13.156  0.00  0.00    +0.000 A 
ATOM     13  C   UNL     1       6.352   3.387  11.894  0.00  0.00    +0.000 A 
ATOM     14  C   UNL     1       7.385   4.309  11.673  0.00  0.00    +0.000 A 
ATOM     15  C   UNL     1       7.856   5.136  12.699  0.00  0.00    +0.000 A 
ATOM     16  C   UNL     1       7.237   4.979  13.932  0.00  0.00    +0.000 A 
ATOM     17  O   UNL     1       7.502   5.658  15.084  0.00  0.00    +0.000 OA
ENDBRANCH   6   9
BRANCH   1  22
ATOM     18  O   UNL     1       0.560  10.963  19.079  0.00  0.00    +0.000 OA
ATOM     19  C   UNL     1       1.014   9.827  19.173  0.00  0.00    +0.000 C 
ATOM     20  C   UNL     1       0.770   8.959  20.387  0.00  0.00    +0.000 C 
ATOM     21  C   UNL     1       1.796   7.852  20.562  0.00  0.00    +0.000 C 
ATOM     22  C   UNL     1       1.987   7.083  19.250  0.00  0.00    +0.000 C 
ATOM     23  C   UNL     1       2.517   8.082  18.221  0.00  0.00    +0.000 C 
ATOM     24  N   UNL     1       1.665   9.253  18.114  0.00  0.00    +0.000 N 
ATOM     25  H   UNL     1       1.828   9.896  17.348  0.00  0.00    +0.000 HD
ENDBRANCH   1  22
TORSDOF 2
ENDMDL
MODEL 9
REMARK VINA RESULT:      -7.0      4.017      8.704
REMARK  Name = 
REMARK  2 active torsions:
REMARK  status: ('A' for Active; 'I' for Inactive)
REMARK    1  A    between atoms: C_5  and  C_6
REMARK    2  A    between atoms: C_11  and  C_12
REMARK                            x       y       z     vdW  Elec       q    Type
REMARK                         _______ _______ _______ _____ _____    ______ ____
ROOT
ATOM      1  C   UNL     1       3.184   7.114  18.162  0.00  0.00    +0.000 C 
ATOM      2  O   UNL     1       4.149   7.375  17.441  0.00  0.00    +0.000 OA
ATOM      3  N   UNL     1       2.203   8.058  18.444  0.00  0.00    +0.000 N 
ATOM      4  C   UNL     1       2.121   9.264  17.623  0.00  0.00    +0.000 C 
ATOM      5  C   UNL     1       2.048  10.521  18.485  0.00  0.00    +0.000 C 
ATOM      6  C   UNL     1       0.948  10.441  19.552  0.00  0.00    +0.000 C 
ATOM      7  C   UNL     1       1.052   9.127  20.338  0.00  0.00    +0.000 C 
ATOM      8  C   UNL     1       1.135   7.903  19.429  0.00  0.00    +0.000 C 
ENDROOT
BRANCH   6   9
ATOM      9  C   UNL     1      -0.413  10.622  18.958  0.00  0.00    +0.000 A 
ATOM     10  N   UNL     1      -1.451  11.285  19.437  0.00  0.00    +0.000 NA
ATOM     11  C   UNL     1      -2.408  11.138  18.467  0.00  0.00    +0.000 A 
ATOM     12  C   UNL     1      -3.721  11.617  18.385  0.00  0.00    +0.000 A 
ATOM     13  C   UNL     1      -4.471  11.297  17.243  0.00  0.00    +0.000 A 
ATOM     14  C   UNL     1      -3.924  10.521  16.212  0.00  0.00    +0.000 A 
ATOM     15  C   UNL     1      -2.613  10.036  16.281  0.00  0.00    +0.000 A 
ATOM     16  C   UNL     1      -1.905  10.374  17.426  0.00  0.00    +0.000 A 
ATOM     17  O   UNL     1      -0.621  10.036  17.736  0.00  0.00    +0.000 OA
ENDBRANCH   6   9
BRANCH   1  22
ATOM     18  O   UNL     1       3.319   1.613  19.185  0.00  0.00    +0.000 OA
ATOM     19  C   UNL     1       3.223   2.823  19.005  0.00  0.00    +0.000 C 
ATOM     20  C   UNL     1       1.958   3.462  18.478  0.00  0.00    +0.000 C 
ATOM     21  C   UNL     1       2.181   4.823  17.839  0.00  0.00    +0.000 C 
ATOM     22  C   UNL     1       3.019   5.717  18.759  0.00  0.00    +0.000 C 
ATOM     23  C   UNL     1       4.374   5.032  18.934  0.00  0.00    +0.000 C 
ATOM     24  N   UNL     1       4.233   3.662  19.394  0.00  0.00    +0.000 N 
ATOM     25  H   UNL     1       5.065   3.171  19.703  0.00  0.00    +0.000 HD
ENDBRANCH   1  22
TORSDOF 2
ENDMDL
