MODEL 1
REMARK VINA RESULT:      -7.3      0.000      0.000
REMARK  Name = 
REMARK  3 active torsions:
REMARK  status: ('A' for Active; 'I' for Inactive)
REMARK    1  A    between atoms: C_1  and  N_2
REMARK    2  A    between atoms: N_2  and  C_3
REMARK    3  A    between atoms: C_6  and  C_7
REMARK                            x       y       z     vdW  Elec       q    Type
REMARK                         _______ _______ _______ _____ _____    ______ ____
ROOT
ATOM      1  C   UNL     1       4.693   3.406  18.531  0.00  0.00    +0.000 C 
ATOM      2  C   UNL     1       3.154   3.522  18.383  0.00  0.00    +0.000 C 
ATOM      3  C   UNL     1       2.792   4.379  17.179  0.00  0.00    +0.000 C 
ATOM      4  C   UNL     1       3.335   5.815  17.357  0.00  0.00    +0.000 C 
ATOM      5  C   UNL     1       4.830   5.799  17.584  0.00  0.00    +0.000 A 
ATOM      6  C   UNL     1       5.584   6.921  17.206  0.00  0.00    +0.000 A 
ATOM      7  C   UNL     1       6.965   6.937  17.390  0.00  0.00    +0.000 A 
ATOM      8  C   UNL     1       7.606   5.836  17.960  0.00  0.00    +0.000 A 
ATOM      9  C   UNL     1       6.868   4.711  18.345  0.00  0.00    +0.000 A 
ATOM     10  C   UNL     1       5.472   4.675  18.176  0.00  0.00    +0.000 A 
ENDROOT
BRANCH   4  11
ATOM     11  C   UNL     1       2.657   6.611  18.474  0.00  0.00    +0.000 A 
ATOM     12  C   UNL     1       2.427   6.039  19.743  0.00  0.00    +0.000 A 
ATOM     13  C   UNL     1       1.837   6.770  20.773  0.00  0.00    +0.000 A 
ATOM     14  C   UNL     1       1.463   8.091  20.556  0.00  0.00    +0.000 A 
ATOM     15 BR   UNL     1       0.671   9.091  21.979  0.00  0.00    +0.000 Br
ATOM     16  C   UNL     1       1.676   8.681  19.306  0.00  0.00    +0.000 A 
ATOM     17  C   UNL     1       2.273   7.949  18.270  0.00  0.00    +0.000 A 
ENDBRANCH   4  11
BRANCH   1  19
ATOM     18  C   UNL     1       4.003   2.270  20.662  0.00  0.00    +0.000 C 
ATOM     19  N   UNL     1       5.091   2.775  19.814  0.00  0.00    +0.000 NA
ATOM     20  H   UNL     1       5.727   1.971  19.602  0.00  0.00    +0.000 HD
ENDBRANCH   1  19
TORSDOF 2
ENDMDL
MODEL 2
REMARK VINA RESULT:      -7.3      0.057      1.110
REMARK  Name = 
REMARK  3 active torsions:
REMARK  status: ('A' for Active; 'I' for Inactive)
REMARK    1  A    between atoms: C_1  and  N_2
REMARK    2  A    between atoms: N_2  and  C_3
REMARK    3  A    between atoms: C_6  and  C_7
REMARK                            x       y       z     vdW  Elec       q    Type
REMARK                         _______ _______ _______ _____ _____    ______ ____
ROOT
ATOM      1  C   UNL     1       4.681   3.418  18.549  0.00  0.00    +0.000 C 
ATOM      2  C   UNL     1       3.140   3.543  18.437  0.00  0.00    +0.000 C 
ATOM      3  C   UNL     1       2.755   4.399  17.239  0.00  0.00    +0.000 C 
ATOM      4  C   UNL     1       3.310   5.832  17.401  0.00  0.00    +0.000 C 
ATOM      5  C   UNL     1       4.810   5.807  17.591  0.00  0.00    +0.000 A 
ATOM      6  C   UNL     1       5.562   6.924  17.193  0.00  0.00    +0.000 A 
ATOM      7  C   UNL     1       6.946   6.931  17.343  0.00  0.00    +0.000 A 
ATOM      8  C   UNL     1       7.594   5.828  17.901  0.00  0.00    +0.000 A 
ATOM      9  C   UNL     1       6.859   4.709  18.307  0.00  0.00    +0.000 A 
ATOM     10  C   UNL     1       5.460   4.682  18.171  0.00  0.00    +0.000 A 
ENDROOT
BRANCH   4  11
ATOM     11  C   UNL     1       2.664   6.635  18.532  0.00  0.00    +0.000 A 
ATOM     12  C   UNL     1       2.277   7.978  18.345  0.00  0.00    +0.000 A 
ATOM     13  C   UNL     1       1.660   8.704  19.364  0.00  0.00    +0.000 A 
ATOM     14  C   UNL     1       1.417   8.101  20.592  0.00  0.00    +0.000 A 
ATOM     15 BR   UNL     1       0.556   9.098  21.976  0.00  0.00    +0.000 Br
ATOM     16  C   UNL     1       1.794   6.771  20.804  0.00  0.00    +0.000 A 
ATOM     17  C   UNL     1       2.411   6.039  19.780  0.00  0.00    +0.000 A 
ENDBRANCH   4  11
BRANCH   1  19
ATOM     18  C   UNL     1       4.041   2.224  20.663  0.00  0.00    +0.000 C 
ATOM     19  N   UNL     1       5.107   2.788  19.823  0.00  0.00    +0.000 NA
ATOM     20  H   UNL     1       5.777   2.015  19.601  0.00  0.00    +0.000 HD
ENDBRANCH   1  19
TORSDOF 2
ENDMDL
MODEL 3
REMARK VINA RESULT:      -7.1      1.977      4.023
REMARK  Name = 
REMARK  3 active torsions:
REMARK  status: ('A' for Active; 'I' for Inactive)
REMARK    1  A    between atoms: C_1  and  N_2
REMARK    2  A    between atoms: N_2  and  C_3
REMARK    3  A    between atoms: C_6  and  C_7
REMARK                            x       y       z     vdW  Elec       q    Type
REMARK                         _______ _______ _______ _____ _____    ______ ____
ROOT
ATOM      1  C   UNL     1       4.289   4.106  17.492  0.00  0.00    +0.000 C 
ATOM      2  C   UNL     1       4.948   5.401  18.034  0.00  0.00    +0.000 C 
ATOM      3  C   UNL     1       4.817   5.478  19.549  0.00  0.00    +0.000 C 
ATOM      4  C   UNL     1       3.328   5.527  19.959  0.00  0.00    +0.000 C 
ATOM      5  C   UNL     1       2.581   4.333  19.409  0.00  0.00    +0.000 A 
ATOM      6  C   UNL     1       1.442   3.875  20.090  0.00  0.00    +0.000 A 
ATOM      7  C   UNL     1       0.735   2.770  19.618  0.00  0.00    +0.000 A 
ATOM      8  C   UNL     1       1.154   2.118  18.458  0.00  0.00    +0.000 A 
ATOM      9  C   UNL     1       2.285   2.564  17.765  0.00  0.00    +0.000 A 
ATOM     10  C   UNL     1       3.010   3.681  18.219  0.00  0.00    +0.000 A 
ENDROOT
BRANCH   4  11
ATOM     11  C   UNL     1       2.604   6.813  19.555  0.00  0.00    +0.000 A 
ATOM     12  C   UNL     1       1.885   7.574  20.500  0.00  0.00    +0.000 A 
ATOM     13  C   UNL     1       1.250   8.763  20.142  0.00  0.00    +0.000 A 
ATOM     14  C   UNL     1       1.320   9.216  18.830  0.00  0.00    +0.000 A 
ATOM     15 BR   UNL     1       0.461  10.855  18.353  0.00  0.00    +0.000 Br
ATOM     16  C   UNL     1       2.024   8.478  17.873  0.00  0.00    +0.000 A 
ATOM     17  C   UNL     1       2.666   7.285  18.232  0.00  0.00    +0.000 A 
ENDBRANCH   4  11
BRANCH   1  19
ATOM     18  C   UNL     1       5.340   4.641  15.275  0.00  0.00    +0.000 C 
ATOM     19  N   UNL     1       4.189   4.099  16.012  0.00  0.00    +0.000 NA
ATOM     20  H   UNL     1       4.048   3.111  15.696  0.00  0.00    +0.000 HD
ENDBRANCH   1  19
TORSDOF 2
ENDMDL
MODEL 4
REMARK VINA RESULT:      -7.0      1.203      1.724
REMARK  Name = 
REMARK  3 active torsions:
REMARK  status: ('A' for Active; 'I' for Inactive)
REMARK    1  A    between atoms: C_1  and  N_2
REMARK    2  A    between atoms: N_2  and  C_3
REMARK    3  A    between atoms: C_6  and  C_7
REMARK                            x       y       z     vdW  Elec       q    Type
REMARK                         _______ _______ _______ _____ _____    ______ ____
ROOT
ATOM      1  C   UNL     1       3.272   3.676  19.336  0.00  0.00    +0.000 C 
ATOM      2  C   UNL     1       1.829   4.138  19.003  0.00  0.00    +0.000 C 
ATOM      3  C   UNL     1       1.780   4.804  17.636  0.00  0.00    +0.000 C 
ATOM      4  C   UNL     1       2.671   6.067  17.619  0.00  0.00    +0.000 C 
ATOM      5  C   UNL     1       4.092   5.725  18.006  0.00  0.00    +0.000 A 
ATOM      6  C   UNL     1       5.138   6.528  17.522  0.00  0.00    +0.000 A 
ATOM      7  C   UNL     1       6.460   6.236  17.849  0.00  0.00    +0.000 A 
ATOM      8  C   UNL     1       6.751   5.145  18.669  0.00  0.00    +0.000 A 
ATOM      9  C   UNL     1       5.721   4.337  19.163  0.00  0.00    +0.000 A 
ATOM     10  C   UNL     1       4.378   4.616  18.851  0.00  0.00    +0.000 A 
ENDROOT
BRANCH   4  11
ATOM     11  C   UNL     1       2.162   7.210  18.499  0.00  0.00    +0.000 A 
ATOM     12  C   UNL     1       1.757   8.439  17.938  0.00  0.00    +0.000 A 
ATOM     13  C   UNL     1       1.264   9.472  18.735  0.00  0.00    +0.000 A 
ATOM     14  C   UNL     1       1.166   9.298  20.110  0.00  0.00    +0.000 A 
ATOM     15 BR   UNL     1       0.473  10.713  21.191  0.00  0.00    +0.000 Br
ATOM     16  C   UNL     1       1.564   8.090  20.692  0.00  0.00    +0.000 A 
ATOM     17  C   UNL     1       2.056   7.049  19.892  0.00  0.00    +0.000 A 
ENDBRANCH   4  11
BRANCH   1  19
ATOM     18  C   UNL     1       2.191   3.250  21.563  0.00  0.00    +0.000 C 
ATOM     19  N   UNL     1       3.412   3.231  20.745  0.00  0.00    +0.000 NA
ATOM     20  H   UNL     1       3.778   2.250  20.746  0.00  0.00    +0.000 HD
ENDBRANCH   1  19
TORSDOF 2
ENDMDL
MODEL 5
REMARK VINA RESULT:      -7.0      1.976      4.085
REMARK  Name = 
REMARK  3 active torsions:
REMARK  status: ('A' for Active; 'I' for Inactive)
REMARK    1  A    between atoms: C_1  and  N_2
REMARK    2  A    between atoms: N_2  and  C_3
REMARK    3  A    between atoms: C_6  and  C_7
REMARK                            x       y       z     vdW  Elec       q    Type
REMARK                         _______ _______ _______ _____ _____    ______ ____
ROOT
ATOM      1  C   UNL     1       4.324   4.121  17.480  0.00  0.00    +0.000 C 
ATOM      2  C   UNL     1       4.987   5.413  18.022  0.00  0.00    +0.000 C 
ATOM      3  C   UNL     1       4.860   5.488  19.537  0.00  0.00    +0.000 C 
ATOM      4  C   UNL     1       3.372   5.541  19.951  0.00  0.00    +0.000 C 
ATOM      5  C   UNL     1       2.621   4.349  19.401  0.00  0.00    +0.000 A 
ATOM      6  C   UNL     1       1.482   3.893  20.083  0.00  0.00    +0.000 A 
ATOM      7  C   UNL     1       0.772   2.791  19.611  0.00  0.00    +0.000 A 
ATOM      8  C   UNL     1       1.186   2.139  18.449  0.00  0.00    +0.000 A 
ATOM      9  C   UNL     1       2.317   2.584  17.755  0.00  0.00    +0.000 A 
ATOM     10  C   UNL     1       3.045   3.698  18.209  0.00  0.00    +0.000 A 
ENDROOT
BRANCH   4  11
ATOM     11  C   UNL     1       2.651   6.829  19.551  0.00  0.00    +0.000 A 
ATOM     12  C   UNL     1       2.692   7.307  18.224  0.00  0.00    +0.000 A 
ATOM     13  C   UNL     1       2.011   8.465  17.849  0.00  0.00    +0.000 A 
ATOM     14  C   UNL     1       1.274   9.170  18.793  0.00  0.00    +0.000 A 
ATOM     15 BR   UNL     1       0.331  10.746  18.265  0.00  0.00    +0.000 Br
ATOM     16  C   UNL     1       1.220   8.719  20.116  0.00  0.00    +0.000 A 
ATOM     17  C   UNL     1       1.901   7.554  20.495  0.00  0.00    +0.000 A 
ENDBRANCH   4  11
BRANCH   1  19
ATOM     18  C   UNL     1       5.343   4.714  15.263  0.00  0.00    +0.000 C 
ATOM     19  N   UNL     1       4.221   4.117  16.000  0.00  0.00    +0.000 NA
ATOM     20  H   UNL     1       4.125   3.125  15.679  0.00  0.00    +0.000 HD
ENDBRANCH   1  19
TORSDOF 2
ENDMDL
MODEL 6
REMARK VINA RESULT:      -7.0      1.228      1.373
REMARK  Name = 
REMARK  3 active torsions:
REMARK  status: ('A' for Active; 'I' for Inactive)
REMARK    1  A    between atoms: C_1  and  N_2
REMARK    2  A    between atoms: N_2  and  C_3
REMARK    3  A    between atoms: C_6  and  C_7
REMARK                            x       y       z     vdW  Elec       q    Type
REMARK                         _______ _______ _______ _____ _____    ______ ____
ROOT
ATOM      1  C   UNL     1       3.254   3.683  19.387  0.00  0.00    +0.000 C 
ATOM      2  C   UNL     1       1.810   4.124  19.031  0.00  0.00    +0.000 C 
ATOM      3  C   UNL     1       1.769   4.767  17.652  0.00  0.00    +0.000 C 
ATOM      4  C   UNL     1       2.646   6.039  17.623  0.00  0.00    +0.000 C 
ATOM      5  C   UNL     1       4.067   5.718  18.031  0.00  0.00    +0.000 A 
ATOM      6  C   UNL     1       5.109   6.524  17.545  0.00  0.00    +0.000 A 
ATOM      7  C   UNL     1       6.430   6.252  17.891  0.00  0.00    +0.000 A 
ATOM      8  C   UNL     1       6.725   5.178  18.733  0.00  0.00    +0.000 A 
ATOM      9  C   UNL     1       5.698   4.368  19.229  0.00  0.00    +0.000 A 
ATOM     10  C   UNL     1       4.356   4.627  18.899  0.00  0.00    +0.000 A 
ENDROOT
BRANCH   4  11
ATOM     11  C   UNL     1       2.116   7.190  18.479  0.00  0.00    +0.000 A 
ATOM     12  C   UNL     1       2.026   7.077  19.881  0.00  0.00    +0.000 A 
ATOM     13  C   UNL     1       1.571   8.136  20.668  0.00  0.00    +0.000 A 
ATOM     14  C   UNL     1       1.196   9.331  20.066  0.00  0.00    +0.000 A 
ATOM     15 BR   UNL     1       0.591  10.782  21.153  0.00  0.00    +0.000 Br
ATOM     16  C   UNL     1       1.273   9.468  18.676  0.00  0.00    +0.000 A 
ATOM     17  C   UNL     1       1.733   8.407  17.885  0.00  0.00    +0.000 A 
ENDBRANCH   4  11
BRANCH   1  19
ATOM     18  C   UNL     1       2.132   3.101  21.557  0.00  0.00    +0.000 C 
ATOM     19  N   UNL     1       3.383   3.264  20.805  0.00  0.00    +0.000 NA
ATOM     20  H   UNL     1       3.890   2.349  20.833  0.00  0.00    +0.000 HD
ENDBRANCH   1  19
TORSDOF 2
ENDMDL
MODEL 7
REMARK VINA RESULT:      -6.9      3.532      5.512
REMARK  Name = 
REMARK  3 active torsions:
REMARK  status: ('A' for Active; 'I' for Inactive)
REMARK    1  A    between atoms: C_1  and  N_2
REMARK    2  A    between atoms: N_2  and  C_3
REMARK    3  A    between atoms: C_6  and  C_7
REMARK                            x       y       z     vdW  Elec       q    Type
REMARK                         _______ _______ _______ _____ _____    ______ ____
ROOT
ATOM      1  C   UNL     1       3.552   4.243  19.385  0.00  0.00    +0.000 C 
ATOM      2  C   UNL     1       4.963   3.652  19.130  0.00  0.00    +0.000 C 
ATOM      3  C   UNL     1       6.010   4.755  19.097  0.00  0.00    +0.000 C 
ATOM      4  C   UNL     1       5.721   5.739  17.940  0.00  0.00    +0.000 C 
ATOM      5  C   UNL     1       4.328   6.315  18.064  0.00  0.00    +0.000 A 
ATOM      6  C   UNL     1       4.069   7.582  17.516  0.00  0.00    +0.000 A 
ATOM      7  C   UNL     1       2.800   8.148  17.621  0.00  0.00    +0.000 A 
ATOM      8  C   UNL     1       1.776   7.453  18.264  0.00  0.00    +0.000 A 
ATOM      9  C   UNL     1       2.017   6.187  18.811  0.00  0.00    +0.000 A 
ATOM     10  C   UNL     1       3.287   5.593  18.712  0.00  0.00    +0.000 A 
ENDROOT
BRANCH   4  11
ATOM     11  C   UNL     1       5.906   5.142  16.544  0.00  0.00    +0.000 A 
ATOM     12  C   UNL     1       4.878   4.402  15.924  0.00  0.00    +0.000 A 
ATOM     13  C   UNL     1       5.032   3.882  14.638  0.00  0.00    +0.000 A 
ATOM     14  C   UNL     1       6.219   4.092  13.947  0.00  0.00    +0.000 A 
ATOM     15 BR   UNL     1       6.414   3.390  12.180  0.00  0.00    +0.000 Br
ATOM     16  C   UNL     1       7.255   4.819  14.541  0.00  0.00    +0.000 A 
ATOM     17  C   UNL     1       7.101   5.345  15.831  0.00  0.00    +0.000 A 
ENDBRANCH   4  11
BRANCH   1  19
ATOM     18  C   UNL     1       2.732   2.180  18.211  0.00  0.00    +0.000 C 
ATOM     19  N   UNL     1       2.476   3.238  19.198  0.00  0.00    +0.000 NA
ATOM     20  H   UNL     1       2.295   2.775  20.119  0.00  0.00    +0.000 HD
ENDBRANCH   1  19
TORSDOF 2
ENDMDL
MODEL 8
REMARK VINA RESULT:      -6.9      2.166      3.239
REMARK  Name = 
REMARK  3 active torsions:
REMARK  status: ('A' for Active; 'I' for Inactive)
REMARK    1  A    between atoms: C_1  and  N_2
REMARK    2  A    between atoms: N_2  and  C_3
REMARK    3  A    between atoms: C_6  and  C_7
REMARK                            x       y       z     vdW  Elec       q    Type
REMARK                         _______ _______ _______ _____ _____    ______ ____
ROOT
ATOM      1  C   UNL     1       7.344   5.254  18.266  0.00  0.00    +0.000 C 
ATOM      2  C   UNL     1       6.423   5.287  19.513  0.00  0.00    +0.000 C 
ATOM      3  C   UNL     1       5.315   4.252  19.391  0.00  0.00    +0.000 C 
ATOM      4  C   UNL     1       4.422   4.559  18.167  0.00  0.00    +0.000 C 
ATOM      5  C   UNL     1       5.250   4.621  16.904  0.00  0.00    +0.000 A 
ATOM      6  C   UNL     1       4.637   4.316  15.677  0.00  0.00    +0.000 A 
ATOM      7  C   UNL     1       5.372   4.352  14.494  0.00  0.00    +0.000 A 
ATOM      8  C   UNL     1       6.723   4.701  14.522  0.00  0.00    +0.000 A 
ATOM      9  C   UNL     1       7.348   5.011  15.735  0.00  0.00    +0.000 A 
ATOM     10  C   UNL     1       6.625   4.988  16.941  0.00  0.00    +0.000 A 
ENDROOT
BRANCH   4  11
ATOM     11  C   UNL     1       3.591   5.837  18.298  0.00  0.00    +0.000 A 
ATOM     12  C   UNL     1       2.663   6.001  19.347  0.00  0.00    +0.000 A 
ATOM     13  C   UNL     1       1.926   7.177  19.487  0.00  0.00    +0.000 A 
ATOM     14  C   UNL     1       2.101   8.214  18.579  0.00  0.00    +0.000 A 
ATOM     15 BR   UNL     1       1.099   9.828  18.789  0.00  0.00    +0.000 Br
ATOM     16  C   UNL     1       3.013   8.076  17.527  0.00  0.00    +0.000 A 
ATOM     17  C   UNL     1       3.758   6.896  17.387  0.00  0.00    +0.000 A 
ENDBRANCH   4  11
BRANCH   1  19
ATOM     18  C   UNL     1       7.741   7.699  17.849  0.00  0.00    +0.000 C 
ATOM     19  N   UNL     1       8.295   6.393  18.235  0.00  0.00    +0.000 NA
ATOM     20  H   UNL     1       8.715   6.497  19.188  0.00  0.00    +0.000 HD
ENDBRANCH   1  19
TORSDOF 2
ENDMDL
MODEL 9
REMARK VINA RESULT:      -6.9      3.539      5.557
REMARK  Name = 
REMARK  3 active torsions:
REMARK  status: ('A' for Active; 'I' for Inactive)
REMARK    1  A    between atoms: C_1  and  N_2
REMARK    2  A    between atoms: N_2  and  C_3
REMARK    3  A    between atoms: C_6  and  C_7
REMARK                            x       y       z     vdW  Elec       q    Type
REMARK                         _______ _______ _______ _____ _____    ______ ____
ROOT
ATOM      1  C   UNL     1       3.579   4.241  19.345  0.00  0.00    +0.000 C 
ATOM      2  C   UNL     1       4.991   3.667  19.058  0.00  0.00    +0.000 C 
ATOM      3  C   UNL     1       6.028   4.780  19.031  0.00  0.00    +0.000 C 
ATOM      4  C   UNL     1       5.714   5.783  17.898  0.00  0.00    +0.000 C 
ATOM      5  C   UNL     1       4.318   6.345  18.053  0.00  0.00    +0.000 A 
ATOM      6  C   UNL     1       4.040   7.620  17.535  0.00  0.00    +0.000 A 
ATOM      7  C   UNL     1       2.769   8.173  17.669  0.00  0.00    +0.000 A 
ATOM      8  C   UNL     1       1.760   7.457  18.314  0.00  0.00    +0.000 A 
ATOM      9  C   UNL     1       2.019   6.183  18.832  0.00  0.00    +0.000 A 
ATOM     10  C   UNL     1       3.293   5.601  18.703  0.00  0.00    +0.000 A 
ENDROOT
BRANCH   4  11
ATOM     11  C   UNL     1       5.883   5.216  16.488  0.00  0.00    +0.000 A 
ATOM     12  C   UNL     1       7.104   5.339  15.793  0.00  0.00    +0.000 A 
ATOM     13  C   UNL     1       7.272   4.796  14.519  0.00  0.00    +0.000 A 
ATOM     14  C   UNL     1       6.221   4.119  13.913  0.00  0.00    +0.000 A 
ATOM     15 BR   UNL     1       6.466   3.364  12.174  0.00  0.00    +0.000 Br
ATOM     16  C   UNL     1       4.999   3.985  14.579  0.00  0.00    +0.000 A 
ATOM     17  C   UNL     1       4.829   4.527  15.861  0.00  0.00    +0.000 A 
ENDBRANCH   4  11
BRANCH   1  19
ATOM     18  C   UNL     1       2.535   2.478  17.892  0.00  0.00    +0.000 C 
ATOM     19  N   UNL     1       2.509   3.231  19.154  0.00  0.00    +0.000 NA
ATOM     20  H   UNL     1       2.567   2.538  19.937  0.00  0.00    +0.000 HD
ENDBRANCH   1  19
TORSDOF 2
ENDMDL
