MODEL 1
REMARK VINA RESULT:      -7.1      0.000      0.000
REMARK  Name = 
REMARK  3 active torsions:
REMARK  status: ('A' for Active; 'I' for Inactive)
REMARK    1  A    between atoms: C_1  and  C_2
REMARK    2  A    between atoms: N_14  and  C_15
REMARK    3  A    between atoms: C_18  and  C_19
REMARK                            x       y       z     vdW  Elec       q    Type
REMARK                         _______ _______ _______ _____ _____    ______ ____
ROOT
ATOM      1  C   UNL     1       0.431  10.179  20.479  0.00  0.00    +0.000 C 
ATOM      2  C   UNL     1       1.206   9.013  19.927  0.00  0.00    +0.000 A 
ATOM      3  C   UNL     1       1.233   7.797  20.626  0.00  0.00    +0.000 A 
ATOM      4  C   UNL     1       1.940   6.688  20.143  0.00  0.00    +0.000 A 
ATOM      5  N   UNL     1       1.909   5.510  20.917  0.00  0.00    +0.000 NA
ATOM      6  C   UNL     1       2.559   4.468  20.486  0.00  0.00    +0.000 A 
ATOM      7  C   UNL     1       2.546   3.193  21.289  0.00  0.00    +0.000 A 
ATOM      8  O   UNL     1       1.949   3.079  22.345  0.00  0.00    +0.000 OA
ATOM      9  N   UNL     1       3.269   2.187  20.719  0.00  0.00    +0.000 N 
ATOM     10  C   UNL     1       3.958   2.249  19.546  0.00  0.00    +0.000 A 
ATOM     11  O   UNL     1       4.562   1.247  19.171  0.00  0.00    +0.000 OA
ATOM     12  N   UNL     1       3.967   3.404  18.821  0.00  0.00    +0.000 NA
ATOM     13  C   UNL     1       3.340   4.479  19.192  0.00  0.00    +0.000 A 
ATOM     14  N   UNL     1       3.353   5.650  18.452  0.00  0.00    +0.000 N 
ATOM     15  C   UNL     1       4.080   5.749  17.193  0.00  0.00    +0.000 C 
ATOM     16  C   UNL     1       2.647   6.779  18.923  0.00  0.00    +0.000 A 
ATOM     17  C   UNL     1       2.615   8.003  18.232  0.00  0.00    +0.000 A 
ATOM     18  C   UNL     1       1.908   9.117  18.716  0.00  0.00    +0.000 A 
ATOM     19  C   UNL     1       1.925  10.395  17.920  0.00  0.00    +0.000 C 
ATOM     20  H   UNL     1       3.303   1.305  21.206  0.00  0.00    +0.000 HD
ENDROOT
TORSDOF 0
ENDMDL
MODEL 2
REMARK VINA RESULT:      -7.0      4.544      6.359
REMARK  Name = 
REMARK  3 active torsions:
REMARK  status: ('A' for Active; 'I' for Inactive)
REMARK    1  A    between atoms: C_1  and  C_2
REMARK    2  A    between atoms: N_14  and  C_15
REMARK    3  A    between atoms: C_18  and  C_19
REMARK                            x       y       z     vdW  Elec       q    Type
REMARK                         _______ _______ _______ _____ _____    ______ ____
ROOT
ATOM      1  C   UNL     1       1.164   2.979  18.929  0.00  0.00    +0.000 C 
ATOM      2  C   UNL     1       2.436   3.634  18.465  0.00  0.00    +0.000 A 
ATOM      3  C   UNL     1       2.900   3.415  17.158  0.00  0.00    +0.000 A 
ATOM      4  C   UNL     1       4.079   4.010  16.689  0.00  0.00    +0.000 A 
ATOM      5  N   UNL     1       4.464   3.730  15.362  0.00  0.00    +0.000 NA
ATOM      6  C   UNL     1       5.555   4.272  14.906  0.00  0.00    +0.000 A 
ATOM      7  C   UNL     1       5.996   3.993  13.492  0.00  0.00    +0.000 A 
ATOM      8  O   UNL     1       5.375   3.269  12.734  0.00  0.00    +0.000 OA
ATOM      9  N   UNL     1       7.155   4.626  13.151  0.00  0.00    +0.000 N 
ATOM     10  C   UNL     1       7.896   5.444  13.949  0.00  0.00    +0.000 A 
ATOM     11  O   UNL     1       8.921   5.937  13.486  0.00  0.00    +0.000 OA
ATOM     12  N   UNL     1       7.493   5.696  15.228  0.00  0.00    +0.000 NA
ATOM     13  C   UNL     1       6.416   5.188  15.745  0.00  0.00    +0.000 A 
ATOM     14  N   UNL     1       6.013   5.446  17.045  0.00  0.00    +0.000 N 
ATOM     15  C   UNL     1       6.783   6.317  17.925  0.00  0.00    +0.000 C 
ATOM     16  C   UNL     1       4.829   4.855  17.538  0.00  0.00    +0.000 A 
ATOM     17  C   UNL     1       4.356   5.065  18.844  0.00  0.00    +0.000 A 
ATOM     18  C   UNL     1       3.175   4.468  19.318  0.00  0.00    +0.000 A 
ATOM     19  C   UNL     1       2.736   4.739  20.732  0.00  0.00    +0.000 C 
ATOM     20  H   UNL     1       7.506   4.481  12.218  0.00  0.00    +0.000 HD
ENDROOT
TORSDOF 0
ENDMDL
MODEL 3
REMARK VINA RESULT:      -7.0      1.384      3.086
REMARK  Name = 
REMARK  3 active torsions:
REMARK  status: ('A' for Active; 'I' for Inactive)
REMARK    1  A    between atoms: C_1  and  C_2
REMARK    2  A    between atoms: N_14  and  C_15
REMARK    3  A    between atoms: C_18  and  C_19
REMARK                            x       y       z     vdW  Elec       q    Type
REMARK                         _______ _______ _______ _____ _____    ______ ____
ROOT
ATOM      1  C   UNL     1       1.817  10.533  18.188  0.00  0.00    +0.000 C 
ATOM      2  C   UNL     1       1.966   9.116  18.669  0.00  0.00    +0.000 A 
ATOM      3  C   UNL     1       2.645   8.176  17.878  0.00  0.00    +0.000 A 
ATOM      4  C   UNL     1       2.806   6.847  18.293  0.00  0.00    +0.000 A 
ATOM      5  N   UNL     1       3.503   5.977  17.430  0.00  0.00    +0.000 NA
ATOM      6  C   UNL     1       3.664   4.739  17.796  0.00  0.00    +0.000 A 
ATOM      7  C   UNL     1       4.403   3.782  16.896  0.00  0.00    +0.000 A 
ATOM      8  O   UNL     1       4.868   4.109  15.818  0.00  0.00    +0.000 OA
ATOM      9  N   UNL     1       4.496   2.521  17.406  0.00  0.00    +0.000 N 
ATOM     10  C   UNL     1       3.998   2.091  18.600  0.00  0.00    +0.000 A 
ATOM     11  O   UNL     1       4.168   0.915  18.912  0.00  0.00    +0.000 OA
ATOM     12  N   UNL     1       3.331   2.960  19.412  0.00  0.00    +0.000 NA
ATOM     13  C   UNL     1       3.135   4.207  19.108  0.00  0.00    +0.000 A 
ATOM     14  N   UNL     1       2.456   5.085  19.937  0.00  0.00    +0.000 N 
ATOM     15  C   UNL     1       1.912   4.657  21.220  0.00  0.00    +0.000 C 
ATOM     16  C   UNL     1       2.281   6.428  19.536  0.00  0.00    +0.000 A 
ATOM     17  C   UNL     1       1.602   7.377  20.318  0.00  0.00    +0.000 A 
ATOM     18  C   UNL     1       1.436   8.709  19.903  0.00  0.00    +0.000 A 
ATOM     19  C   UNL     1       0.692   9.666  20.796  0.00  0.00    +0.000 C 
ATOM     20  H   UNL     1       4.978   1.830  16.854  0.00  0.00    +0.000 HD
ENDROOT
TORSDOF 0
ENDMDL
MODEL 4
REMARK VINA RESULT:      -6.6      1.932      3.218
REMARK  Name = 
REMARK  3 active torsions:
REMARK  status: ('A' for Active; 'I' for Inactive)
REMARK    1  A    between atoms: C_1  and  C_2
REMARK    2  A    between atoms: N_14  and  C_15
REMARK    3  A    between atoms: C_18  and  C_19
REMARK                            x       y       z     vdW  Elec       q    Type
REMARK                         _______ _______ _______ _____ _____    ______ ____
ROOT
ATOM      1  C   UNL     1      -1.228  10.920  23.182  0.00  0.00    +0.000 C 
ATOM      2  C   UNL     1      -0.428  10.372  22.032  0.00  0.00    +0.000 A 
ATOM      3  C   UNL     1       0.070   9.061  22.087  0.00  0.00    +0.000 A 
ATOM      4  C   UNL     1       0.816   8.515  21.034  0.00  0.00    +0.000 A 
ATOM      5  N   UNL     1       1.275   7.190  21.183  0.00  0.00    +0.000 NA
ATOM      6  C   UNL     1       1.970   6.663  20.217  0.00  0.00    +0.000 A 
ATOM      7  C   UNL     1       2.475   5.249  20.343  0.00  0.00    +0.000 A 
ATOM      8  O   UNL     1       2.268   4.554  21.322  0.00  0.00    +0.000 OA
ATOM      9  N   UNL     1       3.187   4.829  19.259  0.00  0.00    +0.000 N 
ATOM     10  C   UNL     1       3.456   5.554  18.136  0.00  0.00    +0.000 A 
ATOM     11  O   UNL     1       4.116   5.025  17.246  0.00  0.00    +0.000 OA
ATOM     12  N   UNL     1       2.996   6.833  18.024  0.00  0.00    +0.000 NA
ATOM     13  C   UNL     1       2.298   7.419  18.950  0.00  0.00    +0.000 A 
ATOM     14  N   UNL     1       1.833   8.719  18.831  0.00  0.00    +0.000 N 
ATOM     15  C   UNL     1       2.103   9.520  17.644  0.00  0.00    +0.000 C 
ATOM     16  C   UNL     1       1.081   9.288  19.882  0.00  0.00    +0.000 A 
ATOM     17  C   UNL     1       0.579  10.600  19.838  0.00  0.00    +0.000 A 
ATOM     18  C   UNL     1      -0.168  11.151  20.893  0.00  0.00    +0.000 A 
ATOM     19  C   UNL     1      -0.668  12.566  20.774  0.00  0.00    +0.000 C 
ATOM     20  H   UNL     1       3.556   3.892  19.278  0.00  0.00    +0.000 HD
ENDROOT
TORSDOF 0
ENDMDL
MODEL 5
REMARK VINA RESULT:      -6.5      3.895      6.474
REMARK  Name = 
REMARK  3 active torsions:
REMARK  status: ('A' for Active; 'I' for Inactive)
REMARK    1  A    between atoms: C_1  and  C_2
REMARK    2  A    between atoms: N_14  and  C_15
REMARK    3  A    between atoms: C_18  and  C_19
REMARK                            x       y       z     vdW  Elec       q    Type
REMARK                         _______ _______ _______ _____ _____    ______ ____
ROOT
ATOM      1  C   UNL     1       2.852   3.856  20.169  0.00  0.00    +0.000 C 
ATOM      2  C   UNL     1       2.519   5.287  19.850  0.00  0.00    +0.000 A 
ATOM      3  C   UNL     1       1.895   6.093  20.815  0.00  0.00    +0.000 A 
ATOM      4  C   UNL     1       1.572   7.432  20.556  0.00  0.00    +0.000 A 
ATOM      5  N   UNL     1       0.946   8.160  21.587  0.00  0.00    +0.000 NA
ATOM      6  C   UNL     1       0.638   9.405  21.368  0.00  0.00    +0.000 A 
ATOM      7  C   UNL     1      -0.033  10.212  22.449  0.00  0.00    +0.000 A 
ATOM      8  O   UNL     1      -0.312   9.755  23.544  0.00  0.00    +0.000 OA
ATOM      9  N   UNL     1      -0.298  11.499  22.081  0.00  0.00    +0.000 N 
ATOM     10  C   UNL     1      -0.014  12.071  20.877  0.00  0.00    +0.000 A 
ATOM     11  O   UNL     1      -0.321  13.247  20.705  0.00  0.00    +0.000 OA
ATOM     12  N   UNL     1       0.595  11.338  19.901  0.00  0.00    +0.000 NA
ATOM     13  C   UNL     1       0.928  10.092  20.054  0.00  0.00    +0.000 A 
ATOM     14  N   UNL     1       1.546   9.352  19.058  0.00  0.00    +0.000 N 
ATOM     15  C   UNL     1       1.863   9.934  17.760  0.00  0.00    +0.000 C 
ATOM     16  C   UNL     1       1.877   8.001  19.299  0.00  0.00    +0.000 A 
ATOM     17  C   UNL     1       2.501   7.184  18.340  0.00  0.00    +0.000 A 
ATOM     18  C   UNL     1       2.824   5.841  18.596  0.00  0.00    +0.000 A 
ATOM     19  C   UNL     1       3.487   5.030  17.515  0.00  0.00    +0.000 C 
ATOM     20  H   UNL     1      -0.747  12.094  22.758  0.00  0.00    +0.000 HD
ENDROOT
TORSDOF 0
ENDMDL
MODEL 6
REMARK VINA RESULT:      -6.4      3.452      6.062
REMARK  Name = 
REMARK  3 active torsions:
REMARK  status: ('A' for Active; 'I' for Inactive)
REMARK    1  A    between atoms: C_1  and  C_2
REMARK    2  A    between atoms: N_14  and  C_15
REMARK    3  A    between atoms: C_18  and  C_19
REMARK                            x       y       z     vdW  Elec       q    Type
REMARK                         _______ _______ _______ _____ _____    ______ ____
ROOT
ATOM      1  C   UNL     1       2.923   2.776  20.622  0.00  0.00    +0.000 C 
ATOM      2  C   UNL     1       2.708   4.181  20.128  0.00  0.00    +0.000 A 
ATOM      3  C   UNL     1       2.041   5.113  20.938  0.00  0.00    +0.000 A 
ATOM      4  C   UNL     1       1.826   6.431  20.514  0.00  0.00    +0.000 A 
ATOM      5  N   UNL     1       1.145   7.294  21.397  0.00  0.00    +0.000 NA
ATOM      6  C   UNL     1       0.934   8.522  21.024  0.00  0.00    +0.000 A 
ATOM      7  C   UNL     1       0.209   9.471  21.944  0.00  0.00    +0.000 A 
ATOM      8  O   UNL     1      -0.203   9.145  23.043  0.00  0.00    +0.000 OA
ATOM      9  N   UNL     1       0.059  10.722  21.423  0.00  0.00    +0.000 N 
ATOM     10  C   UNL     1       0.493  11.150  20.204  0.00  0.00    +0.000 A 
ATOM     11  O   UNL     1       0.275  12.315  19.884  0.00  0.00    +0.000 OA
ATOM     12  N   UNL     1       1.151  10.289  19.374  0.00  0.00    +0.000 NA
ATOM     13  C   UNL     1       1.393   9.052  19.685  0.00  0.00    +0.000 A 
ATOM     14  N   UNL     1       2.061   8.182  18.838  0.00  0.00    +0.000 N 
ATOM     15  C   UNL     1       2.538   8.608  17.528  0.00  0.00    +0.000 C 
ATOM     16  C   UNL     1       2.286   6.849  19.245  0.00  0.00    +0.000 A 
ATOM     17  C   UNL     1       2.951   5.906  18.443  0.00  0.00    +0.000 A 
ATOM     18  C   UNL     1       3.167   4.583  18.864  0.00  0.00    +0.000 A 
ATOM     19  C   UNL     1       3.884   3.631  17.945  0.00  0.00    +0.000 C 
ATOM     20  H   UNL     1      -0.419  11.407  21.986  0.00  0.00    +0.000 HD
ENDROOT
TORSDOF 0
ENDMDL
MODEL 7
REMARK VINA RESULT:      -6.2      4.666      6.159
REMARK  Name = 
REMARK  3 active torsions:
REMARK  status: ('A' for Active; 'I' for Inactive)
REMARK    1  A    between atoms: C_1  and  C_2
REMARK    2  A    between atoms: N_14  and  C_15
REMARK    3  A    between atoms: C_18  and  C_19
REMARK                            x       y       z     vdW  Elec       q    Type
REMARK                         _______ _______ _______ _____ _____    ______ ____
ROOT
ATOM      1  C   UNL     1       0.573   2.202  19.167  0.00  0.00    +0.000 C 
ATOM      2  C   UNL     1       1.884   2.869  18.853  0.00  0.00    +0.000 A 
ATOM      3  C   UNL     1       2.347   2.914  17.529  0.00  0.00    +0.000 A 
ATOM      4  C   UNL     1       3.562   3.528  17.197  0.00  0.00    +0.000 A 
ATOM      5  N   UNL     1       3.943   3.522  15.839  0.00  0.00    +0.000 NA
ATOM      6  C   UNL     1       5.067   4.087  15.509  0.00  0.00    +0.000 A 
ATOM      7  C   UNL     1       5.505   4.098  14.067  0.00  0.00    +0.000 A 
ATOM      8  O   UNL     1       4.851   3.593  13.171  0.00  0.00    +0.000 OA
ATOM      9  N   UNL     1       6.701   4.723  13.868  0.00  0.00    +0.000 N 
ATOM     10  C   UNL     1       7.480   5.304  14.823  0.00  0.00    +0.000 A 
ATOM     11  O   UNL     1       8.535   5.827  14.474  0.00  0.00    +0.000 OA
ATOM     12  N   UNL     1       7.080   5.294  16.127  0.00  0.00    +0.000 NA
ATOM     13  C   UNL     1       5.971   4.748  16.524  0.00  0.00    +0.000 A 
ATOM     14  N   UNL     1       5.571   4.740  17.851  0.00  0.00    +0.000 N 
ATOM     15  C   UNL     1       6.381   5.353  18.896  0.00  0.00    +0.000 C 
ATOM     16  C   UNL     1       4.351   4.124  18.206  0.00  0.00    +0.000 A 
ATOM     17  C   UNL     1       3.878   4.071  19.529  0.00  0.00    +0.000 A 
ATOM     18  C   UNL     1       2.661   3.454  19.865  0.00  0.00    +0.000 A 
ATOM     19  C   UNL     1       2.225   3.435  21.306  0.00  0.00    +0.000 C 
ATOM     20  H   UNL     1       7.053   4.765  12.925  0.00  0.00    +0.000 HD
ENDROOT
TORSDOF 0
ENDMDL
MODEL 8
REMARK VINA RESULT:      -6.2      3.193      5.845
REMARK  Name = 
REMARK  3 active torsions:
REMARK  status: ('A' for Active; 'I' for Inactive)
REMARK    1  A    between atoms: C_1  and  C_2
REMARK    2  A    between atoms: N_14  and  C_15
REMARK    3  A    between atoms: C_18  and  C_19
REMARK                            x       y       z     vdW  Elec       q    Type
REMARK                         _______ _______ _______ _____ _____    ______ ____
ROOT
ATOM      1  C   UNL     1       2.116   2.373  21.653  0.00  0.00    +0.000 C 
ATOM      2  C   UNL     1       2.406   3.530  20.736  0.00  0.00    +0.000 A 
ATOM      3  C   UNL     1       1.804   4.776  20.970  0.00  0.00    +0.000 A 
ATOM      4  C   UNL     1       2.052   5.878  20.140  0.00  0.00    +0.000 A 
ATOM      5  N   UNL     1       1.400   7.088  20.455  0.00  0.00    +0.000 NA
ATOM      6  C   UNL     1       1.616   8.124  19.698  0.00  0.00    +0.000 A 
ATOM      7  C   UNL     1       0.935   9.432  20.007  0.00  0.00    +0.000 A 
ATOM      8  O   UNL     1       0.174   9.579  20.947  0.00  0.00    +0.000 OA
ATOM      9  N   UNL     1       1.253  10.428  19.131  0.00  0.00    +0.000 N 
ATOM     10  C   UNL     1       2.092  10.330  18.063  0.00  0.00    +0.000 A 
ATOM     11  O   UNL     1       2.271  11.328  17.369  0.00  0.00    +0.000 OA
ATOM     12  N   UNL     1       2.708   9.145  17.787  0.00  0.00    +0.000 NA
ATOM     13  C   UNL     1       2.537   8.074  18.501  0.00  0.00    +0.000 A 
ATOM     14  N   UNL     1       3.165   6.872  18.215  0.00  0.00    +0.000 N 
ATOM     15  C   UNL     1       4.069   6.734  17.080  0.00  0.00    +0.000 C 
ATOM     16  C   UNL     1       2.927   5.749  19.039  0.00  0.00    +0.000 A 
ATOM     17  C   UNL     1       3.522   4.496  18.813  0.00  0.00    +0.000 A 
ATOM     18  C   UNL     1       3.274   3.389  19.642  0.00  0.00    +0.000 A 
ATOM     19  C   UNL     1       3.947   2.079  19.332  0.00  0.00    +0.000 C 
ATOM     20  H   UNL     1       0.830  11.331  19.280  0.00  0.00    +0.000 HD
ENDROOT
TORSDOF 0
ENDMDL
MODEL 9
REMARK VINA RESULT:      -6.2      3.593      5.662
REMARK  Name = 
REMARK  3 active torsions:
REMARK  status: ('A' for Active; 'I' for Inactive)
REMARK    1  A    between atoms: C_1  and  C_2
REMARK    2  A    between atoms: N_14  and  C_15
REMARK    3  A    between atoms: C_18  and  C_19
REMARK                            x       y       z     vdW  Elec       q    Type
REMARK                         _______ _______ _______ _____ _____    ______ ____
ROOT
ATOM      1  C   UNL     1       2.059   1.459  20.191  0.00  0.00    +0.000 C 
ATOM      2  C   UNL     1       2.642   2.691  19.554  0.00  0.00    +0.000 A 
ATOM      3  C   UNL     1       3.984   3.029  19.785  0.00  0.00    +0.000 A 
ATOM      4  C   UNL     1       4.564   4.167  19.208  0.00  0.00    +0.000 A 
ATOM      5  N   UNL     1       5.919   4.424  19.499  0.00  0.00    +0.000 NA
ATOM      6  C   UNL     1       6.477   5.475  18.973  0.00  0.00    +0.000 A 
ATOM      7  C   UNL     1       7.924   5.780  19.264  0.00  0.00    +0.000 A 
ATOM      8  O   UNL     1       8.618   5.082  19.983  0.00  0.00    +0.000 OA
ATOM      9  N   UNL     1       8.375   6.910  18.648  0.00  0.00    +0.000 N 
ATOM     10  C   UNL     1       7.653   7.733  17.836  0.00  0.00    +0.000 A 
ATOM     11  O   UNL     1       8.212   8.717  17.359  0.00  0.00    +0.000 OA
ATOM     12  N   UNL     1       6.344   7.453  17.573  0.00  0.00    +0.000 NA
ATOM     13  C   UNL     1       5.727   6.422  18.065  0.00  0.00    +0.000 A 
ATOM     14  N   UNL     1       4.396   6.144  17.795  0.00  0.00    +0.000 N 
ATOM     15  C   UNL     1       3.597   7.003  16.931  0.00  0.00    +0.000 C 
ATOM     16  C   UNL     1       3.793   5.003  18.369  0.00  0.00    +0.000 A 
ATOM     17  C   UNL     1       2.450   4.656  18.147  0.00  0.00    +0.000 A 
ATOM     18  C   UNL     1       1.865   3.516  18.726  0.00  0.00    +0.000 A 
ATOM     19  C   UNL     1       0.418   3.214  18.444  0.00  0.00    +0.000 C 
ATOM     20  H   UNL     1       9.335   7.173  18.802  0.00  0.00    +0.000 HD
ENDROOT
TORSDOF 0
ENDMDL
