MODEL 1
REMARK VINA RESULT:      -9.1      0.000      0.000
REMARK  Name = 
REMARK  3 active torsions:
REMARK  status: ('A' for Active; 'I' for Inactive)
REMARK    1  A    between atoms: C_5  and  C_6
REMARK    2  A    between atoms: N_13  and  N_14
REMARK    3  A    between atoms: N_14  and  C_15
REMARK                            x       y       z     vdW  Elec       q    Type
REMARK                         _______ _______ _______ _____ _____    ______ ____
ROOT
ATOM      1  O   UNL     1       2.343   4.091  21.736  0.00  0.00    +0.000 OA
ATOM      2  C   UNL     1       2.138   4.263  20.557  0.00  0.00    +0.000 C 
ATOM      3  C   UNL     1       1.961   3.378  19.290  0.00  0.00    +0.000 C 
ATOM      4 CL   UNL     1       0.267   2.846  18.995  0.00  0.00    +0.000 Cl
ATOM      5  C   UNL     1       2.507   4.656  18.559  0.00  0.00    +0.000 C 
ATOM      6  N   UNL     1       2.032   5.389  19.767  0.00  0.00    +0.000 N 
ENDROOT
BRANCH   5   7
ATOM      7  C   UNL     1       4.069   4.662  18.173  0.00  0.00    +0.000 A 
ATOM      8  C   UNL     1       4.496   4.253  16.889  0.00  0.00    +0.000 A 
ATOM      9  C   UNL     1       5.849   4.208  16.531  0.00  0.00    +0.000 A 
ATOM     10  C   UNL     1       6.814   4.569  17.458  0.00  0.00    +0.000 A 
ATOM     11  F   UNL     1       8.109   4.525  17.119  0.00  0.00    +0.000 F 
ATOM     12  C   UNL     1       6.449   4.972  18.731  0.00  0.00    +0.000 A 
ATOM     13  C   UNL     1       5.095   5.019  19.081  0.00  0.00    +0.000 A 
ENDBRANCH   5   7
BRANCH   6  14
ATOM     14  N   UNL     1       2.657   6.572  20.167  0.00  0.00    +0.000 N 
ATOM     15  H   UNL     1       3.661   6.576  19.977  0.00  0.00    +0.000 HD
BRANCH  14  16
ATOM     16  C   UNL     1       2.070   7.762  19.616  0.00  0.00    +0.000 A 
ATOM     17  C   UNL     1       2.174   8.076  18.256  0.00  0.00    +0.000 A 
ATOM     18  C   UNL     1       1.549   9.208  17.774  0.00  0.00    +0.000 A 
ATOM     19  N   UNL     1       0.814  10.038  18.536  0.00  0.00    +0.000 NA
ATOM     20  C   UNL     1       0.665   9.733  19.831  0.00  0.00    +0.000 A 
ATOM     21  C   UNL     1      -0.136  10.571  20.589  0.00  0.00    +0.000 A 
ATOM     22  C   UNL     1      -0.356  10.331  21.940  0.00  0.00    +0.000 A 
ATOM     23 CL   UNL     1      -1.370  11.387  22.846  0.00  0.00    +0.000 Cl
ATOM     24  C   UNL     1       0.221   9.231  22.562  0.00  0.00    +0.000 A 
ATOM     25  C   UNL     1       1.030   8.373  21.816  0.00  0.00    +0.000 A 
ATOM     26  C   UNL     1       1.270   8.603  20.439  0.00  0.00    +0.000 A 
ENDBRANCH  14  16
ENDBRANCH   6  14
TORSDOF 3
ENDMDL
MODEL 2
REMARK VINA RESULT:      -8.9      1.094      1.113
REMARK  Name = 
REMARK  3 active torsions:
REMARK  status: ('A' for Active; 'I' for Inactive)
REMARK    1  A    between atoms: C_5  and  C_6
REMARK    2  A    between atoms: N_13  and  N_14
REMARK    3  A    between atoms: N_14  and  C_15
REMARK                            x       y       z     vdW  Elec       q    Type
REMARK                         _______ _______ _______ _____ _____    ______ ____
ROOT
ATOM      1  O   UNL     1       2.357   4.288  21.630  0.00  0.00    +0.000 OA
ATOM      2  C   UNL     1       2.246   4.611  20.470  0.00  0.00    +0.000 C 
ATOM      3  C   UNL     1       2.386   3.928  19.079  0.00  0.00    +0.000 C 
ATOM      4 CL   UNL     1       0.874   3.151  18.486  0.00  0.00    +0.000 Cl
ATOM      5  C   UNL     1       2.737   5.387  18.616  0.00  0.00    +0.000 C 
ATOM      6  N   UNL     1       2.000   5.812  19.839  0.00  0.00    +0.000 N 
ENDROOT
BRANCH   5   7
ATOM      7  C   UNL     1       4.298   5.741  18.449  0.00  0.00    +0.000 A 
ATOM      8  C   UNL     1       4.738   6.585  17.403  0.00  0.00    +0.000 A 
ATOM      9  C   UNL     1       6.091   6.883  17.204  0.00  0.00    +0.000 A 
ATOM     10  C   UNL     1       7.043   6.337  18.050  0.00  0.00    +0.000 A 
ATOM     11  F   UNL     1       8.339   6.620  17.860  0.00  0.00    +0.000 F 
ATOM     12  C   UNL     1       6.666   5.500  19.086  0.00  0.00    +0.000 A 
ATOM     13  C   UNL     1       5.311   5.209  19.282  0.00  0.00    +0.000 A 
ENDBRANCH   5   7
BRANCH   6  14
ATOM     14  N   UNL     1       2.328   7.007  20.482  0.00  0.00    +0.000 N 
ATOM     15  H   UNL     1       3.335   7.171  20.529  0.00  0.00    +0.000 HD
BRANCH  14  16
ATOM     16  C   UNL     1       1.688   8.168  19.926  0.00  0.00    +0.000 A 
ATOM     17  C   UNL     1       1.746   8.459  18.558  0.00  0.00    +0.000 A 
ATOM     18  C   UNL     1       1.072   9.562  18.074  0.00  0.00    +0.000 A 
ATOM     19  N   UNL     1       0.333  10.383  18.840  0.00  0.00    +0.000 NA
ATOM     20  C   UNL     1       0.229  10.099  20.144  0.00  0.00    +0.000 A 
ATOM     21  C   UNL     1      -0.576  10.927  20.908  0.00  0.00    +0.000 A 
ATOM     22  C   UNL     1      -0.752  10.706  22.270  0.00  0.00    +0.000 A 
ATOM     23 CL   UNL     1      -1.773  11.747  23.184  0.00  0.00    +0.000 Cl
ATOM     24  C   UNL     1      -0.124   9.636  22.895  0.00  0.00    +0.000 A 
ATOM     25  C   UNL     1       0.691   8.789  22.143  0.00  0.00    +0.000 A 
ATOM     26  C   UNL     1       0.885   9.000  20.756  0.00  0.00    +0.000 A 
ENDBRANCH  14  16
ENDBRANCH   6  14
TORSDOF 3
ENDMDL
MODEL 3
REMARK VINA RESULT:      -8.5      3.502      7.432
REMARK  Name = 
REMARK  3 active torsions:
REMARK  status: ('A' for Active; 'I' for Inactive)
REMARK    1  A    between atoms: C_5  and  C_6
REMARK    2  A    between atoms: N_13  and  N_14
REMARK    3  A    between atoms: N_14  and  C_15
REMARK                            x       y       z     vdW  Elec       q    Type
REMARK                         _______ _______ _______ _____ _____    ______ ____
ROOT
ATOM      1  O   UNL     1       0.995   3.215  18.360  0.00  0.00    +0.000 OA
ATOM      2  C   UNL     1       1.787   3.791  19.069  0.00  0.00    +0.000 C 
ATOM      3  C   UNL     1       1.823   4.345  20.522  0.00  0.00    +0.000 C 
ATOM      4 CL   UNL     1       2.357   3.146  21.753  0.00  0.00    +0.000 Cl
ATOM      5  C   UNL     1       2.871   5.341  19.908  0.00  0.00    +0.000 C 
ATOM      6  N   UNL     1       3.053   4.297  18.860  0.00  0.00    +0.000 N 
ENDROOT
BRANCH   5   7
ATOM      7  C   UNL     1       2.337   6.804  19.507  0.00  0.00    +0.000 A 
ATOM      8  C   UNL     1       1.715   7.634  20.468  0.00  0.00    +0.000 A 
ATOM      9  C   UNL     1       1.203   8.896  20.145  0.00  0.00    +0.000 A 
ATOM     10  C   UNL     1       1.298   9.360  18.843  0.00  0.00    +0.000 A 
ATOM     11  F   UNL     1       0.807  10.567  18.531  0.00  0.00    +0.000 F 
ATOM     12  C   UNL     1       1.893   8.585  17.862  0.00  0.00    +0.000 A 
ATOM     13  C   UNL     1       2.406   7.325  18.193  0.00  0.00    +0.000 A 
ENDBRANCH   5   7
BRANCH   6  14
ATOM     14  N   UNL     1       3.448   4.653  17.569  0.00  0.00    +0.000 N 
ATOM     15  H   UNL     1       3.031   5.531  17.253  0.00  0.00    +0.000 HD
BRANCH  14  16
ATOM     16  C   UNL     1       4.873   4.718  17.388  0.00  0.00    +0.000 A 
ATOM     17  C   UNL     1       5.753   4.794  18.473  0.00  0.00    +0.000 A 
ATOM     18  C   UNL     1       7.113   4.805  18.240  0.00  0.00    +0.000 A 
ATOM     19  N   UNL     1       7.663   4.727  17.015  0.00  0.00    +0.000 NA
ATOM     20  C   UNL     1       6.840   4.609  15.965  0.00  0.00    +0.000 A 
ATOM     21  C   UNL     1       7.424   4.480  14.717  0.00  0.00    +0.000 A 
ATOM     22  C   UNL     1       6.651   4.345  13.569  0.00  0.00    +0.000 A 
ATOM     23 CL   UNL     1       7.414   4.171  12.036  0.00  0.00    +0.000 Cl
ATOM     24  C   UNL     1       5.266   4.328  13.653  0.00  0.00    +0.000 A 
ATOM     25  C   UNL     1       4.655   4.456  14.902  0.00  0.00    +0.000 A 
ATOM     26  C   UNL     1       5.426   4.599  16.082  0.00  0.00    +0.000 A 
ENDBRANCH  14  16
ENDBRANCH   6  14
TORSDOF 3
ENDMDL
MODEL 4
REMARK VINA RESULT:      -8.4      0.884      1.090
REMARK  Name = 
REMARK  3 active torsions:
REMARK  status: ('A' for Active; 'I' for Inactive)
REMARK    1  A    between atoms: C_5  and  C_6
REMARK    2  A    between atoms: N_13  and  N_14
REMARK    3  A    between atoms: N_14  and  C_15
REMARK                            x       y       z     vdW  Elec       q    Type
REMARK                         _______ _______ _______ _____ _____    ______ ____
ROOT
ATOM      1  O   UNL     1       2.816   4.387  21.432  0.00  0.00    +0.000 OA
ATOM      2  C   UNL     1       2.352   4.524  20.325  0.00  0.00    +0.000 C 
ATOM      3  C   UNL     1       1.922   3.603  19.146  0.00  0.00    +0.000 C 
ATOM      4 CL   UNL     1       0.218   3.031  19.244  0.00  0.00    +0.000 Cl
ATOM      5  C   UNL     1       2.262   4.873  18.287  0.00  0.00    +0.000 C 
ATOM      6  N   UNL     1       2.047   5.627  19.554  0.00  0.00    +0.000 N 
ENDROOT
BRANCH   5   7
ATOM      7  C   UNL     1       3.700   4.899  17.565  0.00  0.00    +0.000 A 
ATOM      8  C   UNL     1       4.369   6.123  17.335  0.00  0.00    +0.000 A 
ATOM      9  C   UNL     1       5.602   6.187  16.675  0.00  0.00    +0.000 A 
ATOM     10  C   UNL     1       6.197   5.019  16.223  0.00  0.00    +0.000 A 
ATOM     11  F   UNL     1       7.376   5.078  15.589  0.00  0.00    +0.000 F 
ATOM     12  C   UNL     1       5.580   3.795  16.417  0.00  0.00    +0.000 A 
ATOM     13  C   UNL     1       4.349   3.739  17.081  0.00  0.00    +0.000 A 
ENDBRANCH   5   7
BRANCH   6  14
ATOM     14  N   UNL     1       2.716   6.832  19.782  0.00  0.00    +0.000 N 
ATOM     15  H   UNL     1       3.644   6.859  19.355  0.00  0.00    +0.000 HD
BRANCH  14  16
ATOM     16  C   UNL     1       1.978   7.998  19.379  0.00  0.00    +0.000 A 
ATOM     17  C   UNL     1       1.898   8.395  18.039  0.00  0.00    +0.000 A 
ATOM     18  C   UNL     1       1.135   9.496  17.706  0.00  0.00    +0.000 A 
ATOM     19  N   UNL     1       0.434  10.218  18.598  0.00  0.00    +0.000 NA
ATOM     20  C   UNL     1       0.462   9.830  19.879  0.00  0.00    +0.000 A 
ATOM     21  C   UNL     1      -0.306  10.555  20.775  0.00  0.00    +0.000 A 
ATOM     22  C   UNL     1      -0.346  10.222  22.125  0.00  0.00    +0.000 A 
ATOM     23 CL   UNL     1      -1.324  11.137  23.205  0.00  0.00    +0.000 Cl
ATOM     24  C   UNL     1       0.382   9.141  22.604  0.00  0.00    +0.000 A 
ATOM     25  C   UNL     1       1.161   8.396  21.718  0.00  0.00    +0.000 A 
ATOM     26  C   UNL     1       1.219   8.722  20.340  0.00  0.00    +0.000 A 
ENDBRANCH  14  16
ENDBRANCH   6  14
TORSDOF 3
ENDMDL
MODEL 5
REMARK VINA RESULT:      -8.4      1.231      1.553
REMARK  Name = 
REMARK  3 active torsions:
REMARK  status: ('A' for Active; 'I' for Inactive)
REMARK    1  A    between atoms: C_5  and  C_6
REMARK    2  A    between atoms: N_13  and  N_14
REMARK    3  A    between atoms: N_14  and  C_15
REMARK                            x       y       z     vdW  Elec       q    Type
REMARK                         _______ _______ _______ _____ _____    ______ ____
ROOT
ATOM      1  O   UNL     1       2.783   3.814  21.016  0.00  0.00    +0.000 OA
ATOM      2  C   UNL     1       2.780   4.253  19.890  0.00  0.00    +0.000 C 
ATOM      3  C   UNL     1       3.147   3.742  18.466  0.00  0.00    +0.000 C 
ATOM      4 CL   UNL     1       1.797   2.915  17.611  0.00  0.00    +0.000 Cl
ATOM      5  C   UNL     1       3.410   5.268  18.200  0.00  0.00    +0.000 C 
ATOM      6  N   UNL     1       2.496   5.493  19.356  0.00  0.00    +0.000 N 
ENDROOT
BRANCH   5   7
ATOM      7  C   UNL     1       4.939   5.766  18.270  0.00  0.00    +0.000 A 
ATOM      8  C   UNL     1       5.817   5.260  19.255  0.00  0.00    +0.000 A 
ATOM      9  C   UNL     1       7.142   5.700  19.370  0.00  0.00    +0.000 A 
ATOM     10  C   UNL     1       7.621   6.665  18.498  0.00  0.00    +0.000 A 
ATOM     11  F   UNL     1       8.886   7.088  18.607  0.00  0.00    +0.000 F 
ATOM     12  C   UNL     1       6.799   7.196  17.518  0.00  0.00    +0.000 A 
ATOM     13  C   UNL     1       5.477   6.750  17.407  0.00  0.00    +0.000 A 
ENDBRANCH   5   7
BRANCH   6  14
ATOM     14  N   UNL     1       2.631   6.633  20.152  0.00  0.00    +0.000 N 
ATOM     15  H   UNL     1       3.603   6.838  20.391  0.00  0.00    +0.000 HD
BRANCH  14  16
ATOM     16  C   UNL     1       2.024   7.811  19.597  0.00  0.00    +0.000 A 
ATOM     17  C   UNL     1       2.061   8.085  18.224  0.00  0.00    +0.000 A 
ATOM     18  C   UNL     1       1.419   9.208  17.743  0.00  0.00    +0.000 A 
ATOM     19  N   UNL     1       0.730  10.066  18.516  0.00  0.00    +0.000 NA
ATOM     20  C   UNL     1       0.645   9.799  19.826  0.00  0.00    +0.000 A 
ATOM     21  C   UNL     1      -0.110  10.665  20.599  0.00  0.00    +0.000 A 
ATOM     22  C   UNL     1      -0.262  10.466  21.967  0.00  0.00    +0.000 A 
ATOM     23 CL   UNL     1      -1.221  11.555  22.892  0.00  0.00    +0.000 Cl
ATOM     24  C   UNL     1       0.339   9.379  22.589  0.00  0.00    +0.000 A 
ATOM     25  C   UNL     1       1.103   8.493  21.829  0.00  0.00    +0.000 A 
ATOM     26  C   UNL     1       1.273   8.682  20.435  0.00  0.00    +0.000 A 
ENDBRANCH  14  16
ENDBRANCH   6  14
TORSDOF 3
ENDMDL
MODEL 6
REMARK VINA RESULT:      -8.2      3.532      7.498
REMARK  Name = 
REMARK  3 active torsions:
REMARK  status: ('A' for Active; 'I' for Inactive)
REMARK    1  A    between atoms: C_5  and  C_6
REMARK    2  A    between atoms: N_13  and  N_14
REMARK    3  A    between atoms: N_14  and  C_15
REMARK                            x       y       z     vdW  Elec       q    Type
REMARK                         _______ _______ _______ _____ _____    ______ ____
ROOT
ATOM      1  O   UNL     1       1.314   3.691  17.978  0.00  0.00    +0.000 OA
ATOM      2  C   UNL     1       1.961   4.251  18.832  0.00  0.00    +0.000 C 
ATOM      3  C   UNL     1       1.790   4.618  20.335  0.00  0.00    +0.000 C 
ATOM      4 CL   UNL     1       2.336   3.333  21.472  0.00  0.00    +0.000 Cl
ATOM      5  C   UNL     1       2.772   5.785  19.961  0.00  0.00    +0.000 C 
ATOM      6  N   UNL     1       3.175   4.907  18.826  0.00  0.00    +0.000 N 
ENDROOT
BRANCH   5   7
ATOM      7  C   UNL     1       2.113   7.225  19.674  0.00  0.00    +0.000 A 
ATOM      8  C   UNL     1       2.227   7.829  18.401  0.00  0.00    +0.000 A 
ATOM      9  C   UNL     1       1.701   9.097  18.127  0.00  0.00    +0.000 A 
ATOM     10  C   UNL     1       1.048   9.798  19.128  0.00  0.00    +0.000 A 
ATOM     11  F   UNL     1       0.545  11.012  18.869  0.00  0.00    +0.000 F 
ATOM     12  C   UNL     1       0.913   9.254  20.394  0.00  0.00    +0.000 A 
ATOM     13  C   UNL     1       1.439   7.984  20.660  0.00  0.00    +0.000 A 
ENDBRANCH   5   7
BRANCH   6  14
ATOM     14  N   UNL     1       3.651   5.463  17.637  0.00  0.00    +0.000 N 
ATOM     15  H   UNL     1       3.462   6.465  17.562  0.00  0.00    +0.000 HD
BRANCH  14  16
ATOM     16  C   UNL     1       5.048   5.228  17.396  0.00  0.00    +0.000 A 
ATOM     17  C   UNL     1       5.991   5.257  18.431  0.00  0.00    +0.000 A 
ATOM     18  C   UNL     1       7.312   4.976  18.148  0.00  0.00    +0.000 A 
ATOM     19  N   UNL     1       7.762   4.651  16.923  0.00  0.00    +0.000 NA
ATOM     20  C   UNL     1       6.870   4.574  15.927  0.00  0.00    +0.000 A 
ATOM     21  C   UNL     1       7.343   4.189  14.684  0.00  0.00    +0.000 A 
ATOM     22  C   UNL     1       6.491   4.073  13.592  0.00  0.00    +0.000 A 
ATOM     23 CL   UNL     1       7.113   3.577  12.066  0.00  0.00    +0.000 Cl
ATOM     24  C   UNL     1       5.134   4.336  13.729  0.00  0.00    +0.000 A 
ATOM     25  C   UNL     1       4.636   4.725  14.973  0.00  0.00    +0.000 A 
ATOM     26  C   UNL     1       5.489   4.852  16.097  0.00  0.00    +0.000 A 
ENDBRANCH  14  16
ENDBRANCH   6  14
TORSDOF 3
ENDMDL
MODEL 7
REMARK VINA RESULT:      -7.7      3.351      5.191
REMARK  Name = 
REMARK  3 active torsions:
REMARK  status: ('A' for Active; 'I' for Inactive)
REMARK    1  A    between atoms: C_5  and  C_6
REMARK    2  A    between atoms: N_13  and  N_14
REMARK    3  A    between atoms: N_14  and  C_15
REMARK                            x       y       z     vdW  Elec       q    Type
REMARK                         _______ _______ _______ _____ _____    ______ ____
ROOT
ATOM      1  O   UNL     1       7.144   8.289  17.286  0.00  0.00    +0.000 OA
ATOM      2  C   UNL     1       6.944   7.117  17.501  0.00  0.00    +0.000 C 
ATOM      3  C   UNL     1       7.797   5.825  17.657  0.00  0.00    +0.000 C 
ATOM      4 CL   UNL     1       8.369   5.520  19.336  0.00  0.00    +0.000 Cl
ATOM      5  C   UNL     1       6.482   5.130  17.151  0.00  0.00    +0.000 C 
ATOM      6  N   UNL     1       5.799   6.360  17.642  0.00  0.00    +0.000 N 
ENDROOT
BRANCH   5   7
ATOM      7  C   UNL     1       6.420   4.739  15.591  0.00  0.00    +0.000 A 
ATOM      8  C   UNL     1       5.355   3.959  15.085  0.00  0.00    +0.000 A 
ATOM      9  C   UNL     1       5.289   3.567  13.743  0.00  0.00    +0.000 A 
ATOM     10  C   UNL     1       6.296   3.945  12.869  0.00  0.00    +0.000 A 
ATOM     11  F   UNL     1       6.237   3.570  11.585  0.00  0.00    +0.000 F 
ATOM     12  C   UNL     1       7.365   4.705  13.316  0.00  0.00    +0.000 A 
ATOM     13  C   UNL     1       7.423   5.096  14.658  0.00  0.00    +0.000 A 
ENDBRANCH   5   7
BRANCH   6  14
ATOM     14  N   UNL     1       4.611   6.792  17.049  0.00  0.00    +0.000 N 
ATOM     15  H   UNL     1       4.261   6.145  16.341  0.00  0.00    +0.000 HD
BRANCH  14  16
ATOM     16  C   UNL     1       3.558   7.079  17.986  0.00  0.00    +0.000 A 
ATOM     17  C   UNL     1       2.869   8.297  17.972  0.00  0.00    +0.000 A 
ATOM     18  C   UNL     1       1.836   8.498  18.864  0.00  0.00    +0.000 A 
ATOM     19  N   UNL     1       1.425   7.577  19.753  0.00  0.00    +0.000 NA
ATOM     20  C   UNL     1       2.042   6.388  19.754  0.00  0.00    +0.000 A 
ATOM     21  C   UNL     1       1.573   5.434  20.641  0.00  0.00    +0.000 A 
ATOM     22  C   UNL     1       2.145   4.169  20.709  0.00  0.00    +0.000 A 
ATOM     23 CL   UNL     1       1.524   3.004  21.814  0.00  0.00    +0.000 Cl
ATOM     24  C   UNL     1       3.202   3.830  19.875  0.00  0.00    +0.000 A 
ATOM     25  C   UNL     1       3.690   4.776  18.973  0.00  0.00    +0.000 A 
ATOM     26  C   UNL     1       3.123   6.072  18.892  0.00  0.00    +0.000 A 
ENDBRANCH  14  16
ENDBRANCH   6  14
TORSDOF 3
ENDMDL
MODEL 8
REMARK VINA RESULT:      -7.7      3.943      7.666
REMARK  Name = 
REMARK  3 active torsions:
REMARK  status: ('A' for Active; 'I' for Inactive)
REMARK    1  A    between atoms: C_5  and  C_6
REMARK    2  A    between atoms: N_13  and  N_14
REMARK    3  A    between atoms: N_14  and  C_15
REMARK                            x       y       z     vdW  Elec       q    Type
REMARK                         _______ _______ _______ _____ _____    ______ ____
ROOT
ATOM      1  O   UNL     1       0.552  10.557  22.280  0.00  0.00    +0.000 OA
ATOM      2  C   UNL     1       0.816  10.888  21.148  0.00  0.00    +0.000 C 
ATOM      3  C   UNL     1       0.794  12.198  20.309  0.00  0.00    +0.000 C 
ATOM      4 CL   UNL     1       2.312  13.160  20.409  0.00  0.00    +0.000 Cl
ATOM      5  C   UNL     1       0.592  11.199  19.114  0.00  0.00    +0.000 C 
ATOM      6  N   UNL     1       1.209  10.192  20.024  0.00  0.00    +0.000 N 
ENDROOT
BRANCH   5   7
ATOM      7  C   UNL     1      -0.914  10.994  18.584  0.00  0.00    +0.000 A 
ATOM      8  C   UNL     1      -1.192  10.090  17.533  0.00  0.00    +0.000 A 
ATOM      9  C   UNL     1      -2.483   9.916  17.021  0.00  0.00    +0.000 A 
ATOM     10  C   UNL     1      -3.533  10.649  17.549  0.00  0.00    +0.000 A 
ATOM     11  F   UNL     1      -4.769  10.486  17.059  0.00  0.00    +0.000 F 
ATOM     12  C   UNL     1      -3.314  11.551  18.576  0.00  0.00    +0.000 A 
ATOM     13  C   UNL     1      -2.021  11.718  19.086  0.00  0.00    +0.000 A 
ENDBRANCH   5   7
BRANCH   6  14
ATOM     14  N   UNL     1       0.885   8.839  19.903  0.00  0.00    +0.000 N 
ATOM     15  H   UNL     1      -0.051   8.686  19.522  0.00  0.00    +0.000 HD
BRANCH  14  16
ATOM     16  C   UNL     1       1.834   8.073  19.143  0.00  0.00    +0.000 A 
ATOM     17  C   UNL     1       2.539   8.627  18.068  0.00  0.00    +0.000 A 
ATOM     18  C   UNL     1       3.474   7.858  17.406  0.00  0.00    +0.000 A 
ATOM     19  N   UNL     1       3.773   6.590  17.741  0.00  0.00    +0.000 NA
ATOM     20  C   UNL     1       3.141   6.054  18.794  0.00  0.00    +0.000 A 
ATOM     21  C   UNL     1       3.498   4.766  19.155  0.00  0.00    +0.000 A 
ATOM     22  C   UNL     1       2.903   4.130  20.239  0.00  0.00    +0.000 A 
ATOM     23 CL   UNL     1       3.384   2.534  20.667  0.00  0.00    +0.000 Cl
ATOM     24  C   UNL     1       1.936   4.783  20.992  0.00  0.00    +0.000 A 
ATOM     25  C   UNL     1       1.562   6.082  20.646  0.00  0.00    +0.000 A 
ATOM     26  C   UNL     1       2.154   6.745  19.543  0.00  0.00    +0.000 A 
ENDBRANCH  14  16
ENDBRANCH   6  14
TORSDOF 3
ENDMDL
MODEL 9
REMARK VINA RESULT:      -7.5      3.431      5.248
REMARK  Name = 
REMARK  3 active torsions:
REMARK  status: ('A' for Active; 'I' for Inactive)
REMARK    1  A    between atoms: C_5  and  C_6
REMARK    2  A    between atoms: N_13  and  N_14
REMARK    3  A    between atoms: N_14  and  C_15
REMARK                            x       y       z     vdW  Elec       q    Type
REMARK                         _______ _______ _______ _____ _____    ______ ____
ROOT
ATOM      1  O   UNL     1       5.494   7.521  17.338  0.00  0.00    +0.000 OA
ATOM      2  C   UNL     1       6.002   6.425  17.372  0.00  0.00    +0.000 C 
ATOM      3  C   UNL     1       7.443   5.836  17.380  0.00  0.00    +0.000 C 
ATOM      4 CL   UNL     1       8.159   5.668  19.023  0.00  0.00    +0.000 Cl
ATOM      5  C   UNL     1       6.732   4.602  16.718  0.00  0.00    +0.000 C 
ATOM      6  N   UNL     1       5.495   5.143  17.348  0.00  0.00    +0.000 N 
ENDROOT
BRANCH   5   7
ATOM      7  C   UNL     1       6.835   4.476  15.117  0.00  0.00    +0.000 A 
ATOM      8  C   UNL     1       7.746   5.275  14.388  0.00  0.00    +0.000 A 
ATOM      9  C   UNL     1       7.834   5.220  12.992  0.00  0.00    +0.000 A 
ATOM     10  C   UNL     1       7.005   4.362  12.286  0.00  0.00    +0.000 A 
ATOM     11  F   UNL     1       7.086   4.310  10.951  0.00  0.00    +0.000 F 
ATOM     12  C   UNL     1       6.092   3.563  12.952  0.00  0.00    +0.000 A 
ATOM     13  C   UNL     1       6.011   3.620  14.349  0.00  0.00    +0.000 A 
ENDBRANCH   5   7
BRANCH   6  14
ATOM     14  N   UNL     1       4.246   4.907  16.769  0.00  0.00    +0.000 N 
ATOM     15  H   UNL     1       4.296   4.305  15.945  0.00  0.00    +0.000 HD
BRANCH  14  16
ATOM     16  C   UNL     1       3.266   4.379  17.679  0.00  0.00    +0.000 A 
ATOM     17  C   UNL     1       2.979   3.011  17.743  0.00  0.00    +0.000 A 
ATOM     18  C   UNL     1       2.064   2.556  18.670  0.00  0.00    +0.000 A 
ATOM     19  N   UNL     1       1.428   3.353  19.548  0.00  0.00    +0.000 NA
ATOM     20  C   UNL     1       1.721   4.660  19.533  0.00  0.00    +0.000 A 
ATOM     21  C   UNL     1       1.095   5.458  20.476  0.00  0.00    +0.000 A 
ATOM     22  C   UNL     1       1.341   6.825  20.543  0.00  0.00    +0.000 A 
ATOM     23 CL   UNL     1       0.556   7.781  21.739  0.00  0.00    +0.000 Cl
ATOM     24  C   UNL     1       2.234   7.421  19.663  0.00  0.00    +0.000 A 
ATOM     25  C   UNL     1       2.877   6.636  18.704  0.00  0.00    +0.000 A 
ATOM     26  C   UNL     1       2.636   5.243  18.618  0.00  0.00    +0.000 A 
ENDBRANCH  14  16
ENDBRANCH   6  14
TORSDOF 3
ENDMDL
