MODEL 1
REMARK VINA RESULT:      -9.2      0.000      0.000
REMARK  Name = 
REMARK  9 active torsions:
REMARK  status: ('A' for Active; 'I' for Inactive)
REMARK    1  A    between atoms: N_1  and  C_2
REMARK    2  A    between atoms: N_10  and  C_11
REMARK    3  A    between atoms: C_13  and  C_14
REMARK    4  A    between atoms: C_14  and  N_15
REMARK    5  A    between atoms: N_15  and  C_16
REMARK    6  A    between atoms: C_17  and  N_18
REMARK    7  A    between atoms: N_18  and  C_19
REMARK    8  A    between atoms: C_28  and  O_29
REMARK    9  A    between atoms: C_30  and  O_31
REMARK                            x       y       z     vdW  Elec       q    Type
REMARK                         _______ _______ _______ _____ _____    ______ ____
ROOT
ATOM      1  C   UNL     1       2.637   5.500  20.005  0.00  0.00    +0.000 C 
ATOM      2  O   UNL     1       4.024   5.179  19.782  0.00  0.00    +0.000 OA
ATOM      3  C   UNL     1       4.131   3.765  19.465  0.00  0.00    +0.000 C 
ATOM      4  C   UNL     1       2.747   3.155  19.716  0.00  0.00    +0.000 C 
ATOM      5  C   UNL     1       1.791   4.322  19.533  0.00  0.00    +0.000 C 
ENDROOT
BRANCH   1  14
ATOM      6  C   UNL     1       1.121  10.041  19.251  0.00  0.00    +0.000 A 
ATOM      7  N   UNL     1       0.634  10.222  20.500  0.00  0.00    +0.000 NA
ATOM      8  C   UNL     1       0.716   9.198  21.375  0.00  0.00    +0.000 A 
ATOM      9  N   UNL     1       1.242   7.972  21.180  0.00  0.00    +0.000 NA
ATOM     10  C   UNL     1       1.706   7.842  19.926  0.00  0.00    +0.000 A 
ATOM     11  C   UNL     1       1.695   8.802  18.928  0.00  0.00    +0.000 A 
ATOM     12  N   UNL     1       2.284   8.319  17.776  0.00  0.00    +0.000 NA
ATOM     13  C   UNL     1       2.649   7.091  18.076  0.00  0.00    +0.000 A 
ATOM     14  N   UNL     1       2.312   6.755  19.361  0.00  0.00    +0.000 N 
BRANCH   6  15
ATOM     15  N   UNL     1       1.034  11.080  18.354  0.00  0.00    +0.000 N 
ATOM     16  H   UNL     1       0.619  11.944  18.661  0.00  0.00    +0.000 HD
ATOM     17  H   UNL     1       1.488  10.986  17.457  0.00  0.00    +0.000 HD
ENDBRANCH   6  15
ENDBRANCH   1  14
BRANCH   4  18
ATOM     18  O   UNL     1       2.612   2.670  21.067  0.00  0.00    +0.000 OA
ATOM     19  H   UNL     1       3.425   2.200  21.328  0.00  0.00    +0.000 HD
ENDBRANCH   4  18
BRANCH   5  20
ATOM     20  O   UNL     1       0.597   4.187  20.307  0.00  0.00    +0.000 OA
ATOM     21  H   UNL     1      -0.030   4.871  19.993  0.00  0.00    +0.000 HD
ENDBRANCH   5  20
BRANCH   3  22
ATOM     22  C   UNL     1       4.638   3.593  18.013  0.00  0.00    +0.000 C 
BRANCH  22  23
ATOM     23  N   UNL     1       6.115   3.706  17.970  0.00  0.00    +0.000 N 
ATOM     24  H   UNL     1       6.492   2.950  17.386  0.00  0.00    +0.000 HD
BRANCH  23  25
ATOM     25  C   UNL     1       6.693   4.890  17.943  0.00  0.00    +0.000 C 
ATOM     26  C   UNL     1       7.083   5.834  17.022  0.00  0.00    +0.000 C 
ATOM     27  C   UNL     1       7.740   6.661  18.052  0.00  0.00    +0.000 C 
ATOM     28  O   UNL     1       8.376   7.690  18.149  0.00  0.00    +0.000 OA
ATOM     29  C   UNL     1       7.232   5.702  19.075  0.00  0.00    +0.000 C 
ATOM     30  O   UNL     1       7.370   5.609  20.268  0.00  0.00    +0.000 OA
BRANCH  26  31
ATOM     31  N   UNL     1       6.986   5.996  15.717  0.00  0.00    +0.000 N 
ATOM     32  H   UNL     1       6.577   6.832  15.314  0.00  0.00    +0.000 HD
BRANCH  31  33
ATOM     33  C   UNL     1       7.069   4.857  14.798  0.00  0.00    +0.000 C 
ATOM     34  C   UNL     1       5.680   4.340  14.417  0.00  0.00    +0.000 C 
ATOM     35  C   UNL     1       5.892   3.632  13.084  0.00  0.00    +0.000 C 
ATOM     36  C   UNL     1       7.091   4.312  12.433  0.00  0.00    +0.000 C 
ATOM     37  C   UNL     1       7.665   5.277  13.462  0.00  0.00    +0.000 C 
ENDBRANCH  31  33
ENDBRANCH  26  31
ENDBRANCH  23  25
ENDBRANCH  22  23
ENDBRANCH   3  22
TORSDOF 9
ENDMDL
MODEL 2
REMARK VINA RESULT:      -8.6      0.844      1.711
REMARK  Name = 
REMARK  9 active torsions:
REMARK  status: ('A' for Active; 'I' for Inactive)
REMARK    1  A    between atoms: N_1  and  C_2
REMARK    2  A    between atoms: N_10  and  C_11
REMARK    3  A    between atoms: C_13  and  C_14
REMARK    4  A    between atoms: C_14  and  N_15
REMARK    5  A    between atoms: N_15  and  C_16
REMARK    6  A    between atoms: C_17  and  N_18
REMARK    7  A    between atoms: N_18  and  C_19
REMARK    8  A    between atoms: C_28  and  O_29
REMARK    9  A    between atoms: C_30  and  O_31
REMARK                            x       y       z     vdW  Elec       q    Type
REMARK                         _______ _______ _______ _____ _____    ______ ____
ROOT
ATOM      1  C   UNL     1       2.405   4.937  20.410  0.00  0.00    +0.000 C 
ATOM      2  O   UNL     1       3.763   4.646  20.021  0.00  0.00    +0.000 OA
ATOM      3  C   UNL     1       3.785   3.377  19.316  0.00  0.00    +0.000 C 
ATOM      4  C   UNL     1       2.387   2.766  19.470  0.00  0.00    +0.000 C 
ATOM      5  C   UNL     1       1.481   3.968  19.679  0.00  0.00    +0.000 C 
ENDROOT
BRANCH   1  14
ATOM      6  C   UNL     1       2.049   9.266  18.259  0.00  0.00    +0.000 A 
ATOM      7  N   UNL     1       2.746   8.917  17.153  0.00  0.00    +0.000 NA
ATOM      8  C   UNL     1       3.240   7.664  17.077  0.00  0.00    +0.000 A 
ATOM      9  N   UNL     1       3.130   6.665  17.975  0.00  0.00    +0.000 NA
ATOM     10  C   UNL     1       2.435   7.062  19.053  0.00  0.00    +0.000 A 
ATOM     11  C   UNL     1       1.867   8.307  19.268  0.00  0.00    +0.000 A 
ATOM     12  N   UNL     1       1.205   8.343  20.479  0.00  0.00    +0.000 NA
ATOM     13  C   UNL     1       1.366   7.138  20.984  0.00  0.00    +0.000 A 
ATOM     14  N   UNL     1       2.111   6.333  20.163  0.00  0.00    +0.000 N 
BRANCH   6  15
ATOM     15  N   UNL     1       1.549  10.545  18.346  0.00  0.00    +0.000 N 
ATOM     16  H   UNL     1       0.977  10.782  19.139  0.00  0.00    +0.000 HD
ATOM     17  H   UNL     1       1.862  11.234  17.677  0.00  0.00    +0.000 HD
ENDBRANCH   6  15
ENDBRANCH   1  14
BRANCH   4  18
ATOM     18  O   UNL     1       2.294   1.925  20.636  0.00  0.00    +0.000 OA
ATOM     19  H   UNL     1       2.055   1.018  20.367  0.00  0.00    +0.000 HD
ENDBRANCH   4  18
BRANCH   5  20
ATOM     20  O   UNL     1       0.320   3.660  20.455  0.00  0.00    +0.000 OA
ATOM     21  H   UNL     1      -0.284   3.148  19.880  0.00  0.00    +0.000 HD
ENDBRANCH   5  20
BRANCH   3  22
ATOM     22  C   UNL     1       4.211   3.605  17.846  0.00  0.00    +0.000 C 
BRANCH  22  23
ATOM     23  N   UNL     1       5.688   3.668  17.745  0.00  0.00    +0.000 N 
ATOM     24  H   UNL     1       6.018   2.889  17.163  0.00  0.00    +0.000 HD
BRANCH  23  25
ATOM     25  C   UNL     1       6.303   4.831  17.673  0.00  0.00    +0.000 C 
ATOM     26  C   UNL     1       6.702   5.737  16.718  0.00  0.00    +0.000 C 
ATOM     27  C   UNL     1       7.409   6.569  17.711  0.00  0.00    +0.000 C 
ATOM     28  O   UNL     1       8.079   7.580  17.765  0.00  0.00    +0.000 OA
ATOM     29  C   UNL     1       6.894   5.655  18.770  0.00  0.00    +0.000 C 
ATOM     30  O   UNL     1       7.056   5.590  19.962  0.00  0.00    +0.000 OA
BRANCH  26  31
ATOM     31  N   UNL     1       6.579   5.867  15.411  0.00  0.00    +0.000 N 
ATOM     32  H   UNL     1       6.034   6.617  15.002  0.00  0.00    +0.000 HD
BRANCH  31  33
ATOM     33  C   UNL     1       6.857   4.751  14.504  0.00  0.00    +0.000 C 
ATOM     34  C   UNL     1       5.566   4.130  13.966  0.00  0.00    +0.000 C 
ATOM     35  C   UNL     1       5.984   3.458  12.663  0.00  0.00    +0.000 C 
ATOM     36  C   UNL     1       7.191   4.240  12.154  0.00  0.00    +0.000 C 
ATOM     37  C   UNL     1       7.565   5.234  13.246  0.00  0.00    +0.000 C 
ENDBRANCH  31  33
ENDBRANCH  26  31
ENDBRANCH  23  25
ENDBRANCH  22  23
ENDBRANCH   3  22
TORSDOF 9
ENDMDL
MODEL 3
REMARK VINA RESULT:      -8.5      1.771      3.165
REMARK  Name = 
REMARK  9 active torsions:
REMARK  status: ('A' for Active; 'I' for Inactive)
REMARK    1  A    between atoms: N_1  and  C_2
REMARK    2  A    between atoms: N_10  and  C_11
REMARK    3  A    between atoms: C_13  and  C_14
REMARK    4  A    between atoms: C_14  and  N_15
REMARK    5  A    between atoms: N_15  and  C_16
REMARK    6  A    between atoms: C_17  and  N_18
REMARK    7  A    between atoms: N_18  and  C_19
REMARK    8  A    between atoms: C_28  and  O_29
REMARK    9  A    between atoms: C_30  and  O_31
REMARK                            x       y       z     vdW  Elec       q    Type
REMARK                         _______ _______ _______ _____ _____    ______ ____
ROOT
ATOM      1  C   UNL     1       3.219   5.204  19.762  0.00  0.00    +0.000 C 
ATOM      2  O   UNL     1       4.367   4.608  19.127  0.00  0.00    +0.000 OA
ATOM      3  C   UNL     1       4.140   3.178  19.000  0.00  0.00    +0.000 C 
ATOM      4  C   UNL     1       2.867   2.865  19.794  0.00  0.00    +0.000 C 
ATOM      5  C   UNL     1       2.094   4.174  19.783  0.00  0.00    +0.000 C 
ENDROOT
BRANCH   1  14
ATOM      6  C   UNL     1       1.437   9.622  18.868  0.00  0.00    +0.000 A 
ATOM      7  N   UNL     1       0.786   9.739  20.048  0.00  0.00    +0.000 NA
ATOM      8  C   UNL     1       0.844   8.707  20.916  0.00  0.00    +0.000 A 
ATOM      9  N   UNL     1       1.489   7.532  20.777  0.00  0.00    +0.000 NA
ATOM     10  C   UNL     1       2.114   7.464  19.590  0.00  0.00    +0.000 A 
ATOM     11  C   UNL     1       2.147   8.439  18.607  0.00  0.00    +0.000 A 
ATOM     12  N   UNL     1       2.912   8.029  17.533  0.00  0.00    +0.000 NA
ATOM     13  C   UNL     1       3.337   6.829  17.864  0.00  0.00    +0.000 A 
ATOM     14  N   UNL     1       2.874   6.441  19.094  0.00  0.00    +0.000 N 
BRANCH   6  15
ATOM     15  N   UNL     1       1.375  10.668  17.976  0.00  0.00    +0.000 N 
ATOM     16  H   UNL     1       1.468  10.466  16.994  0.00  0.00    +0.000 HD
ATOM     17  H   UNL     1       1.126  11.584  18.320  0.00  0.00    +0.000 HD
ENDBRANCH   6  15
ENDBRANCH   1  14
BRANCH   4  18
ATOM     18  O   UNL     1       3.159   2.527  21.164  0.00  0.00    +0.000 OA
ATOM     19  H   UNL     1       2.893   3.263  21.746  0.00  0.00    +0.000 HD
ENDBRANCH   4  18
BRANCH   5  20
ATOM     20  O   UNL     1       1.255   4.332  20.929  0.00  0.00    +0.000 OA
ATOM     21  H   UNL     1       0.334   4.404  20.605  0.00  0.00    +0.000 HD
ENDBRANCH   5  20
BRANCH   3  22
ATOM     22  C   UNL     1       4.056   2.795  17.503  0.00  0.00    +0.000 C 
BRANCH  22  23
ATOM     23  N   UNL     1       4.168   4.007  16.657  0.00  0.00    +0.000 N 
ATOM     24  H   UNL     1       3.606   4.759  17.072  0.00  0.00    +0.000 HD
BRANCH  23  25
ATOM     25  C   UNL     1       5.307   4.305  16.067  0.00  0.00    +0.000 C 
ATOM     26  C   UNL     1       6.555   4.780  16.398  0.00  0.00    +0.000 C 
ATOM     27  C   UNL     1       6.967   4.870  14.985  0.00  0.00    +0.000 C 
ATOM     28  O   UNL     1       7.921   5.213  14.316  0.00  0.00    +0.000 OA
ATOM     29  C   UNL     1       5.659   4.256  14.616  0.00  0.00    +0.000 C 
ATOM     30  O   UNL     1       5.127   4.003  13.566  0.00  0.00    +0.000 OA
BRANCH  26  31
ATOM     31  N   UNL     1       7.197   5.094  17.507  0.00  0.00    +0.000 N 
ATOM     32  H   UNL     1       7.500   4.384  18.164  0.00  0.00    +0.000 HD
BRANCH  31  33
ATOM     33  C   UNL     1       7.151   6.451  18.057  0.00  0.00    +0.000 C 
ATOM     34  C   UNL     1       8.370   6.745  18.933  0.00  0.00    +0.000 C 
ATOM     35  C   UNL     1       8.491   8.264  18.918  0.00  0.00    +0.000 C 
ATOM     36  C   UNL     1       7.877   8.722  17.598  0.00  0.00    +0.000 C 
ATOM     37  C   UNL     1       7.254   7.492  16.951  0.00  0.00    +0.000 C 
ENDBRANCH  31  33
ENDBRANCH  26  31
ENDBRANCH  23  25
ENDBRANCH  22  23
ENDBRANCH   3  22
TORSDOF 9
ENDMDL
MODEL 4
REMARK VINA RESULT:      -8.3      2.307      7.522
REMARK  Name = 
REMARK  9 active torsions:
REMARK  status: ('A' for Active; 'I' for Inactive)
REMARK    1  A    between atoms: N_1  and  C_2
REMARK    2  A    between atoms: N_10  and  C_11
REMARK    3  A    between atoms: C_13  and  C_14
REMARK    4  A    between atoms: C_14  and  N_15
REMARK    5  A    between atoms: N_15  and  C_16
REMARK    6  A    between atoms: C_17  and  N_18
REMARK    7  A    between atoms: N_18  and  C_19
REMARK    8  A    between atoms: C_28  and  O_29
REMARK    9  A    between atoms: C_30  and  O_31
REMARK                            x       y       z     vdW  Elec       q    Type
REMARK                         _______ _______ _______ _____ _____    ______ ____
ROOT
ATOM      1  C   UNL     1       7.501   5.206  17.000  0.00  0.00    +0.000 C 
ATOM      2  O   UNL     1       7.335   4.381  18.170  0.00  0.00    +0.000 OA
ATOM      3  C   UNL     1       7.034   5.236  19.305  0.00  0.00    +0.000 C 
ATOM      4  C   UNL     1       7.235   6.680  18.830  0.00  0.00    +0.000 C 
ATOM      5  C   UNL     1       7.005   6.610  17.329  0.00  0.00    +0.000 C 
ENDROOT
BRANCH   1  14
ATOM      6  C   UNL     1       6.378   3.869  12.478  0.00  0.00    +0.000 A 
ATOM      7  N   UNL     1       7.314   4.641  11.880  0.00  0.00    +0.000 NA
ATOM      8  C   UNL     1       8.098   5.416  12.659  0.00  0.00    +0.000 A 
ATOM      9  N   UNL     1       8.089   5.533  14.002  0.00  0.00    +0.000 NA
ATOM     10  C   UNL     1       7.141   4.752  14.546  0.00  0.00    +0.000 A 
ATOM     11  C   UNL     1       6.272   3.906  13.878  0.00  0.00    +0.000 A 
ATOM     12  N   UNL     1       5.452   3.240  14.768  0.00  0.00    +0.000 NA
ATOM     13  C   UNL     1       5.824   3.673  15.953  0.00  0.00    +0.000 A 
ATOM     14  N   UNL     1       6.835   4.595  15.869  0.00  0.00    +0.000 N 
BRANCH   6  15
ATOM     15  N   UNL     1       5.572   3.082  11.689  0.00  0.00    +0.000 N 
ATOM     16  H   UNL     1       5.653   2.082  11.769  0.00  0.00    +0.000 HD
ATOM     17  H   UNL     1       4.849   3.525  11.140  0.00  0.00    +0.000 HD
ENDBRANCH   6  15
ENDBRANCH   1  14
BRANCH   4  18
ATOM     18  O   UNL     1       8.583   7.137  19.058  0.00  0.00    +0.000 OA
ATOM     19  H   UNL     1       9.028   6.542  19.689  0.00  0.00    +0.000 HD
ENDBRANCH   4  18
BRANCH   5  20
ATOM     20  O   UNL     1       7.732   7.608  16.610  0.00  0.00    +0.000 OA
ATOM     21  H   UNL     1       7.347   7.654  15.711  0.00  0.00    +0.000 HD
ENDBRANCH   5  20
BRANCH   3  22
ATOM     22  C   UNL     1       5.605   4.938  19.818  0.00  0.00    +0.000 C 
BRANCH  22  23
ATOM     23  N   UNL     1       5.182   3.583  19.394  0.00  0.00    +0.000 N 
ATOM     24  H   UNL     1       5.771   2.885  19.863  0.00  0.00    +0.000 HD
BRANCH  23  25
ATOM     25  C   UNL     1       3.908   3.315  19.188  0.00  0.00    +0.000 C 
ATOM     26  C   UNL     1       2.675   3.853  19.475  0.00  0.00    +0.000 C 
ATOM     27  C   UNL     1       1.965   2.686  18.919  0.00  0.00    +0.000 C 
ATOM     28  O   UNL     1       0.832   2.278  18.761  0.00  0.00    +0.000 OA
ATOM     29  C   UNL     1       3.289   2.140  18.505  0.00  0.00    +0.000 C 
ATOM     30  O   UNL     1       3.638   1.112  17.984  0.00  0.00    +0.000 OA
BRANCH  26  31
ATOM     31  N   UNL     1       2.218   4.949  20.050  0.00  0.00    +0.000 N 
ATOM     32  H   UNL     1       1.371   4.944  20.606  0.00  0.00    +0.000 HD
BRANCH  31  33
ATOM     33  C   UNL     1       2.644   6.279  19.605  0.00  0.00    +0.000 C 
ATOM     34  C   UNL     1       2.402   6.474  18.107  0.00  0.00    +0.000 C 
ATOM     35  C   UNL     1       2.312   7.986  17.932  0.00  0.00    +0.000 C 
ATOM     36  C   UNL     1       1.813   8.534  19.265  0.00  0.00    +0.000 C 
ATOM     37  C   UNL     1       1.792   7.366  20.243  0.00  0.00    +0.000 C 
ENDBRANCH  31  33
ENDBRANCH  26  31
ENDBRANCH  23  25
ENDBRANCH  22  23
ENDBRANCH   3  22
TORSDOF 9
ENDMDL
MODEL 5
REMARK VINA RESULT:      -8.1      2.487      7.120
REMARK  Name = 
REMARK  9 active torsions:
REMARK  status: ('A' for Active; 'I' for Inactive)
REMARK    1  A    between atoms: N_1  and  C_2
REMARK    2  A    between atoms: N_10  and  C_11
REMARK    3  A    between atoms: C_13  and  C_14
REMARK    4  A    between atoms: C_14  and  N_15
REMARK    5  A    between atoms: N_15  and  C_16
REMARK    6  A    between atoms: C_17  and  N_18
REMARK    7  A    between atoms: N_18  and  C_19
REMARK    8  A    between atoms: C_28  and  O_29
REMARK    9  A    between atoms: C_30  and  O_31
REMARK                            x       y       z     vdW  Elec       q    Type
REMARK                         _______ _______ _______ _____ _____    ______ ____
ROOT
ATOM      1  C   UNL     1       3.106   3.369  17.741  0.00  0.00    +0.000 C 
ATOM      2  O   UNL     1       2.021   4.203  18.193  0.00  0.00    +0.000 OA
ATOM      3  C   UNL     1       1.564   3.717  19.483  0.00  0.00    +0.000 C 
ATOM      4  C   UNL     1       2.279   2.383  19.726  0.00  0.00    +0.000 C 
ATOM      5  C   UNL     1       3.555   2.495  18.907  0.00  0.00    +0.000 C 
ENDROOT
BRANCH   1  14
ATOM      6  C   UNL     1       7.098   6.079  17.290  0.00  0.00    +0.000 A 
ATOM      7  N   UNL     1       7.381   6.112  18.613  0.00  0.00    +0.000 NA
ATOM      8  C   UNL     1       6.543   5.481  19.462  0.00  0.00    +0.000 A 
ATOM      9  N   UNL     1       5.424   4.787  19.173  0.00  0.00    +0.000 NA
ATOM     10  C   UNL     1       5.186   4.789  17.851  0.00  0.00    +0.000 A 
ATOM     11  C   UNL     1       5.954   5.385  16.865  0.00  0.00    +0.000 A 
ATOM     12  N   UNL     1       5.415   5.155  15.615  0.00  0.00    +0.000 NA
ATOM     13  C   UNL     1       4.343   4.428  15.842  0.00  0.00    +0.000 A 
ATOM     14  N   UNL     1       4.157   4.189  17.179  0.00  0.00    +0.000 N 
BRANCH   6  15
ATOM     15  N   UNL     1       7.945   6.726  16.421  0.00  0.00    +0.000 N 
ATOM     16  H   UNL     1       7.543   7.255  15.665  0.00  0.00    +0.000 HD
ATOM     17  H   UNL     1       8.933   6.746  16.631  0.00  0.00    +0.000 HD
ENDBRANCH   6  15
ENDBRANCH   1  14
BRANCH   4  18
ATOM     18  O   UNL     1       1.519   1.267  19.224  0.00  0.00    +0.000 OA
ATOM     19  H   UNL     1       1.167   0.748  19.972  0.00  0.00    +0.000 HD
ENDBRANCH   4  18
BRANCH   5  20
ATOM     20  O   UNL     1       4.039   1.226  18.460  0.00  0.00    +0.000 OA
ATOM     21  H   UNL     1       3.386   0.876  17.821  0.00  0.00    +0.000 HD
ENDBRANCH   5  20
BRANCH   3  22
ATOM     22  C   UNL     1       1.839   4.784  20.569  0.00  0.00    +0.000 C 
BRANCH  22  23
ATOM     23  N   UNL     1       2.829   5.771  20.079  0.00  0.00    +0.000 N 
ATOM     24  H   UNL     1       3.550   5.281  19.535  0.00  0.00    +0.000 HD
BRANCH  23  25
ATOM     25  C   UNL     1       2.443   6.972  19.700  0.00  0.00    +0.000 C 
ATOM     26  C   UNL     1       1.824   8.080  20.233  0.00  0.00    +0.000 C 
ATOM     27  C   UNL     1       1.762   8.755  18.922  0.00  0.00    +0.000 C 
ATOM     28  O   UNL     1       1.356   9.787  18.429  0.00  0.00    +0.000 OA
ATOM     29  C   UNL     1       2.527   7.609  18.351  0.00  0.00    +0.000 C 
ATOM     30  O   UNL     1       2.887   7.322  17.239  0.00  0.00    +0.000 OA
BRANCH  26  31
ATOM     31  N   UNL     1       1.390   8.456  21.420  0.00  0.00    +0.000 N 
ATOM     32  H   UNL     1       1.664   7.967  22.265  0.00  0.00    +0.000 HD
BRANCH  31  33
ATOM     33  C   UNL     1       0.203   9.302  21.566  0.00  0.00    +0.000 C 
ATOM     34  C   UNL     1      -0.358   9.243  22.988  0.00  0.00    +0.000 C 
ATOM     35  C   UNL     1      -1.138  10.545  23.141  0.00  0.00    +0.000 C 
ATOM     36  C   UNL     1      -0.475  11.545  22.200  0.00  0.00    +0.000 C 
ATOM     37  C   UNL     1       0.556  10.772  21.388  0.00  0.00    +0.000 C 
ENDBRANCH  31  33
ENDBRANCH  26  31
ENDBRANCH  23  25
ENDBRANCH  22  23
ENDBRANCH   3  22
TORSDOF 9
ENDMDL
MODEL 6
REMARK VINA RESULT:      -8.1      1.974      3.351
REMARK  Name = 
REMARK  9 active torsions:
REMARK  status: ('A' for Active; 'I' for Inactive)
REMARK    1  A    between atoms: N_1  and  C_2
REMARK    2  A    between atoms: N_10  and  C_11
REMARK    3  A    between atoms: C_13  and  C_14
REMARK    4  A    between atoms: C_14  and  N_15
REMARK    5  A    between atoms: N_15  and  C_16
REMARK    6  A    between atoms: C_17  and  N_18
REMARK    7  A    between atoms: N_18  and  C_19
REMARK    8  A    between atoms: C_28  and  O_29
REMARK    9  A    between atoms: C_30  and  O_31
REMARK                            x       y       z     vdW  Elec       q    Type
REMARK                         _______ _______ _______ _____ _____    ______ ____
ROOT
ATOM      1  C   UNL     1       3.127   5.830  19.174  0.00  0.00    +0.000 C 
ATOM      2  O   UNL     1       4.322   5.518  18.431  0.00  0.00    +0.000 OA
ATOM      3  C   UNL     1       4.268   4.126  18.022  0.00  0.00    +0.000 C 
ATOM      4  C   UNL     1       3.063   3.505  18.739  0.00  0.00    +0.000 C 
ATOM      5  C   UNL     1       2.137   4.684  18.990  0.00  0.00    +0.000 C 
ENDROOT
BRANCH   1  14
ATOM      6  C   UNL     1       0.954  10.162  19.242  0.00  0.00    +0.000 A 
ATOM      7  N   UNL     1       0.456  10.035  20.494  0.00  0.00    +0.000 NA
ATOM      8  C   UNL     1       0.695   8.889  21.165  0.00  0.00    +0.000 A 
ATOM      9  N   UNL     1       1.393   7.811  20.758  0.00  0.00    +0.000 NA
ATOM     10  C   UNL     1       1.861   7.985  19.511  0.00  0.00    +0.000 A 
ATOM     11  C   UNL     1       1.701   9.101  18.707  0.00  0.00    +0.000 A 
ATOM     12  N   UNL     1       2.345   8.932  17.497  0.00  0.00    +0.000 NA
ATOM     13  C   UNL     1       2.889   7.736  17.572  0.00  0.00    +0.000 A 
ATOM     14  N   UNL     1       2.616   7.122  18.766  0.00  0.00    +0.000 N 
BRANCH   6  15
ATOM     15  N   UNL     1       0.708  11.325  18.551  0.00  0.00    +0.000 N 
ATOM     16  H   UNL     1       1.081  11.417  17.620  0.00  0.00    +0.000 HD
ATOM     17  H   UNL     1       0.070  11.999  18.948  0.00  0.00    +0.000 HD
ENDBRANCH   6  15
ENDBRANCH   1  14
BRANCH   4  18
ATOM     18  O   UNL     1       3.429   2.942  20.014  0.00  0.00    +0.000 OA
ATOM     19  H   UNL     1       4.272   3.332  20.313  0.00  0.00    +0.000 HD
ENDBRANCH   4  18
BRANCH   5  20
ATOM     20  O   UNL     1       1.314   4.507  20.145  0.00  0.00    +0.000 OA
ATOM     21  H   UNL     1       0.435   4.213  19.832  0.00  0.00    +0.000 HD
ENDBRANCH   5  20
BRANCH   3  22
ATOM     22  C   UNL     1       4.193   4.039  16.479  0.00  0.00    +0.000 C 
BRANCH  22  23
ATOM     23  N   UNL     1       5.400   3.368  15.944  0.00  0.00    +0.000 N 
ATOM     24  H   UNL     1       5.240   2.354  15.923  0.00  0.00    +0.000 HD
BRANCH  23  25
ATOM     25  C   UNL     1       6.103   3.927  14.979  0.00  0.00    +0.000 C 
ATOM     26  C   UNL     1       7.011   4.947  14.814  0.00  0.00    +0.000 C 
ATOM     27  C   UNL     1       7.017   4.791  13.347  0.00  0.00    +0.000 C 
ATOM     28  O   UNL     1       7.524   5.289  12.363  0.00  0.00    +0.000 OA
ATOM     29  C   UNL     1       6.116   3.615  13.519  0.00  0.00    +0.000 C 
ATOM     30  O   UNL     1       5.558   2.876  12.748  0.00  0.00    +0.000 OA
BRANCH  26  31
ATOM     31  N   UNL     1       7.645   5.800  15.595  0.00  0.00    +0.000 N 
ATOM     32  H   UNL     1       8.582   6.121  15.380  0.00  0.00    +0.000 HD
BRANCH  31  33
ATOM     33  C   UNL     1       7.234   6.014  16.985  0.00  0.00    +0.000 C 
ATOM     34  C   UNL     1       7.808   4.942  17.912  0.00  0.00    +0.000 C 
ATOM     35  C   UNL     1       7.819   5.597  19.289  0.00  0.00    +0.000 C 
ATOM     36  C   UNL     1       7.941   7.097  19.039  0.00  0.00    +0.000 C 
ATOM     37  C   UNL     1       7.822   7.306  17.535  0.00  0.00    +0.000 C 
ENDBRANCH  31  33
ENDBRANCH  26  31
ENDBRANCH  23  25
ENDBRANCH  22  23
ENDBRANCH   3  22
TORSDOF 9
ENDMDL
MODEL 7
REMARK VINA RESULT:      -8.0      2.246      7.288
REMARK  Name = 
REMARK  9 active torsions:
REMARK  status: ('A' for Active; 'I' for Inactive)
REMARK    1  A    between atoms: N_1  and  C_2
REMARK    2  A    between atoms: N_10  and  C_11
REMARK    3  A    between atoms: C_13  and  C_14
REMARK    4  A    between atoms: C_14  and  N_15
REMARK    5  A    between atoms: N_15  and  C_16
REMARK    6  A    between atoms: C_17  and  N_18
REMARK    7  A    between atoms: N_18  and  C_19
REMARK    8  A    between atoms: C_28  and  O_29
REMARK    9  A    between atoms: C_30  and  O_31
REMARK                            x       y       z     vdW  Elec       q    Type
REMARK                         _______ _______ _______ _____ _____    ______ ____
ROOT
ATOM      1  C   UNL     1       3.899   3.217  18.487  0.00  0.00    +0.000 C 
ATOM      2  O   UNL     1       2.607   3.817  18.267  0.00  0.00    +0.000 OA
ATOM      3  C   UNL     1       1.689   3.336  19.284  0.00  0.00    +0.000 C 
ATOM      4  C   UNL     1       2.418   2.218  20.039  0.00  0.00    +0.000 C 
ATOM      5  C   UNL     1       3.890   2.554  19.860  0.00  0.00    +0.000 C 
ENDROOT
BRANCH   1  14
ATOM      6  C   UNL     1       7.096   6.250  16.471  0.00  0.00    +0.000 A 
ATOM      7  N   UNL     1       6.882   5.836  15.200  0.00  0.00    +0.000 NA
ATOM      8  C   UNL     1       5.991   4.843  14.992  0.00  0.00    +0.000 A 
ATOM      9  N   UNL     1       5.247   4.182  15.901  0.00  0.00    +0.000 NA
ATOM     10  C   UNL     1       5.500   4.627  17.143  0.00  0.00    +0.000 A 
ATOM     11  C   UNL     1       6.377   5.635  17.507  0.00  0.00    +0.000 A 
ATOM     12  N   UNL     1       6.354   5.837  18.873  0.00  0.00    +0.000 NA
ATOM     13  C   UNL     1       5.474   4.970  19.325  0.00  0.00    +0.000 A 
ATOM     14  N   UNL     1       4.938   4.210  18.318  0.00  0.00    +0.000 N 
BRANCH   6  15
ATOM     15  N   UNL     1       8.008   7.257  16.689  0.00  0.00    +0.000 N 
ATOM     16  H   UNL     1       8.857   7.035  17.183  0.00  0.00    +0.000 HD
ATOM     17  H   UNL     1       7.854   8.154  16.252  0.00  0.00    +0.000 HD
ENDBRANCH   6  15
ENDBRANCH   1  14
BRANCH   4  18
ATOM     18  O   UNL     1       2.177   0.926  19.448  0.00  0.00    +0.000 OA
ATOM     19  H   UNL     1       1.341   0.947  18.947  0.00  0.00    +0.000 HD
ENDBRANCH   4  18
BRANCH   5  20
ATOM     20  O   UNL     1       4.730   1.398  19.893  0.00  0.00    +0.000 OA
ATOM     21  H   UNL     1       4.412   0.789  19.195  0.00  0.00    +0.000 HD
ENDBRANCH   5  20
BRANCH   3  22
ATOM     22  C   UNL     1       1.244   4.513  20.184  0.00  0.00    +0.000 C 
BRANCH  22  23
ATOM     23  N   UNL     1       2.353   5.482  20.345  0.00  0.00    +0.000 N 
ATOM     24  H   UNL     1       3.248   4.991  20.231  0.00  0.00    +0.000 HD
BRANCH  23  25
ATOM     25  C   UNL     1       2.234   6.714  19.894  0.00  0.00    +0.000 C 
ATOM     26  C   UNL     1       1.847   7.954  20.349  0.00  0.00    +0.000 C 
ATOM     27  C   UNL     1       1.957   8.553  19.006  0.00  0.00    +0.000 C 
ATOM     28  O   UNL     1       1.786   9.617  18.447  0.00  0.00    +0.000 OA
ATOM     29  C   UNL     1       2.480   7.244  18.519  0.00  0.00    +0.000 C 
ATOM     30  O   UNL     1       2.799   6.827  17.435  0.00  0.00    +0.000 OA
BRANCH  26  31
ATOM     31  N   UNL     1       1.473   8.477  21.501  0.00  0.00    +0.000 N 
ATOM     32  H   UNL     1       1.818   8.118  22.384  0.00  0.00    +0.000 HD
BRANCH  31  33
ATOM     33  C   UNL     1       0.265   9.300  21.609  0.00  0.00    +0.000 C 
ATOM     34  C   UNL     1      -0.260   9.341  23.045  0.00  0.00    +0.000 C 
ATOM     35  C   UNL     1      -1.074  10.628  23.114  0.00  0.00    +0.000 C 
ATOM     36  C   UNL     1      -0.463  11.567  22.079  0.00  0.00    +0.000 C 
ATOM     37  C   UNL     1       0.571  10.759  21.305  0.00  0.00    +0.000 C 
ENDBRANCH  31  33
ENDBRANCH  26  31
ENDBRANCH  23  25
ENDBRANCH  22  23
ENDBRANCH   3  22
TORSDOF 9
ENDMDL
MODEL 8
REMARK VINA RESULT:      -8.0      3.188      5.938
REMARK  Name = 
REMARK  9 active torsions:
REMARK  status: ('A' for Active; 'I' for Inactive)
REMARK    1  A    between atoms: N_1  and  C_2
REMARK    2  A    between atoms: N_10  and  C_11
REMARK    3  A    between atoms: C_13  and  C_14
REMARK    4  A    between atoms: C_14  and  N_15
REMARK    5  A    between atoms: N_15  and  C_16
REMARK    6  A    between atoms: C_17  and  N_18
REMARK    7  A    between atoms: N_18  and  C_19
REMARK    8  A    between atoms: C_28  and  O_29
REMARK    9  A    between atoms: C_30  and  O_31
REMARK                            x       y       z     vdW  Elec       q    Type
REMARK                         _______ _______ _______ _____ _____    ______ ____
ROOT
ATOM      1  C   UNL     1       0.062  10.510  20.520  0.00  0.00    +0.000 C 
ATOM      2  O   UNL     1       1.156  10.434  19.584  0.00  0.00    +0.000 OA
ATOM      3  C   UNL     1       1.787   9.132  19.709  0.00  0.00    +0.000 C 
ATOM      4  C   UNL     1       1.166   8.460  20.939  0.00  0.00    +0.000 C 
ATOM      5  C   UNL     1      -0.203   9.109  21.061  0.00  0.00    +0.000 C 
ENDROOT
BRANCH   1  14
ATOM      6  C   UNL     1      -3.523  11.473  17.404  0.00  0.00    +0.000 A 
ATOM      7  N   UNL     1      -3.147  10.551  16.487  0.00  0.00    +0.000 NA
ATOM      8  C   UNL     1      -2.042   9.816  16.735  0.00  0.00    +0.000 A 
ATOM      9  N   UNL     1      -1.230   9.862  17.809  0.00  0.00    +0.000 NA
ATOM     10  C   UNL     1      -1.643  10.794  18.684  0.00  0.00    +0.000 A 
ATOM     11  C   UNL     1      -2.753  11.614  18.568  0.00  0.00    +0.000 A 
ATOM     12  N   UNL     1      -2.879  12.429  19.676  0.00  0.00    +0.000 NA
ATOM     13  C   UNL     1      -1.866  12.103  20.449  0.00  0.00    +0.000 A 
ATOM     14  N   UNL     1      -1.085  11.126  19.888  0.00  0.00    +0.000 N 
BRANCH   6  15
ATOM     15  N   UNL     1      -4.644  12.229  17.153  0.00  0.00    +0.000 N 
ATOM     16  H   UNL     1      -5.490  12.011  17.654  0.00  0.00    +0.000 HD
ATOM     17  H   UNL     1      -4.557  13.046  16.566  0.00  0.00    +0.000 HD
ENDBRANCH   6  15
ENDBRANCH   1  14
BRANCH   4  18
ATOM     18  O   UNL     1       1.908   8.748  22.140  0.00  0.00    +0.000 OA
ATOM     19  H   UNL     1       1.311   9.131  22.809  0.00  0.00    +0.000 HD
ENDBRANCH   4  18
BRANCH   5  20
ATOM     20  O   UNL     1      -0.682   9.145  22.407  0.00  0.00    +0.000 OA
ATOM     21  H   UNL     1      -0.729   8.220  22.722  0.00  0.00    +0.000 HD
ENDBRANCH   5  20
BRANCH   3  22
ATOM     22  C   UNL     1       1.599   8.334  18.396  0.00  0.00    +0.000 C 
BRANCH  22  23
ATOM     23  N   UNL     1       2.891   8.207  17.684  0.00  0.00    +0.000 N 
ATOM     24  H   UNL     1       3.363   9.119  17.679  0.00  0.00    +0.000 HD
BRANCH  23  25
ATOM     25  C   UNL     1       3.612   7.110  17.799  0.00  0.00    +0.000 C 
ATOM     26  C   UNL     1       3.837   6.108  18.713  0.00  0.00    +0.000 C 
ATOM     27  C   UNL     1       4.908   5.511  17.892  0.00  0.00    +0.000 C 
ATOM     28  O   UNL     1       5.698   4.589  17.924  0.00  0.00    +0.000 OA
ATOM     29  C   UNL     1       4.602   6.527  16.845  0.00  0.00    +0.000 C 
ATOM     30  O   UNL     1       5.092   6.794  15.777  0.00  0.00    +0.000 OA
BRANCH  26  31
ATOM     31  N   UNL     1       3.361   5.763  19.894  0.00  0.00    +0.000 N 
ATOM     32  H   UNL     1       3.950   5.737  20.718  0.00  0.00    +0.000 HD
BRANCH  31  33
ATOM     33  C   UNL     1       2.104   5.020  20.023  0.00  0.00    +0.000 C 
ATOM     34  C   UNL     1       1.903   4.051  18.857  0.00  0.00    +0.000 C 
ATOM     35  C   UNL     1       0.955   2.990  19.405  0.00  0.00    +0.000 C 
ATOM     36  C   UNL     1       1.192   2.954  20.911  0.00  0.00    +0.000 C 
ATOM     37  C   UNL     1       2.134   4.105  21.238  0.00  0.00    +0.000 C 
ENDBRANCH  31  33
ENDBRANCH  26  31
ENDBRANCH  23  25
ENDBRANCH  22  23
ENDBRANCH   3  22
TORSDOF 9
ENDMDL
MODEL 9
REMARK VINA RESULT:      -7.8      2.260      7.057
REMARK  Name = 
REMARK  9 active torsions:
REMARK  status: ('A' for Active; 'I' for Inactive)
REMARK    1  A    between atoms: N_1  and  C_2
REMARK    2  A    between atoms: N_10  and  C_11
REMARK    3  A    between atoms: C_13  and  C_14
REMARK    4  A    between atoms: C_14  and  N_15
REMARK    5  A    between atoms: N_15  and  C_16
REMARK    6  A    between atoms: C_17  and  N_18
REMARK    7  A    between atoms: N_18  and  C_19
REMARK    8  A    between atoms: C_28  and  O_29
REMARK    9  A    between atoms: C_30  and  O_31
REMARK                            x       y       z     vdW  Elec       q    Type
REMARK                         _______ _______ _______ _____ _____    ______ ____
ROOT
ATOM      1  C   UNL     1       3.286   3.112  19.014  0.00  0.00    +0.000 C 
ATOM      2  O   UNL     1       2.031   3.821  19.062  0.00  0.00    +0.000 OA
ATOM      3  C   UNL     1       1.654   4.008  20.452  0.00  0.00    +0.000 C 
ATOM      4  C   UNL     1       2.637   3.180  21.288  0.00  0.00    +0.000 C 
ATOM      5  C   UNL     1       3.881   3.097  20.418  0.00  0.00    +0.000 C 
ENDROOT
BRANCH   1  14
ATOM      6  C   UNL     1       6.959   5.463  16.899  0.00  0.00    +0.000 A 
ATOM      7  N   UNL     1       7.533   5.869  18.055  0.00  0.00    +0.000 NA
ATOM      8  C   UNL     1       6.937   5.535  19.218  0.00  0.00    +0.000 A 
ATOM      9  N   UNL     1       5.810   4.819  19.406  0.00  0.00    +0.000 NA
ATOM     10  C   UNL     1       5.278   4.445  18.230  0.00  0.00    +0.000 A 
ATOM     11  C   UNL     1       5.777   4.708  16.966  0.00  0.00    +0.000 A 
ATOM     12  N   UNL     1       4.978   4.141  15.993  0.00  0.00    +0.000 NA
ATOM     13  C   UNL     1       4.015   3.541  16.660  0.00  0.00    +0.000 A 
ATOM     14  N   UNL     1       4.148   3.705  18.014  0.00  0.00    +0.000 N 
BRANCH   6  15
ATOM     15  N   UNL     1       7.559   5.806  15.710  0.00  0.00    +0.000 N 
ATOM     16  H   UNL     1       7.214   5.389  14.861  0.00  0.00    +0.000 HD
ATOM     17  H   UNL     1       8.246   6.547  15.710  0.00  0.00    +0.000 HD
ENDBRANCH   6  15
ENDBRANCH   1  14
BRANCH   4  18
ATOM     18  O   UNL     1       2.155   1.840  21.512  0.00  0.00    +0.000 OA
ATOM     19  H   UNL     1       2.089   1.370  20.660  0.00  0.00    +0.000 HD
ENDBRANCH   4  18
BRANCH   5  20
ATOM     20  O   UNL     1       4.645   1.912  20.654  0.00  0.00    +0.000 OA
ATOM     21  H   UNL     1       4.128   1.159  20.302  0.00  0.00    +0.000 HD
ENDBRANCH   5  20
BRANCH   3  22
ATOM     22  C   UNL     1       1.656   5.517  20.794  0.00  0.00    +0.000 C 
BRANCH  22  23
ATOM     23  N   UNL     1       2.724   6.212  20.039  0.00  0.00    +0.000 N 
ATOM     24  H   UNL     1       3.351   5.512  19.622  0.00  0.00    +0.000 HD
BRANCH  23  25
ATOM     25  C   UNL     1       2.460   7.317  19.372  0.00  0.00    +0.000 C 
ATOM     26  C   UNL     1       1.631   8.411  19.462  0.00  0.00    +0.000 C 
ATOM     27  C   UNL     1       2.052   8.920  18.144  0.00  0.00    +0.000 C 
ATOM     28  O   UNL     1       1.822   9.842  17.388  0.00  0.00    +0.000 OA
ATOM     29  C   UNL     1       3.033   7.799  18.079  0.00  0.00    +0.000 C 
ATOM     30  O   UNL     1       3.811   7.422  17.240  0.00  0.00    +0.000 OA
BRANCH  26  31
ATOM     31  N   UNL     1       0.751   8.877  20.328  0.00  0.00    +0.000 N 
ATOM     32  H   UNL     1      -0.008   8.301  20.675  0.00  0.00    +0.000 HD
BRANCH  31  33
ATOM     33  C   UNL     1       0.560  10.316  20.522  0.00  0.00    +0.000 C 
ATOM     34  C   UNL     1      -0.639  10.837  19.727  0.00  0.00    +0.000 C 
ATOM     35  C   UNL     1      -1.059  12.105  20.462  0.00  0.00    +0.000 C 
ATOM     36  C   UNL     1      -0.629  11.912  21.912  0.00  0.00    +0.000 C 
ATOM     37  C   UNL     1       0.186  10.627  21.965  0.00  0.00    +0.000 C 
ENDBRANCH  31  33
ENDBRANCH  26  31
ENDBRANCH  23  25
ENDBRANCH  22  23
ENDBRANCH   3  22
TORSDOF 9
ENDMDL
