MODEL 1
REMARK VINA RESULT:      -6.8      0.000      0.000
REMARK  Name = 
REMARK  10 active torsions:
REMARK  status: ('A' for Active; 'I' for Inactive)
REMARK    1  A    between atoms: C_1  and  C_2
REMARK    2  A    between atoms: C_2  and  C_3
REMARK    3  A    between atoms: C_3  and  C_4
REMARK    4  A    between atoms: C_4  and  O_5
REMARK    5  A    between atoms: O_5  and  C_6
REMARK    6  A    between atoms: C_9  and  C_10
REMARK    7  A    between atoms: C_10  and  C_12
REMARK    8  A    between atoms: C_12  and  C_13
REMARK    9  A    between atoms: C_13  and  C_14
REMARK   10  A    between atoms: N_16  and  O_17
REMARK                            x       y       z     vdW  Elec       q    Type
REMARK                         _______ _______ _______ _____ _____    ______ ____
ROOT
ATOM      1  C   UNL     1       2.942   5.454  17.944  0.00  0.00    +0.000 A 
ATOM      2  C   UNL     1       3.278   4.203  17.419  0.00  0.00    +0.000 A 
ATOM      3  C   UNL     1       4.406   4.050  16.615  0.00  0.00    +0.000 A 
ATOM      4  C   UNL     1       5.224   5.144  16.325  0.00  0.00    +0.000 A 
ATOM      5  C   UNL     1       4.893   6.402  16.841  0.00  0.00    +0.000 A 
ATOM      6  C   UNL     1       3.755   6.551  17.648  0.00  0.00    +0.000 A 
ENDROOT
BRANCH   4   7
ATOM      7  C   UNL     1       6.394   4.898  15.439  0.00  0.00    +0.000 C 
ATOM      8  O   UNL     1       7.353   5.671  15.482  0.00  0.00    +0.000 OA
BRANCH   7   9
ATOM      9  C   UNL     1       6.370   3.740  14.463  0.00  0.00    +0.000 C 
BRANCH   9  10
ATOM     10  C   UNL     1       6.317   4.239  13.023  0.00  0.00    +0.000 C 
BRANCH  10  11
ATOM     11  C   UNL     1       5.748   3.175  12.108  0.00  0.00    +0.000 C 
ATOM     12  O   UNL     1       4.600   3.212  11.678  0.00  0.00    +0.000 OA
ATOM     13  N   UNL     1       6.610   2.134  11.845  0.00  0.00    +0.000 N 
ATOM     14  H   UNL     1       7.318   1.878  12.538  0.00  0.00    +0.000 HD
BRANCH  13  15
ATOM     15  O   UNL     1       6.038   1.060  11.118  0.00  0.00    +0.000 OA
ATOM     16  H   UNL     1       5.095   1.102  11.383  0.00  0.00    +0.000 HD
ENDBRANCH  13  15
ENDBRANCH  10  11
ENDBRANCH   9  10
ENDBRANCH   7   9
ENDBRANCH   4   7
BRANCH   1  17
ATOM     17  O   UNL     1       1.852   5.703  18.740  0.00  0.00    +0.000 OA
BRANCH  17  18
ATOM     18  C   UNL     1       1.940   5.155  20.057  0.00  0.00    +0.000 C 
BRANCH  18  19
ATOM     19  C   UNL     1       0.904   4.060  20.269  0.00  0.00    +0.000 C 
BRANCH  19  21
ATOM     20  C   UNL     1       2.267   2.647  21.861  0.00  0.00    +0.000 C 
ATOM     21  C   UNL     1       1.615   2.724  20.494  0.00  0.00    +0.000 C 
ENDBRANCH  19  21
ENDBRANCH  18  19
ENDBRANCH  17  18
ENDBRANCH   1  17
TORSDOF 9
ENDMDL
MODEL 2
REMARK VINA RESULT:      -6.8      1.029      1.093
REMARK  Name = 
REMARK  10 active torsions:
REMARK  status: ('A' for Active; 'I' for Inactive)
REMARK    1  A    between atoms: C_1  and  C_2
REMARK    2  A    between atoms: C_2  and  C_3
REMARK    3  A    between atoms: C_3  and  C_4
REMARK    4  A    between atoms: C_4  and  O_5
REMARK    5  A    between atoms: O_5  and  C_6
REMARK    6  A    between atoms: C_9  and  C_10
REMARK    7  A    between atoms: C_10  and  C_12
REMARK    8  A    between atoms: C_12  and  C_13
REMARK    9  A    between atoms: C_13  and  C_14
REMARK   10  A    between atoms: N_16  and  O_17
REMARK                            x       y       z     vdW  Elec       q    Type
REMARK                         _______ _______ _______ _____ _____    ______ ____
ROOT
ATOM      1  C   UNL     1       4.149   5.586  18.492  0.00  0.00    +0.000 A 
ATOM      2  C   UNL     1       4.579   4.306  18.129  0.00  0.00    +0.000 A 
ATOM      3  C   UNL     1       5.243   4.096  16.922  0.00  0.00    +0.000 A 
ATOM      4  C   UNL     1       5.497   5.162  16.057  0.00  0.00    +0.000 A 
ATOM      5  C   UNL     1       5.065   6.447  16.409  0.00  0.00    +0.000 A 
ATOM      6  C   UNL     1       4.395   6.652  17.624  0.00  0.00    +0.000 A 
ENDROOT
BRANCH   4   7
ATOM      7  C   UNL     1       6.190   4.846  14.779  0.00  0.00    +0.000 C 
ATOM      8  O   UNL     1       7.313   5.311  14.574  0.00  0.00    +0.000 OA
BRANCH   7   9
ATOM      9  C   UNL     1       5.490   4.009  13.728  0.00  0.00    +0.000 C 
BRANCH   9  10
ATOM     10  C   UNL     1       6.416   3.719  12.553  0.00  0.00    +0.000 C 
BRANCH  10  11
ATOM     11  C   UNL     1       5.899   2.553  11.737  0.00  0.00    +0.000 C 
ATOM     12  O   UNL     1       4.725   2.451  11.393  0.00  0.00    +0.000 OA
ATOM     13  N   UNL     1       6.842   1.589  11.463  0.00  0.00    +0.000 N 
ATOM     14  H   UNL     1       7.620   1.444  12.112  0.00  0.00    +0.000 HD
BRANCH  13  15
ATOM     15  O   UNL     1       6.335   0.424  10.835  0.00  0.00    +0.000 OA
ATOM     16  H   UNL     1       5.502   0.262  11.327  0.00  0.00    +0.000 HD
ENDBRANCH  13  15
ENDBRANCH  10  11
ENDBRANCH   9  10
ENDBRANCH   7   9
ENDBRANCH   4   7
BRANCH   1  17
ATOM     17  O   UNL     1       3.485   5.889  19.654  0.00  0.00    +0.000 OA
BRANCH  17  18
ATOM     18  C   UNL     1       2.952   4.759  20.347  0.00  0.00    +0.000 C 
BRANCH  18  19
ATOM     19  C   UNL     1       1.432   4.821  20.418  0.00  0.00    +0.000 C 
BRANCH  19  21
ATOM     20  C   UNL     1       1.729   2.354  19.957  0.00  0.00    +0.000 C 
ATOM     21  C   UNL     1       0.841   3.569  19.767  0.00  0.00    +0.000 C 
ENDBRANCH  19  21
ENDBRANCH  18  19
ENDBRANCH  17  18
ENDBRANCH   1  17
TORSDOF 9
ENDMDL
MODEL 3
REMARK VINA RESULT:      -6.7      3.204      6.567
REMARK  Name = 
REMARK  10 active torsions:
REMARK  status: ('A' for Active; 'I' for Inactive)
REMARK    1  A    between atoms: C_1  and  C_2
REMARK    2  A    between atoms: C_2  and  C_3
REMARK    3  A    between atoms: C_3  and  C_4
REMARK    4  A    between atoms: C_4  and  O_5
REMARK    5  A    between atoms: O_5  and  C_6
REMARK    6  A    between atoms: C_9  and  C_10
REMARK    7  A    between atoms: C_10  and  C_12
REMARK    8  A    between atoms: C_12  and  C_13
REMARK    9  A    between atoms: C_13  and  C_14
REMARK   10  A    between atoms: N_16  and  O_17
REMARK                            x       y       z     vdW  Elec       q    Type
REMARK                         _______ _______ _______ _____ _____    ______ ____
ROOT
ATOM      1  C   UNL     1       5.442   6.075  17.276  0.00  0.00    +0.000 A 
ATOM      2  C   UNL     1       5.570   5.368  18.474  0.00  0.00    +0.000 A 
ATOM      3  C   UNL     1       4.532   5.352  19.404  0.00  0.00    +0.000 A 
ATOM      4  C   UNL     1       3.343   6.039  19.150  0.00  0.00    +0.000 A 
ATOM      5  C   UNL     1       3.207   6.755  17.955  0.00  0.00    +0.000 A 
ATOM      6  C   UNL     1       4.257   6.769  17.024  0.00  0.00    +0.000 A 
ENDROOT
BRANCH   4   7
ATOM      7  C   UNL     1       2.295   5.990  20.206  0.00  0.00    +0.000 C 
ATOM      8  O   UNL     1       1.717   7.030  20.527  0.00  0.00    +0.000 OA
BRANCH   7   9
ATOM      9  C   UNL     1       1.993   4.683  20.909  0.00  0.00    +0.000 C 
BRANCH   9  10
ATOM     10  C   UNL     1       0.892   3.915  20.187  0.00  0.00    +0.000 C 
BRANCH  10  11
ATOM     11  C   UNL     1       1.465   3.096  19.051  0.00  0.00    +0.000 C 
ATOM     12  O   UNL     1       1.065   3.190  17.895  0.00  0.00    +0.000 OA
ATOM     13  N   UNL     1       2.434   2.196  19.433  0.00  0.00    +0.000 N 
ATOM     14  H   UNL     1       2.414   1.803  20.378  0.00  0.00    +0.000 HD
BRANCH  13  15
ATOM     15  O   UNL     1       2.868   1.319  18.407  0.00  0.00    +0.000 OA
ATOM     16  H   UNL     1       2.887   0.450  18.864  0.00  0.00    +0.000 HD
ENDBRANCH  13  15
ENDBRANCH  10  11
ENDBRANCH   9  10
ENDBRANCH   7   9
ENDBRANCH   4   7
BRANCH   1  17
ATOM     17  O   UNL     1       6.409   6.152  16.304  0.00  0.00    +0.000 OA
BRANCH  17  18
ATOM     18  C   UNL     1       7.100   4.926  16.055  0.00  0.00    +0.000 C 
BRANCH  18  19
ATOM     19  C   UNL     1       6.197   3.914  15.362  0.00  0.00    +0.000 C 
BRANCH  19  21
ATOM     20  C   UNL     1       6.043   3.539  12.867  0.00  0.00    +0.000 C 
ATOM     21  C   UNL     1       5.739   4.481  14.017  0.00  0.00    +0.000 C 
ENDBRANCH  19  21
ENDBRANCH  18  19
ENDBRANCH  17  18
ENDBRANCH   1  17
TORSDOF 9
ENDMDL
MODEL 4
REMARK VINA RESULT:      -6.6      1.160      1.824
REMARK  Name = 
REMARK  10 active torsions:
REMARK  status: ('A' for Active; 'I' for Inactive)
REMARK    1  A    between atoms: C_1  and  C_2
REMARK    2  A    between atoms: C_2  and  C_3
REMARK    3  A    between atoms: C_3  and  C_4
REMARK    4  A    between atoms: C_4  and  O_5
REMARK    5  A    between atoms: O_5  and  C_6
REMARK    6  A    between atoms: C_9  and  C_10
REMARK    7  A    between atoms: C_10  and  C_12
REMARK    8  A    between atoms: C_12  and  C_13
REMARK    9  A    between atoms: C_13  and  C_14
REMARK   10  A    between atoms: N_16  and  O_17
REMARK                            x       y       z     vdW  Elec       q    Type
REMARK                         _______ _______ _______ _____ _____    ______ ____
ROOT
ATOM      1  C   UNL     1       3.834   4.628  19.173  0.00  0.00    +0.000 A 
ATOM      2  C   UNL     1       4.277   5.873  18.716  0.00  0.00    +0.000 A 
ATOM      3  C   UNL     1       4.859   6.002  17.457  0.00  0.00    +0.000 A 
ATOM      4  C   UNL     1       5.006   4.888  16.627  0.00  0.00    +0.000 A 
ATOM      5  C   UNL     1       4.571   3.636  17.077  0.00  0.00    +0.000 A 
ATOM      6  C   UNL     1       3.987   3.512  18.347  0.00  0.00    +0.000 A 
ENDROOT
BRANCH   4   7
ATOM      7  C   UNL     1       5.660   5.110  15.308  0.00  0.00    +0.000 C 
ATOM      8  O   UNL     1       5.662   6.242  14.821  0.00  0.00    +0.000 OA
BRANCH   7   9
ATOM      9  C   UNL     1       6.262   3.939  14.560  0.00  0.00    +0.000 C 
BRANCH   9  10
ATOM     10  C   UNL     1       6.493   4.287  13.093  0.00  0.00    +0.000 C 
BRANCH  10  11
ATOM     11  C   UNL     1       5.894   3.230  12.191  0.00  0.00    +0.000 C 
ATOM     12  O   UNL     1       4.717   3.238  11.845  0.00  0.00    +0.000 OA
ATOM     13  N   UNL     1       6.767   2.226  11.836  0.00  0.00    +0.000 N 
ATOM     14  H   UNL     1       7.532   1.975  12.467  0.00  0.00    +0.000 HD
BRANCH  13  15
ATOM     15  O   UNL     1       6.179   1.153  11.120  0.00  0.00    +0.000 OA
ATOM     16  H   UNL     1       6.007   1.553  10.241  0.00  0.00    +0.000 HD
ENDBRANCH  13  15
ENDBRANCH  10  11
ENDBRANCH   9  10
ENDBRANCH   7   9
ENDBRANCH   4   7
BRANCH   1  17
ATOM     17  O   UNL     1       3.254   4.403  20.396  0.00  0.00    +0.000 OA
BRANCH  17  18
ATOM     18  C   UNL     1       2.915   3.038  20.650  0.00  0.00    +0.000 C 
BRANCH  18  19
ATOM     19  C   UNL     1       1.504   2.915  21.209  0.00  0.00    +0.000 C 
BRANCH  19  21
ATOM     20  C   UNL     1       0.747   2.374  18.859  0.00  0.00    +0.000 C 
ATOM     21  C   UNL     1       0.491   3.207  20.100  0.00  0.00    +0.000 C 
ENDBRANCH  19  21
ENDBRANCH  18  19
ENDBRANCH  17  18
ENDBRANCH   1  17
TORSDOF 9
ENDMDL
MODEL 5
REMARK VINA RESULT:      -6.6      3.573      6.661
REMARK  Name = 
REMARK  10 active torsions:
REMARK  status: ('A' for Active; 'I' for Inactive)
REMARK    1  A    between atoms: C_1  and  C_2
REMARK    2  A    between atoms: C_2  and  C_3
REMARK    3  A    between atoms: C_3  and  C_4
REMARK    4  A    between atoms: C_4  and  O_5
REMARK    5  A    between atoms: O_5  and  C_6
REMARK    6  A    between atoms: C_9  and  C_10
REMARK    7  A    between atoms: C_10  and  C_12
REMARK    8  A    between atoms: C_12  and  C_13
REMARK    9  A    between atoms: C_13  and  C_14
REMARK   10  A    between atoms: N_16  and  O_17
REMARK                            x       y       z     vdW  Elec       q    Type
REMARK                         _______ _______ _______ _____ _____    ______ ____
ROOT
ATOM      1  C   UNL     1       4.694   5.950  16.670  0.00  0.00    +0.000 A 
ATOM      2  C   UNL     1       4.581   4.561  16.574  0.00  0.00    +0.000 A 
ATOM      3  C   UNL     1       3.529   3.889  17.194  0.00  0.00    +0.000 A 
ATOM      4  C   UNL     1       2.565   4.596  17.916  0.00  0.00    +0.000 A 
ATOM      5  C   UNL     1       2.672   5.987  18.023  0.00  0.00    +0.000 A 
ATOM      6  C   UNL     1       3.735   6.658  17.399  0.00  0.00    +0.000 A 
ENDROOT
BRANCH   4   7
ATOM      7  C   UNL     1       1.489   3.800  18.566  0.00  0.00    +0.000 C 
ATOM      8  O   UNL     1       0.869   2.969  17.898  0.00  0.00    +0.000 OA
BRANCH   7   9
ATOM      9  C   UNL     1       1.131   4.056  20.015  0.00  0.00    +0.000 C 
BRANCH   9  10
ATOM     10  C   UNL     1       2.379   4.333  20.847  0.00  0.00    +0.000 C 
BRANCH  10  11
ATOM     11  C   UNL     1       3.046   3.038  21.258  0.00  0.00    +0.000 C 
ATOM     12  O   UNL     1       2.636   2.342  22.182  0.00  0.00    +0.000 OA
ATOM     13  N   UNL     1       4.185   2.735  20.546  0.00  0.00    +0.000 N 
ATOM     14  H   UNL     1       4.751   3.492  20.154  0.00  0.00    +0.000 HD
BRANCH  13  15
ATOM     15  O   UNL     1       4.902   1.609  21.023  0.00  0.00    +0.000 OA
ATOM     16  H   UNL     1       5.694   2.019  21.432  0.00  0.00    +0.000 HD
ENDBRANCH  13  15
ENDBRANCH  10  11
ENDBRANCH   9  10
ENDBRANCH   7   9
ENDBRANCH   4   7
BRANCH   1  17
ATOM     17  O   UNL     1       5.695   6.696  16.099  0.00  0.00    +0.000 OA
BRANCH  17  18
ATOM     18  C   UNL     1       7.017   6.296  16.465  0.00  0.00    +0.000 C 
BRANCH  18  19
ATOM     19  C   UNL     1       7.475   7.003  17.734  0.00  0.00    +0.000 C 
BRANCH  19  21
ATOM     20  C   UNL     1       6.599   5.431  19.509  0.00  0.00    +0.000 C 
ATOM     21  C   UNL     1       7.829   5.960  18.796  0.00  0.00    +0.000 C 
ENDBRANCH  19  21
ENDBRANCH  18  19
ENDBRANCH  17  18
ENDBRANCH   1  17
TORSDOF 9
ENDMDL
MODEL 6
REMARK VINA RESULT:      -6.6      1.044      1.072
REMARK  Name = 
REMARK  10 active torsions:
REMARK  status: ('A' for Active; 'I' for Inactive)
REMARK    1  A    between atoms: C_1  and  C_2
REMARK    2  A    between atoms: C_2  and  C_3
REMARK    3  A    between atoms: C_3  and  C_4
REMARK    4  A    between atoms: C_4  and  O_5
REMARK    5  A    between atoms: O_5  and  C_6
REMARK    6  A    between atoms: C_9  and  C_10
REMARK    7  A    between atoms: C_10  and  C_12
REMARK    8  A    between atoms: C_12  and  C_13
REMARK    9  A    between atoms: C_13  and  C_14
REMARK   10  A    between atoms: N_16  and  O_17
REMARK                            x       y       z     vdW  Elec       q    Type
REMARK                         _______ _______ _______ _____ _____    ______ ____
ROOT
ATOM      1  C   UNL     1       4.163   5.728  18.835  0.00  0.00    +0.000 A 
ATOM      2  C   UNL     1       5.122   4.711  18.845  0.00  0.00    +0.000 A 
ATOM      3  C   UNL     1       5.888   4.447  17.712  0.00  0.00    +0.000 A 
ATOM      4  C   UNL     1       5.716   5.199  16.548  0.00  0.00    +0.000 A 
ATOM      5  C   UNL     1       4.754   6.216  16.526  0.00  0.00    +0.000 A 
ATOM      6  C   UNL     1       3.983   6.476  17.669  0.00  0.00    +0.000 A 
ENDROOT
BRANCH   4   7
ATOM      7  C   UNL     1       6.559   4.836  15.377  0.00  0.00    +0.000 C 
ATOM      8  O   UNL     1       7.562   5.507  15.127  0.00  0.00    +0.000 OA
BRANCH   7   9
ATOM      9  C   UNL     1       6.147   3.688  14.478  0.00  0.00    +0.000 C 
BRANCH   9  10
ATOM     10  C   UNL     1       5.499   4.202  13.197  0.00  0.00    +0.000 C 
BRANCH  10  11
ATOM     11  C   UNL     1       5.491   3.126  12.132  0.00  0.00    +0.000 C 
ATOM     12  O   UNL     1       4.498   2.858  11.464  0.00  0.00    +0.000 OA
ATOM     13  N   UNL     1       6.676   2.434  12.016  0.00  0.00    +0.000 N 
ATOM     14  H   UNL     1       7.282   2.331  12.833  0.00  0.00    +0.000 HD
BRANCH  13  15
ATOM     15  O   UNL     1       6.633   1.327  11.132  0.00  0.00    +0.000 OA
ATOM     16  H   UNL     1       6.240   0.623  11.693  0.00  0.00    +0.000 HD
ENDBRANCH  13  15
ENDBRANCH  10  11
ENDBRANCH   9  10
ENDBRANCH   7   9
ENDBRANCH   4   7
BRANCH   1  17
ATOM     17  O   UNL     1       3.359   6.058  19.898  0.00  0.00    +0.000 OA
BRANCH  17  18
ATOM     18  C   UNL     1       1.964   5.843  19.676  0.00  0.00    +0.000 C 
BRANCH  18  19
ATOM     19  C   UNL     1       1.585   4.387  19.913  0.00  0.00    +0.000 C 
BRANCH  19  21
ATOM     20  C   UNL     1       1.599   2.557  21.656  0.00  0.00    +0.000 C 
ATOM     21  C   UNL     1       2.058   3.959  21.303  0.00  0.00    +0.000 C 
ENDBRANCH  19  21
ENDBRANCH  18  19
ENDBRANCH  17  18
ENDBRANCH   1  17
TORSDOF 9
ENDMDL
MODEL 7
REMARK VINA RESULT:      -6.6      1.985      2.951
REMARK  Name = 
REMARK  10 active torsions:
REMARK  status: ('A' for Active; 'I' for Inactive)
REMARK    1  A    between atoms: C_1  and  C_2
REMARK    2  A    between atoms: C_2  and  C_3
REMARK    3  A    between atoms: C_3  and  C_4
REMARK    4  A    between atoms: C_4  and  O_5
REMARK    5  A    between atoms: O_5  and  C_6
REMARK    6  A    between atoms: C_9  and  C_10
REMARK    7  A    between atoms: C_10  and  C_12
REMARK    8  A    between atoms: C_12  and  C_13
REMARK    9  A    between atoms: C_13  and  C_14
REMARK   10  A    between atoms: N_16  and  O_17
REMARK                            x       y       z     vdW  Elec       q    Type
REMARK                         _______ _______ _______ _____ _____    ______ ____
ROOT
ATOM      1  C   UNL     1       2.379   5.352  19.570  0.00  0.00    +0.000 A 
ATOM      2  C   UNL     1       2.227   5.979  18.330  0.00  0.00    +0.000 A 
ATOM      3  C   UNL     1       3.340   6.339  17.575  0.00  0.00    +0.000 A 
ATOM      4  C   UNL     1       4.629   6.072  18.041  0.00  0.00    +0.000 A 
ATOM      5  C   UNL     1       4.793   5.450  19.284  0.00  0.00    +0.000 A 
ATOM      6  C   UNL     1       3.667   5.092  20.042  0.00  0.00    +0.000 A 
ENDROOT
BRANCH   4   7
ATOM      7  C   UNL     1       5.763   6.511  17.183  0.00  0.00    +0.000 C 
ATOM      8  O   UNL     1       5.558   7.338  16.292  0.00  0.00    +0.000 OA
BRANCH   7   9
ATOM      9  C   UNL     1       7.135   5.898  17.375  0.00  0.00    +0.000 C 
BRANCH   9  10
ATOM     10  C   UNL     1       7.175   4.468  16.848  0.00  0.00    +0.000 C 
BRANCH  10  11
ATOM     11  C   UNL     1       7.113   4.452  15.335  0.00  0.00    +0.000 C 
ATOM     12  O   UNL     1       7.662   5.299  14.638  0.00  0.00    +0.000 OA
ATOM     13  N   UNL     1       6.340   3.441  14.810  0.00  0.00    +0.000 N 
ATOM     14  H   UNL     1       5.554   3.073  15.351  0.00  0.00    +0.000 HD
BRANCH  13  15
ATOM     15  O   UNL     1       6.149   3.507  13.407  0.00  0.00    +0.000 OA
ATOM     16  H   UNL     1       6.042   4.470  13.252  0.00  0.00    +0.000 HD
ENDBRANCH  13  15
ENDBRANCH  10  11
ENDBRANCH   9  10
ENDBRANCH   7   9
ENDBRANCH   4   7
BRANCH   1  17
ATOM     17  O   UNL     1       1.344   4.966  20.385  0.00  0.00    +0.000 OA
BRANCH  17  18
ATOM     18  C   UNL     1       1.243   3.555  20.588  0.00  0.00    +0.000 C 
BRANCH  18  19
ATOM     19  C   UNL     1       0.862   2.838  19.299  0.00  0.00    +0.000 C 
BRANCH  19  21
ATOM     20  C   UNL     1       2.633   2.248  17.595  0.00  0.00    +0.000 C 
ATOM     21  C   UNL     1       1.978   1.867  18.909  0.00  0.00    +0.000 C 
ENDBRANCH  19  21
ENDBRANCH  18  19
ENDBRANCH  17  18
ENDBRANCH   1  17
TORSDOF 9
ENDMDL
MODEL 8
REMARK VINA RESULT:      -6.6      2.331      3.136
REMARK  Name = 
REMARK  10 active torsions:
REMARK  status: ('A' for Active; 'I' for Inactive)
REMARK    1  A    between atoms: C_1  and  C_2
REMARK    2  A    between atoms: C_2  and  C_3
REMARK    3  A    between atoms: C_3  and  C_4
REMARK    4  A    between atoms: C_4  and  O_5
REMARK    5  A    between atoms: O_5  and  C_6
REMARK    6  A    between atoms: C_9  and  C_10
REMARK    7  A    between atoms: C_10  and  C_12
REMARK    8  A    between atoms: C_12  and  C_13
REMARK    9  A    between atoms: C_13  and  C_14
REMARK   10  A    between atoms: N_16  and  O_17
REMARK                            x       y       z     vdW  Elec       q    Type
REMARK                         _______ _______ _______ _____ _____    ______ ____
ROOT
ATOM      1  C   UNL     1       3.528   2.748  18.729  0.00  0.00    +0.000 A 
ATOM      2  C   UNL     1       4.632   3.264  19.413  0.00  0.00    +0.000 A 
ATOM      3  C   UNL     1       5.322   4.369  18.919  0.00  0.00    +0.000 A 
ATOM      4  C   UNL     1       4.916   4.985  17.733  0.00  0.00    +0.000 A 
ATOM      5  C   UNL     1       3.815   4.473  17.037  0.00  0.00    +0.000 A 
ATOM      6  C   UNL     1       3.127   3.358  17.538  0.00  0.00    +0.000 A 
ENDROOT
BRANCH   4   7
ATOM      7  C   UNL     1       5.722   6.145  17.264  0.00  0.00    +0.000 C 
ATOM      8  O   UNL     1       5.162   7.225  17.067  0.00  0.00    +0.000 OA
BRANCH   7   9
ATOM      9  C   UNL     1       7.200   5.972  16.982  0.00  0.00    +0.000 C 
BRANCH   9  10
ATOM     10  C   UNL     1       7.462   4.689  16.200  0.00  0.00    +0.000 C 
BRANCH  10  11
ATOM     11  C   UNL     1       7.177   4.890  14.728  0.00  0.00    +0.000 C 
ATOM     12  O   UNL     1       6.177   4.440  14.175  0.00  0.00    +0.000 OA
ATOM     13  N   UNL     1       8.160   5.572  14.048  0.00  0.00    +0.000 N 
ATOM     14  H   UNL     1       9.130   5.515  14.370  0.00  0.00    +0.000 HD
BRANCH  13  15
ATOM     15  O   UNL     1       7.978   5.633  12.643  0.00  0.00    +0.000 OA
ATOM     16  H   UNL     1       8.027   4.688  12.381  0.00  0.00    +0.000 HD
ENDBRANCH  13  15
ENDBRANCH  10  11
ENDBRANCH   9  10
ENDBRANCH   7   9
ENDBRANCH   4   7
BRANCH   1  17
ATOM     17  O   UNL     1       2.791   1.663  19.134  0.00  0.00    +0.000 OA
BRANCH  17  18
ATOM     18  C   UNL     1       1.434   1.959  19.469  0.00  0.00    +0.000 C 
BRANCH  18  19
ATOM     19  C   UNL     1       1.348   2.791  20.742  0.00  0.00    +0.000 C 
BRANCH  19  21
ATOM     20  C   UNL     1       1.905   5.256  20.726  0.00  0.00    +0.000 C 
ATOM     21  C   UNL     1       0.867   4.201  20.396  0.00  0.00    +0.000 C 
ENDBRANCH  19  21
ENDBRANCH  18  19
ENDBRANCH  17  18
ENDBRANCH   1  17
TORSDOF 9
ENDMDL
MODEL 9
REMARK VINA RESULT:      -6.6      3.135      7.391
REMARK  Name = 
REMARK  10 active torsions:
REMARK  status: ('A' for Active; 'I' for Inactive)
REMARK    1  A    between atoms: C_1  and  C_2
REMARK    2  A    between atoms: C_2  and  C_3
REMARK    3  A    between atoms: C_3  and  C_4
REMARK    4  A    between atoms: C_4  and  O_5
REMARK    5  A    between atoms: O_5  and  C_6
REMARK    6  A    between atoms: C_9  and  C_10
REMARK    7  A    between atoms: C_10  and  C_12
REMARK    8  A    between atoms: C_12  and  C_13
REMARK    9  A    between atoms: C_13  and  C_14
REMARK   10  A    between atoms: N_16  and  O_17
REMARK                            x       y       z     vdW  Elec       q    Type
REMARK                         _______ _______ _______ _____ _____    ______ ____
ROOT
ATOM      1  C   UNL     1       5.593   5.513  15.674  0.00  0.00    +0.000 A 
ATOM      2  C   UNL     1       5.058   6.597  16.375  0.00  0.00    +0.000 A 
ATOM      3  C   UNL     1       4.034   6.408  17.301  0.00  0.00    +0.000 A 
ATOM      4  C   UNL     1       3.529   5.130  17.549  0.00  0.00    +0.000 A 
ATOM      5  C   UNL     1       4.054   4.038  16.848  0.00  0.00    +0.000 A 
ATOM      6  C   UNL     1       5.084   4.235  15.915  0.00  0.00    +0.000 A 
ENDROOT
BRANCH   4   7
ATOM      7  C   UNL     1       2.420   5.021  18.535  0.00  0.00    +0.000 C 
ATOM      8  O   UNL     1       2.418   5.761  19.521  0.00  0.00    +0.000 OA
BRANCH   7   9
ATOM      9  C   UNL     1       1.345   3.971  18.347  0.00  0.00    +0.000 C 
BRANCH   9  10
ATOM     10  C   UNL     1       1.835   2.598  18.795  0.00  0.00    +0.000 C 
BRANCH  10  11
ATOM     11  C   UNL     1       2.152   2.599  20.275  0.00  0.00    +0.000 C 
ATOM     12  O   UNL     1       3.286   2.428  20.713  0.00  0.00    +0.000 OA
ATOM     13  N   UNL     1       1.053   2.750  21.091  0.00  0.00    +0.000 N 
ATOM     14  H   UNL     1       0.139   2.421  20.771  0.00  0.00    +0.000 HD
BRANCH  13  15
ATOM     15  O   UNL     1       1.316   2.598  22.475  0.00  0.00    +0.000 OA
ATOM     16  H   UNL     1       2.192   3.030  22.574  0.00  0.00    +0.000 HD
ENDBRANCH  13  15
ENDBRANCH  10  11
ENDBRANCH   9  10
ENDBRANCH   7   9
ENDBRANCH   4   7
BRANCH   1  17
ATOM     17  O   UNL     1       6.597   5.601  14.742  0.00  0.00    +0.000 OA
BRANCH  17  18
ATOM     18  C   UNL     1       6.990   4.350  14.173  0.00  0.00    +0.000 C 
BRANCH  18  19
ATOM     19  C   UNL     1       6.965   4.405  12.651  0.00  0.00    +0.000 C 
BRANCH  19  21
ATOM     20  C   UNL     1       4.762   3.413  11.910  0.00  0.00    +0.000 C 
ATOM     21  C   UNL     1       6.245   3.169  12.110  0.00  0.00    +0.000 C 
ENDBRANCH  19  21
ENDBRANCH  18  19
ENDBRANCH  17  18
ENDBRANCH   1  17
TORSDOF 9
ENDMDL
