MODEL 1
REMARK VINA RESULT:      -6.8      0.000      0.000
REMARK  Name = 
REMARK  7 active torsions:
REMARK  status: ('A' for Active; 'I' for Inactive)
REMARK    1  A    between atoms: C_1  and  N_2
REMARK    2  A    between atoms: N_2  and  C_3
REMARK    3  A    between atoms: N_2  and  S_4
REMARK    4  A    between atoms: S_4  and  C_7
REMARK    5  A    between atoms: C_10  and  N_11
REMARK    6  A    between atoms: C_16  and  C_17
REMARK    7  A    between atoms: C_22  and  C_23
REMARK                            x       y       z     vdW  Elec       q    Type
REMARK                         _______ _______ _______ _____ _____    ______ ____
ROOT
ATOM      1  C   UNL     1       1.354   8.908  19.538  0.00  0.00    +0.000 A 
ATOM      2  C   UNL     1       0.987   8.546  20.824  0.00  0.00    +0.000 A 
ATOM      3  C   UNL     1       1.126   7.213  21.211  0.00  0.00    +0.000 A 
ATOM      4  C   UNL     1       1.695   6.219  20.372  0.00  0.00    +0.000 A 
ATOM      5  C   UNL     1       2.076   6.624  19.065  0.00  0.00    +0.000 A 
ATOM      6  C   UNL     1       1.830   7.949  18.652  0.00  0.00    +0.000 A 
ENDROOT
BRANCH   5   7
ATOM      7  C   UNL     1       2.576   5.700  18.000  0.00  0.00    +0.000 C 
ATOM      8  O   UNL     1       1.737   5.083  17.343  0.00  0.00    +0.000 OA
ATOM      9  N   UNL     1       3.957   5.593  17.715  0.00  0.00    +0.000 N 
ATOM     10  C   UNL     1       4.336   4.895  16.487  0.00  0.00    +0.000 C 
ATOM     11  C   UNL     1       5.522   3.966  16.726  0.00  0.00    +0.000 C 
ATOM     12  C   UNL     1       6.724   4.727  17.293  0.00  0.00    +0.000 C 
ATOM     13  C   UNL     1       6.305   5.477  18.561  0.00  0.00    +0.000 C 
ATOM     14  C   UNL     1       5.053   6.327  18.368  0.00  0.00    +0.000 C 
BRANCH  12  15
ATOM     15  C   UNL     1       7.348   5.655  16.255  0.00  0.00    +0.000 C 
ATOM     16  N   UNL     1       7.511   5.108  15.013  0.00  0.00    +0.000 N 
ATOM     17  O   UNL     1       7.700   6.808  16.468  0.00  0.00    +0.000 OA
ATOM     18  H   UNL     1       7.400   4.123  14.840  0.00  0.00    +0.000 HD
ATOM     19  H   UNL     1       7.983   5.671  14.317  0.00  0.00    +0.000 HD
ENDBRANCH  12  15
ENDBRANCH   5   7
BRANCH   4  20
ATOM     20  N   UNL     1       1.806   4.963  20.957  0.00  0.00    +0.000 N 
ATOM     21  C   UNL     1       3.062   4.277  21.257  0.00  0.00    +0.000 C 
ATOM     22  C   UNL     1       2.874   2.864  20.713  0.00  0.00    +0.000 C 
ATOM     23  C   UNL     1       1.382   2.624  20.876  0.00  0.00    +0.000 C 
ATOM     24  C   UNL     1       0.767   3.990  20.586  0.00  0.00    +0.000 C 
ENDBRANCH   4  20
BRANCH   1  25
ATOM     25  S   UNL     1       1.368  10.620  19.050  0.00  0.00    +0.000 S 
ATOM     26  O   UNL     1       2.210  10.719  17.878  0.00  0.00    +0.000 OA
ATOM     27  O   UNL     1       1.646  11.400  20.240  0.00  0.00    +0.000 OA
BRANCH  25  29
ATOM     28  C   UNL     1      -0.875   9.901  17.724  0.00  0.00    +0.000 C 
ATOM     29  N   UNL     1      -0.241  10.905  18.593  0.00  0.00    +0.000 NA
ATOM     30  C   UNL     1      -1.129  11.428  19.644  0.00  0.00    +0.000 C 
ENDBRANCH  25  29
ENDBRANCH   1  25
TORSDOF 5
ENDMDL
MODEL 2
REMARK VINA RESULT:      -6.7      2.294      6.174
REMARK  Name = 
REMARK  7 active torsions:
REMARK  status: ('A' for Active; 'I' for Inactive)
REMARK    1  A    between atoms: C_1  and  N_2
REMARK    2  A    between atoms: N_2  and  C_3
REMARK    3  A    between atoms: N_2  and  S_4
REMARK    4  A    between atoms: S_4  and  C_7
REMARK    5  A    between atoms: C_10  and  N_11
REMARK    6  A    between atoms: C_16  and  C_17
REMARK    7  A    between atoms: C_22  and  C_23
REMARK                            x       y       z     vdW  Elec       q    Type
REMARK                         _______ _______ _______ _____ _____    ______ ____
ROOT
ATOM      1  C   UNL     1       5.305   5.360  17.282  0.00  0.00    +0.000 A 
ATOM      2  C   UNL     1       5.233   3.980  17.191  0.00  0.00    +0.000 A 
ATOM      3  C   UNL     1       4.297   3.305  17.974  0.00  0.00    +0.000 A 
ATOM      4  C   UNL     1       3.361   3.971  18.809  0.00  0.00    +0.000 A 
ATOM      5  C   UNL     1       3.450   5.387  18.870  0.00  0.00    +0.000 A 
ATOM      6  C   UNL     1       4.470   6.047  18.156  0.00  0.00    +0.000 A 
ENDROOT
BRANCH   5   7
ATOM      7  C   UNL     1       2.638   6.253  19.781  0.00  0.00    +0.000 C 
ATOM      8  O   UNL     1       2.437   5.842  20.924  0.00  0.00    +0.000 OA
ATOM      9  N   UNL     1       2.180   7.524  19.365  0.00  0.00    +0.000 N 
ATOM     10  C   UNL     1       1.647   8.415  20.395  0.00  0.00    +0.000 C 
ATOM     11  C   UNL     1       0.378   9.112  19.916  0.00  0.00    +0.000 C 
ATOM     12  C   UNL     1       0.622   9.891  18.619  0.00  0.00    +0.000 C 
ATOM     13  C   UNL     1       1.208   8.952  17.560  0.00  0.00    +0.000 C 
ATOM     14  C   UNL     1       2.414   8.163  18.060  0.00  0.00    +0.000 C 
BRANCH  12  15
ATOM     15  C   UNL     1       1.501  11.117  18.852  0.00  0.00    +0.000 C 
ATOM     16  N   UNL     1       2.298  11.466  17.798  0.00  0.00    +0.000 N 
ATOM     17  O   UNL     1       1.533  11.768  19.887  0.00  0.00    +0.000 OA
ATOM     18  H   UNL     1       2.432  10.865  17.002  0.00  0.00    +0.000 HD
ATOM     19  H   UNL     1       2.944  12.232  17.938  0.00  0.00    +0.000 HD
ENDBRANCH  12  15
ENDBRANCH   5   7
BRANCH   4  20
ATOM     20  N   UNL     1       2.468   3.130  19.463  0.00  0.00    +0.000 N 
ATOM     21  C   UNL     1       1.022   3.100  19.249  0.00  0.00    +0.000 C 
ATOM     22  C   UNL     1       0.420   3.123  20.651  0.00  0.00    +0.000 C 
ATOM     23  C   UNL     1       1.459   2.395  21.488  0.00  0.00    +0.000 C 
ATOM     24  C   UNL     1       2.784   2.828  20.868  0.00  0.00    +0.000 C 
ENDBRANCH   4  20
BRANCH   1  25
ATOM     25  S   UNL     1       6.352   6.285  16.179  0.00  0.00    +0.000 S 
ATOM     26  O   UNL     1       5.574   7.404  15.695  0.00  0.00    +0.000 OA
ATOM     27  O   UNL     1       6.949   5.335  15.261  0.00  0.00    +0.000 OA
BRANCH  25  29
ATOM     28  C   UNL     1       7.597   8.321  17.450  0.00  0.00    +0.000 C 
ATOM     29  N   UNL     1       7.572   6.870  17.203  0.00  0.00    +0.000 NA
ATOM     30  C   UNL     1       7.860   6.058  18.396  0.00  0.00    +0.000 C 
ENDBRANCH  25  29
ENDBRANCH   1  25
TORSDOF 5
ENDMDL
MODEL 3
REMARK VINA RESULT:      -6.5      6.446      9.504
REMARK  Name = 
REMARK  7 active torsions:
REMARK  status: ('A' for Active; 'I' for Inactive)
REMARK    1  A    between atoms: C_1  and  N_2
REMARK    2  A    between atoms: N_2  and  C_3
REMARK    3  A    between atoms: N_2  and  S_4
REMARK    4  A    between atoms: S_4  and  C_7
REMARK    5  A    between atoms: C_10  and  N_11
REMARK    6  A    between atoms: C_16  and  C_17
REMARK    7  A    between atoms: C_22  and  C_23
REMARK                            x       y       z     vdW  Elec       q    Type
REMARK                         _______ _______ _______ _____ _____    ______ ____
ROOT
ATOM      1  C   UNL     1       0.106  14.928  19.985  0.00  0.00    +0.000 A 
ATOM      2  C   UNL     1       0.550  14.493  21.223  0.00  0.00    +0.000 A 
ATOM      3  C   UNL     1       0.175  13.222  21.659  0.00  0.00    +0.000 A 
ATOM      4  C   UNL     1      -0.581  12.322  20.863  0.00  0.00    +0.000 A 
ATOM      5  C   UNL     1      -1.008  12.791  19.593  0.00  0.00    +0.000 A 
ATOM      6  C   UNL     1      -0.713  14.115  19.210  0.00  0.00    +0.000 A 
ENDROOT
BRANCH   5   7
ATOM      7  C   UNL     1      -1.912  12.040  18.668  0.00  0.00    +0.000 C 
ATOM      8  O   UNL     1      -1.391  11.437  17.729  0.00  0.00    +0.000 OA
ATOM      9  N   UNL     1      -3.305  11.969  18.904  0.00  0.00    +0.000 N 
ATOM     10  C   UNL     1      -4.068  10.993  18.127  0.00  0.00    +0.000 C 
ATOM     11  C   UNL     1      -5.381  11.590  17.631  0.00  0.00    +0.000 C 
ATOM     12  C   UNL     1      -6.228  12.121  18.791  0.00  0.00    +0.000 C 
ATOM     13  C   UNL     1      -5.406  13.119  19.613  0.00  0.00    +0.000 C 
ATOM     14  C   UNL     1      -4.041  12.575  20.025  0.00  0.00    +0.000 C 
BRANCH  12  15
ATOM     15  C   UNL     1      -6.785  10.989  19.650  0.00  0.00    +0.000 C 
ATOM     16  N   UNL     1      -7.289   9.926  18.952  0.00  0.00    +0.000 N 
ATOM     17  O   UNL     1      -6.810  10.986  20.874  0.00  0.00    +0.000 OA
ATOM     18  H   UNL     1      -7.446   9.961  17.958  0.00  0.00    +0.000 HD
ATOM     19  H   UNL     1      -7.727   9.187  19.485  0.00  0.00    +0.000 HD
ENDBRANCH  12  15
ENDBRANCH   5   7
BRANCH   4  20
ATOM     20  N   UNL     1      -0.802  11.079  21.446  0.00  0.00    +0.000 N 
ATOM     21  C   UNL     1      -1.085  10.846  22.861  0.00  0.00    +0.000 C 
ATOM     22  C   UNL     1      -0.146   9.714  23.266  0.00  0.00    +0.000 C 
ATOM     23  C   UNL     1      -0.007   8.903  21.988  0.00  0.00    +0.000 C 
ATOM     24  C   UNL     1      -0.021   9.963  20.890  0.00  0.00    +0.000 C 
ENDBRANCH   4  20
BRANCH   1  25
ATOM     25  S   UNL     1       0.699  16.462  19.300  0.00  0.00    +0.000 S 
ATOM     26  O   UNL     1       1.700  16.126  18.313  0.00  0.00    +0.000 OA
ATOM     27  O   UNL     1       1.009  17.334  20.416  0.00  0.00    +0.000 OA
BRANCH  25  29
ATOM     28  C   UNL     1      -1.757  17.592  19.354  0.00  0.00    +0.000 C 
ATOM     29  N   UNL     1      -0.666  17.083  18.506  0.00  0.00    +0.000 NA
ATOM     30  C   UNL     1      -0.402  17.909  17.317  0.00  0.00    +0.000 C 
ENDBRANCH  25  29
ENDBRANCH   1  25
TORSDOF 5
ENDMDL
MODEL 4
REMARK VINA RESULT:      -6.5      1.088      1.316
REMARK  Name = 
REMARK  7 active torsions:
REMARK  status: ('A' for Active; 'I' for Inactive)
REMARK    1  A    between atoms: C_1  and  N_2
REMARK    2  A    between atoms: N_2  and  C_3
REMARK    3  A    between atoms: N_2  and  S_4
REMARK    4  A    between atoms: S_4  and  C_7
REMARK    5  A    between atoms: C_10  and  N_11
REMARK    6  A    between atoms: C_16  and  C_17
REMARK    7  A    between atoms: C_22  and  C_23
REMARK                            x       y       z     vdW  Elec       q    Type
REMARK                         _______ _______ _______ _____ _____    ______ ____
ROOT
ATOM      1  C   UNL     1       1.313   8.593  19.309  0.00  0.00    +0.000 A 
ATOM      2  C   UNL     1       1.110   8.294  20.646  0.00  0.00    +0.000 A 
ATOM      3  C   UNL     1       1.416   7.010  21.098  0.00  0.00    +0.000 A 
ATOM      4  C   UNL     1       1.996   6.014  20.269  0.00  0.00    +0.000 A 
ATOM      5  C   UNL     1       2.205   6.356  18.907  0.00  0.00    +0.000 A 
ATOM      6  C   UNL     1       1.792   7.620  18.440  0.00  0.00    +0.000 A 
ENDROOT
BRANCH   5   7
ATOM      7  C   UNL     1       2.687   5.407  17.855  0.00  0.00    +0.000 C 
ATOM      8  O   UNL     1       1.839   4.749  17.253  0.00  0.00    +0.000 OA
ATOM      9  N   UNL     1       4.058   5.323  17.520  0.00  0.00    +0.000 N 
ATOM     10  C   UNL     1       4.407   4.591  16.303  0.00  0.00    +0.000 C 
ATOM     11  C   UNL     1       5.624   3.698  16.527  0.00  0.00    +0.000 C 
ATOM     12  C   UNL     1       6.828   4.506  17.022  0.00  0.00    +0.000 C 
ATOM     13  C   UNL     1       6.439   5.290  18.279  0.00  0.00    +0.000 C 
ATOM     14  C   UNL     1       5.160   6.104  18.106  0.00  0.00    +0.000 C 
BRANCH  12  15
ATOM     15  C   UNL     1       7.389   5.412  15.929  0.00  0.00    +0.000 C 
ATOM     16  N   UNL     1       7.759   6.661  16.345  0.00  0.00    +0.000 N 
ATOM     17  O   UNL     1       7.512   5.096  14.753  0.00  0.00    +0.000 OA
ATOM     18  H   UNL     1       7.517   7.019  17.254  0.00  0.00    +0.000 HD
ATOM     19  H   UNL     1       8.072   7.312  15.637  0.00  0.00    +0.000 HD
ENDBRANCH  12  15
ENDBRANCH   5   7
BRANCH   4  20
ATOM     20  N   UNL     1       2.286   4.819  20.916  0.00  0.00    +0.000 N 
ATOM     21  C   UNL     1       3.556   4.100  20.837  0.00  0.00    +0.000 C 
ATOM     22  C   UNL     1       3.167   2.652  20.554  0.00  0.00    +0.000 C 
ATOM     23  C   UNL     1       1.825   2.510  21.252  0.00  0.00    +0.000 C 
ATOM     24  C   UNL     1       1.168   3.871  21.042  0.00  0.00    +0.000 C 
ENDBRANCH   4  20
BRANCH   1  25
ATOM     25  S   UNL     1       1.111  10.260  18.715  0.00  0.00    +0.000 S 
ATOM     26  O   UNL     1      -0.070  10.273  17.882  0.00  0.00    +0.000 OA
ATOM     27  O   UNL     1       2.397  10.686  18.199  0.00  0.00    +0.000 OA
BRANCH  25  29
ATOM     28  C   UNL     1       1.669  12.285  20.417  0.00  0.00    +0.000 C 
ATOM     29  N   UNL     1       0.792  11.139  20.131  0.00  0.00    +0.000 NA
ATOM     30  C   UNL     1      -0.628  11.386  20.433  0.00  0.00    +0.000 C 
ENDBRANCH  25  29
ENDBRANCH   1  25
TORSDOF 5
ENDMDL
MODEL 5
REMARK VINA RESULT:      -6.5      1.511      1.927
REMARK  Name = 
REMARK  7 active torsions:
REMARK  status: ('A' for Active; 'I' for Inactive)
REMARK    1  A    between atoms: C_1  and  N_2
REMARK    2  A    between atoms: N_2  and  C_3
REMARK    3  A    between atoms: N_2  and  S_4
REMARK    4  A    between atoms: S_4  and  C_7
REMARK    5  A    between atoms: C_10  and  N_11
REMARK    6  A    between atoms: C_16  and  C_17
REMARK    7  A    between atoms: C_22  and  C_23
REMARK                            x       y       z     vdW  Elec       q    Type
REMARK                         _______ _______ _______ _____ _____    ______ ____
ROOT
ATOM      1  C   UNL     1       0.842   9.235  20.645  0.00  0.00    +0.000 A 
ATOM      2  C   UNL     1       0.458   8.220  21.506  0.00  0.00    +0.000 A 
ATOM      3  C   UNL     1       0.838   6.911  21.211  0.00  0.00    +0.000 A 
ATOM      4  C   UNL     1       1.665   6.576  20.106  0.00  0.00    +0.000 A 
ATOM      5  C   UNL     1       2.055   7.639  19.250  0.00  0.00    +0.000 A 
ATOM      6  C   UNL     1       1.574   8.940  19.501  0.00  0.00    +0.000 A 
ENDROOT
BRANCH   5   7
ATOM      7  C   UNL     1       2.817   7.469  17.974  0.00  0.00    +0.000 C 
ATOM      8  O   UNL     1       2.437   8.112  16.995  0.00  0.00    +0.000 OA
ATOM      9  N   UNL     1       3.970   6.653  17.915  0.00  0.00    +0.000 N 
ATOM     10  C   UNL     1       4.810   6.764  16.723  0.00  0.00    +0.000 C 
ATOM     11  C   UNL     1       5.259   5.390  16.236  0.00  0.00    +0.000 C 
ATOM     12  C   UNL     1       6.001   4.622  17.335  0.00  0.00    +0.000 C 
ATOM     13  C   UNL     1       5.122   4.540  18.587  0.00  0.00    +0.000 C 
ATOM     14  C   UNL     1       4.573   5.895  19.023  0.00  0.00    +0.000 C 
BRANCH  12  15
ATOM     15  C   UNL     1       7.368   5.235  17.630  0.00  0.00    +0.000 C 
ATOM     16  N   UNL     1       8.006   4.726  18.727  0.00  0.00    +0.000 N 
ATOM     17  O   UNL     1       7.894   6.123  16.971  0.00  0.00    +0.000 OA
ATOM     18  H   UNL     1       7.542   4.128  19.390  0.00  0.00    +0.000 HD
ATOM     19  H   UNL     1       8.883   5.154  18.993  0.00  0.00    +0.000 HD
ENDBRANCH  12  15
ENDBRANCH   5   7
BRANCH   4  20
ATOM     20  N   UNL     1       1.987   5.226  20.013  0.00  0.00    +0.000 N 
ATOM     21  C   UNL     1       1.421   4.286  19.048  0.00  0.00    +0.000 C 
ATOM     22  C   UNL     1       1.021   3.069  19.879  0.00  0.00    +0.000 C 
ATOM     23  C   UNL     1       2.044   3.064  21.003  0.00  0.00    +0.000 C 
ATOM     24  C   UNL     1       2.268   4.546  21.287  0.00  0.00    +0.000 C 
ENDBRANCH   4  20
BRANCH   1  25
ATOM     25  S   UNL     1       0.541  10.939  21.064  0.00  0.00    +0.000 S 
ATOM     26  O   UNL     1       1.519  11.730  20.350  0.00  0.00    +0.000 OA
ATOM     27  O   UNL     1       0.430  11.009  22.508  0.00  0.00    +0.000 OA
BRANCH  25  29
ATOM     28  C   UNL     1      -1.731  12.397  20.922  0.00  0.00    +0.000 C 
ATOM     29  N   UNL     1      -0.993  11.236  20.400  0.00  0.00    +0.000 NA
ATOM     30  C   UNL     1      -1.112  11.058  18.944  0.00  0.00    +0.000 C 
ENDBRANCH  25  29
ENDBRANCH   1  25
TORSDOF 5
ENDMDL
MODEL 6
REMARK VINA RESULT:      -6.4      2.270      6.319
REMARK  Name = 
REMARK  7 active torsions:
REMARK  status: ('A' for Active; 'I' for Inactive)
REMARK    1  A    between atoms: C_1  and  N_2
REMARK    2  A    between atoms: N_2  and  C_3
REMARK    3  A    between atoms: N_2  and  S_4
REMARK    4  A    between atoms: S_4  and  C_7
REMARK    5  A    between atoms: C_10  and  N_11
REMARK    6  A    between atoms: C_16  and  C_17
REMARK    7  A    between atoms: C_22  and  C_23
REMARK                            x       y       z     vdW  Elec       q    Type
REMARK                         _______ _______ _______ _____ _____    ______ ____
ROOT
ATOM      1  C   UNL     1       5.152   5.212  16.945  0.00  0.00    +0.000 A 
ATOM      2  C   UNL     1       5.057   3.831  16.896  0.00  0.00    +0.000 A 
ATOM      3  C   UNL     1       4.190   3.187  17.779  0.00  0.00    +0.000 A 
ATOM      4  C   UNL     1       3.345   3.886  18.681  0.00  0.00    +0.000 A 
ATOM      5  C   UNL     1       3.455   5.302  18.698  0.00  0.00    +0.000 A 
ATOM      6  C   UNL     1       4.411   5.931  17.875  0.00  0.00    +0.000 A 
ENDROOT
BRANCH   5   7
ATOM      7  C   UNL     1       2.742   6.200  19.659  0.00  0.00    +0.000 C 
ATOM      8  O   UNL     1       2.643   5.819  20.825  0.00  0.00    +0.000 OA
ATOM      9  N   UNL     1       2.261   7.467  19.255  0.00  0.00    +0.000 N 
ATOM     10  C   UNL     1       1.837   8.389  20.308  0.00  0.00    +0.000 C 
ATOM     11  C   UNL     1       0.537   9.093  19.932  0.00  0.00    +0.000 C 
ATOM     12  C   UNL     1       0.668   9.837  18.600  0.00  0.00    +0.000 C 
ATOM     13  C   UNL     1       1.142   8.866  17.514  0.00  0.00    +0.000 C 
ATOM     14  C   UNL     1       2.380   8.072  17.919  0.00  0.00    +0.000 C 
BRANCH  12  15
ATOM     15  C   UNL     1       1.579  11.056  18.719  0.00  0.00    +0.000 C 
ATOM     16  N   UNL     1       2.325  11.332  17.607  0.00  0.00    +0.000 N 
ATOM     17  O   UNL     1       1.678  11.761  19.715  0.00  0.00    +0.000 OA
ATOM     18  H   UNL     1       2.406  10.687  16.839  0.00  0.00    +0.000 HD
ATOM     19  H   UNL     1       2.990  12.092  17.672  0.00  0.00    +0.000 HD
ENDBRANCH  12  15
ENDBRANCH   5   7
BRANCH   4  20
ATOM     20  N   UNL     1       2.507   3.073  19.437  0.00  0.00    +0.000 N 
ATOM     21  C   UNL     1       1.046   3.106  19.410  0.00  0.00    +0.000 C 
ATOM     22  C   UNL     1       0.630   3.133  20.877  0.00  0.00    +0.000 C 
ATOM     23  C   UNL     1       1.735   2.351  21.567  0.00  0.00    +0.000 C 
ATOM     24  C   UNL     1       2.988   2.739  20.787  0.00  0.00    +0.000 C 
ENDBRANCH   4  20
BRANCH   1  25
ATOM     25  S   UNL     1       6.102   6.096  15.725  0.00  0.00    +0.000 S 
ATOM     26  O   UNL     1       7.321   6.529  16.370  0.00  0.00    +0.000 OA
ATOM     27  O   UNL     1       5.206   7.049  15.099  0.00  0.00    +0.000 OA
BRANCH  25  29
ATOM     28  C   UNL     1       5.353   4.277  13.871  0.00  0.00    +0.000 C 
ATOM     29  N   UNL     1       6.480   4.897  14.586  0.00  0.00    +0.000 NA
ATOM     30  C   UNL     1       7.652   5.161  13.735  0.00  0.00    +0.000 C 
ENDBRANCH  25  29
ENDBRANCH   1  25
TORSDOF 5
ENDMDL
MODEL 7
REMARK VINA RESULT:      -6.3      2.184      6.434
REMARK  Name = 
REMARK  7 active torsions:
REMARK  status: ('A' for Active; 'I' for Inactive)
REMARK    1  A    between atoms: C_1  and  N_2
REMARK    2  A    between atoms: N_2  and  C_3
REMARK    3  A    between atoms: N_2  and  S_4
REMARK    4  A    between atoms: S_4  and  C_7
REMARK    5  A    between atoms: C_10  and  N_11
REMARK    6  A    between atoms: C_16  and  C_17
REMARK    7  A    between atoms: C_22  and  C_23
REMARK                            x       y       z     vdW  Elec       q    Type
REMARK                         _______ _______ _______ _____ _____    ______ ____
ROOT
ATOM      1  C   UNL     1       4.759   5.853  17.158  0.00  0.00    +0.000 A 
ATOM      2  C   UNL     1       4.408   4.541  16.887  0.00  0.00    +0.000 A 
ATOM      3  C   UNL     1       3.341   3.975  17.585  0.00  0.00    +0.000 A 
ATOM      4  C   UNL     1       2.549   4.703  18.512  0.00  0.00    +0.000 A 
ATOM      5  C   UNL     1       2.924   6.049  18.758  0.00  0.00    +0.000 A 
ATOM      6  C   UNL     1       4.069   6.575  18.125  0.00  0.00    +0.000 A 
ENDROOT
BRANCH   5   7
ATOM      7  C   UNL     1       2.293   6.935  19.786  0.00  0.00    +0.000 C 
ATOM      8  O   UNL     1       2.268   6.529  20.947  0.00  0.00    +0.000 OA
ATOM      9  N   UNL     1       1.807   8.218  19.445  0.00  0.00    +0.000 N 
ATOM     10  C   UNL     1       1.470   9.121  20.545  0.00  0.00    +0.000 C 
ATOM     11  C   UNL     1       0.159   9.853  20.274  0.00  0.00    +0.000 C 
ATOM     12  C   UNL     1       0.212  10.627  18.953  0.00  0.00    +0.000 C 
ATOM     13  C   UNL     1       0.595   9.675  17.816  0.00  0.00    +0.000 C 
ATOM     14  C   UNL     1       1.845   8.853  18.117  0.00  0.00    +0.000 C 
BRANCH  12  15
ATOM     15  C   UNL     1       1.149  11.829  19.038  0.00  0.00    +0.000 C 
ATOM     16  N   UNL     1       1.706  12.213  17.850  0.00  0.00    +0.000 N 
ATOM     17  O   UNL     1       1.420  12.433  20.067  0.00  0.00    +0.000 OA
ATOM     18  H   UNL     1       1.650  11.646  17.020  0.00  0.00    +0.000 HD
ATOM     19  H   UNL     1       2.384  12.963  17.877  0.00  0.00    +0.000 HD
ENDBRANCH  12  15
ENDBRANCH   5   7
BRANCH   4  20
ATOM     20  N   UNL     1       1.493   3.983  19.060  0.00  0.00    +0.000 N 
ATOM     21  C   UNL     1       1.116   3.977  20.472  0.00  0.00    +0.000 C 
ATOM     22  C   UNL     1       0.943   2.502  20.822  0.00  0.00    +0.000 C 
ATOM     23  C   UNL     1       0.464   1.888  19.518  0.00  0.00    +0.000 C 
ATOM     24  C   UNL     1       1.231   2.669  18.454  0.00  0.00    +0.000 C 
ENDBRANCH   4  20
BRANCH   1  25
ATOM     25  S   UNL     1       5.989   6.682  16.174  0.00  0.00    +0.000 S 
ATOM     26  O   UNL     1       6.568   7.716  17.002  0.00  0.00    +0.000 OA
ATOM     27  O   UNL     1       5.373   6.999  14.901  0.00  0.00    +0.000 OA
BRANCH  25  29
ATOM     28  C   UNL     1       7.518   4.640  17.068  0.00  0.00    +0.000 C 
ATOM     29  N   UNL     1       7.153   5.475  15.912  0.00  0.00    +0.000 NA
ATOM     30  C   UNL     1       7.037   4.727  14.650  0.00  0.00    +0.000 C 
ENDBRANCH  25  29
ENDBRANCH   1  25
TORSDOF 5
ENDMDL
MODEL 8
REMARK VINA RESULT:      -6.3      6.467      9.548
REMARK  Name = 
REMARK  7 active torsions:
REMARK  status: ('A' for Active; 'I' for Inactive)
REMARK    1  A    between atoms: C_1  and  N_2
REMARK    2  A    between atoms: N_2  and  C_3
REMARK    3  A    between atoms: N_2  and  S_4
REMARK    4  A    between atoms: S_4  and  C_7
REMARK    5  A    between atoms: C_10  and  N_11
REMARK    6  A    between atoms: C_16  and  C_17
REMARK    7  A    between atoms: C_22  and  C_23
REMARK                            x       y       z     vdW  Elec       q    Type
REMARK                         _______ _______ _______ _____ _____    ______ ____
ROOT
ATOM      1  C   UNL     1       0.016  14.948  20.065  0.00  0.00    +0.000 A 
ATOM      2  C   UNL     1       0.472  14.498  21.292  0.00  0.00    +0.000 A 
ATOM      3  C   UNL     1       0.112  13.218  21.712  0.00  0.00    +0.000 A 
ATOM      4  C   UNL     1      -0.642  12.323  20.908  0.00  0.00    +0.000 A 
ATOM      5  C   UNL     1      -1.083  12.808  19.649  0.00  0.00    +0.000 A 
ATOM      6  C   UNL     1      -0.802  14.140  19.284  0.00  0.00    +0.000 A 
ENDROOT
BRANCH   5   7
ATOM      7  C   UNL     1      -1.987  12.062  18.718  0.00  0.00    +0.000 C 
ATOM      8  O   UNL     1      -1.467  11.478  17.768  0.00  0.00    +0.000 OA
ATOM      9  N   UNL     1      -3.377  11.977  18.963  0.00  0.00    +0.000 N 
ATOM     10  C   UNL     1      -4.138  11.007  18.177  0.00  0.00    +0.000 C 
ATOM     11  C   UNL     1      -5.459  11.600  17.698  0.00  0.00    +0.000 C 
ATOM     12  C   UNL     1      -6.303  12.107  18.872  0.00  0.00    +0.000 C 
ATOM     13  C   UNL     1      -5.483  13.100  19.703  0.00  0.00    +0.000 C 
ATOM     14  C   UNL     1      -4.111  12.561  20.097  0.00  0.00    +0.000 C 
BRANCH  12  15
ATOM     15  C   UNL     1      -6.845  10.958  19.718  0.00  0.00    +0.000 C 
ATOM     16  N   UNL     1      -7.291   9.878  19.008  0.00  0.00    +0.000 N 
ATOM     17  O   UNL     1      -6.905  10.957  20.940  0.00  0.00    +0.000 OA
ATOM     18  H   UNL     1      -7.421   9.905  18.011  0.00  0.00    +0.000 HD
ATOM     19  H   UNL     1      -7.720   9.125  19.531  0.00  0.00    +0.000 HD
ENDBRANCH  12  15
ENDBRANCH   5   7
BRANCH   4  20
ATOM     20  N   UNL     1      -0.848  11.069  21.474  0.00  0.00    +0.000 N 
ATOM     21  C   UNL     1      -1.100  10.811  22.890  0.00  0.00    +0.000 C 
ATOM     22  C   UNL     1      -0.150   9.674  23.254  0.00  0.00    +0.000 C 
ATOM     23  C   UNL     1      -0.037   8.887  21.960  0.00  0.00    +0.000 C 
ATOM     24  C   UNL     1      -0.077   9.965  20.881  0.00  0.00    +0.000 C 
ENDBRANCH   4  20
BRANCH   1  25
ATOM     25  S   UNL     1       0.589  16.497  19.399  0.00  0.00    +0.000 S 
ATOM     26  O   UNL     1       0.528  17.467  20.471  0.00  0.00    +0.000 OA
ATOM     27  O   UNL     1      -0.118  16.713  18.153  0.00  0.00    +0.000 OA
BRANCH  25  29
ATOM     28  C   UNL     1       3.210  16.545  20.063  0.00  0.00    +0.000 C 
ATOM     29  N   UNL     1       2.217  16.184  19.038  0.00  0.00    +0.000 NA
ATOM     30  C   UNL     1       2.496  14.905  18.365  0.00  0.00    +0.000 C 
ENDBRANCH  25  29
ENDBRANCH   1  25
TORSDOF 5
ENDMDL
MODEL 9
REMARK VINA RESULT:      -6.2      2.392      6.390
REMARK  Name = 
REMARK  7 active torsions:
REMARK  status: ('A' for Active; 'I' for Inactive)
REMARK    1  A    between atoms: C_1  and  N_2
REMARK    2  A    between atoms: N_2  and  C_3
REMARK    3  A    between atoms: N_2  and  S_4
REMARK    4  A    between atoms: S_4  and  C_7
REMARK    5  A    between atoms: C_10  and  N_11
REMARK    6  A    between atoms: C_16  and  C_17
REMARK    7  A    between atoms: C_22  and  C_23
REMARK                            x       y       z     vdW  Elec       q    Type
REMARK                         _______ _______ _______ _____ _____    ______ ____
ROOT
ATOM      1  C   UNL     1       5.465   5.749  17.555  0.00  0.00    +0.000 A 
ATOM      2  C   UNL     1       5.142   4.485  17.090  0.00  0.00    +0.000 A 
ATOM      3  C   UNL     1       3.943   3.905  17.505  0.00  0.00    +0.000 A 
ATOM      4  C   UNL     1       3.001   4.579  18.326  0.00  0.00    +0.000 A 
ATOM      5  C   UNL     1       3.354   5.879  18.774  0.00  0.00    +0.000 A 
ATOM      6  C   UNL     1       4.615   6.408  18.434  0.00  0.00    +0.000 A 
ENDROOT
BRANCH   5   7
ATOM      7  C   UNL     1       2.553   6.692  19.741  0.00  0.00    +0.000 C 
ATOM      8  O   UNL     1       2.394   6.236  20.873  0.00  0.00    +0.000 OA
ATOM      9  N   UNL     1       2.057   7.969  19.386  0.00  0.00    +0.000 N 
ATOM     10  C   UNL     1       1.538   8.809  20.464  0.00  0.00    +0.000 C 
ATOM     11  C   UNL     1       0.241   9.498  20.049  0.00  0.00    +0.000 C 
ATOM     12  C   UNL     1       0.432  10.329  18.777  0.00  0.00    +0.000 C 
ATOM     13  C   UNL     1       1.004   9.443  17.666  0.00  0.00    +0.000 C 
ATOM     14  C   UNL     1       2.240   8.661  18.101  0.00  0.00    +0.000 C 
BRANCH  12  15
ATOM     15  C   UNL     1       1.293  11.563  19.030  0.00  0.00    +0.000 C 
ATOM     16  N   UNL     1       1.015  12.235  20.188  0.00  0.00    +0.000 N 
ATOM     17  O   UNL     1       2.173  11.969  18.282  0.00  0.00    +0.000 OA
ATOM     18  H   UNL     1       0.196  12.042  20.739  0.00  0.00    +0.000 HD
ATOM     19  H   UNL     1       1.520  13.096  20.357  0.00  0.00    +0.000 HD
ENDBRANCH  12  15
ENDBRANCH   5   7
BRANCH   4  20
ATOM     20  N   UNL     1       1.838   3.860  18.582  0.00  0.00    +0.000 N 
ATOM     21  C   UNL     1       1.025   3.968  19.792  0.00  0.00    +0.000 C 
ATOM     22  C   UNL     1       0.777   2.525  20.223  0.00  0.00    +0.000 C 
ATOM     23  C   UNL     1       0.757   1.766  18.907  0.00  0.00    +0.000 C 
ATOM     24  C   UNL     1       1.811   2.482  18.067  0.00  0.00    +0.000 C 
ENDBRANCH   4  20
BRANCH   1  25
ATOM     25  S   UNL     1       6.889   6.609  16.919  0.00  0.00    +0.000 S 
ATOM     26  O   UNL     1       6.470   7.962  16.626  0.00  0.00    +0.000 OA
ATOM     27  O   UNL     1       7.472   5.767  15.893  0.00  0.00    +0.000 OA
BRANCH  25  29
ATOM     28  C   UNL     1       8.415   7.960  18.695  0.00  0.00    +0.000 C 
ATOM     29  N   UNL     1       7.947   6.639  18.245  0.00  0.00    +0.000 NA
ATOM     30  C   UNL     1       7.632   5.712  19.345  0.00  0.00    +0.000 C 
ENDBRANCH  25  29
ENDBRANCH   1  25
TORSDOF 5
ENDMDL
