MODEL 1
REMARK VINA RESULT:      -8.6      0.000      0.000
REMARK  Name = 
REMARK  7 active torsions:
REMARK  status: ('A' for Active; 'I' for Inactive)
REMARK    1  A    between atoms: O_1  and  C_2
REMARK    2  A    between atoms: C_2  and  C_3
REMARK    3  A    between atoms: C_2  and  C_28
REMARK    4  A    between atoms: C_3  and  N_4
REMARK    5  A    between atoms: C_7  and  N_8
REMARK    6  A    between atoms: N_17  and  C_18
REMARK    7  A    between atoms: C_18  and  C_19
REMARK                            x       y       z     vdW  Elec       q    Type
REMARK                         _______ _______ _______ _____ _____    ______ ____
ROOT
ATOM      1  N   UNL     1       5.363   5.803  18.492  0.00  0.00    +0.000 N 
ATOM      2  C   UNL     1       4.368   4.887  18.573  0.00  0.00    +0.000 A 
ATOM      3  N   UNL     1       4.275   3.750  17.923  0.00  0.00    +0.000 NA
ATOM      4  C   UNL     1       3.067   3.210  18.294  0.00  0.00    +0.000 A 
ATOM      5  C   UNL     1       2.457   2.018  17.875  0.00  0.00    +0.000 A 
ATOM      6  C   UNL     1       1.196   1.685  18.391  0.00  0.00    +0.000 A 
ATOM      7  C   UNL     1       0.559   2.520  19.308  0.00  0.00    +0.000 A 
ATOM      8  C   UNL     1       1.152   3.711  19.742  0.00  0.00    +0.000 A 
ATOM      9  C   UNL     1       2.409   4.027  19.207  0.00  0.00    +0.000 A 
ATOM     10  N   UNL     1       3.276   5.086  19.390  0.00  0.00    +0.000 N 
ATOM     11  H   UNL     1       5.077   6.631  17.973  0.00  0.00    +0.000 HD
ENDROOT
BRANCH   1  15
ATOM     12  N   UNL     1       8.193   7.908  17.803  0.00  0.00    +0.000 NA
ATOM     13  C   UNL     1       7.933   7.242  19.099  0.00  0.00    +0.000 C 
ATOM     14  C   UNL     1       7.820   5.726  18.960  0.00  0.00    +0.000 C 
ATOM     15  C   UNL     1       6.686   5.347  18.009  0.00  0.00    +0.000 C 
ATOM     16  C   UNL     1       6.977   6.022  16.661  0.00  0.00    +0.000 C 
ATOM     17  C   UNL     1       7.182   7.537  16.802  0.00  0.00    +0.000 C 
BRANCH  12  18
ATOM     18  C   UNL     1       8.242   9.385  18.035  0.00  0.00    +0.000 C 
BRANCH  18  19
ATOM     19  C   UNL     1       9.517   9.926  18.739  0.00  0.00    +0.000 C 
BRANCH  19  20
ATOM     20  C   UNL     1      10.010  11.253  18.200  0.00  0.00    +0.000 A 
ATOM     21  C   UNL     1      11.387  11.505  18.102  0.00  0.00    +0.000 A 
ATOM     22  C   UNL     1      11.855  12.773  17.749  0.00  0.00    +0.000 A 
ATOM     23  C   UNL     1      10.954  13.800  17.478  0.00  0.00    +0.000 A 
ATOM     24  C   UNL     1       9.584  13.556  17.537  0.00  0.00    +0.000 A 
ATOM     25  C   UNL     1       9.114  12.289  17.891  0.00  0.00    +0.000 A 
ENDBRANCH  19  20
BRANCH  19  26
ATOM     26  O   UNL     1       9.297  10.118  20.139  0.00  0.00    +0.000 OA
ATOM     27  H   UNL     1       9.327   9.236  20.541  0.00  0.00    +0.000 HD
ENDBRANCH  19  26
ENDBRANCH  18  19
ENDBRANCH  12  18
ENDBRANCH   1  15
BRANCH  10  28
ATOM     28  C   UNL     1       3.050   6.236  20.255  0.00  0.00    +0.000 C 
BRANCH  28  29
ATOM     29  C   UNL     1       2.296   7.399  19.639  0.00  0.00    +0.000 A 
ATOM     30  C   UNL     1       2.352   7.753  18.281  0.00  0.00    +0.000 A 
ATOM     31  C   UNL     1       1.676   8.885  17.810  0.00  0.00    +0.000 A 
ATOM     32  C   UNL     1       0.929   9.659  18.689  0.00  0.00    +0.000 A 
ATOM     33  F   UNL     1       0.308  10.757  18.241  0.00  0.00    +0.000 F 
ATOM     34  C   UNL     1       0.823   9.312  20.027  0.00  0.00    +0.000 A 
ATOM     35  C   UNL     1       1.500   8.185  20.499  0.00  0.00    +0.000 A 
ENDBRANCH  28  29
ENDBRANCH  10  28
TORSDOF 7
ENDMDL
MODEL 2
REMARK VINA RESULT:      -8.6      4.977      8.365
REMARK  Name = 
REMARK  7 active torsions:
REMARK  status: ('A' for Active; 'I' for Inactive)
REMARK    1  A    between atoms: O_1  and  C_2
REMARK    2  A    between atoms: C_2  and  C_3
REMARK    3  A    between atoms: C_2  and  C_28
REMARK    4  A    between atoms: C_3  and  N_4
REMARK    5  A    between atoms: C_7  and  N_8
REMARK    6  A    between atoms: N_17  and  C_18
REMARK    7  A    between atoms: C_18  and  C_19
REMARK                            x       y       z     vdW  Elec       q    Type
REMARK                         _______ _______ _______ _____ _____    ______ ____
ROOT
ATOM      1  N   UNL     1       2.018   7.689  20.773  0.00  0.00    +0.000 N 
ATOM      2  C   UNL     1       1.851   6.432  20.295  0.00  0.00    +0.000 A 
ATOM      3  N   UNL     1       1.207   5.440  20.866  0.00  0.00    +0.000 NA
ATOM      4  C   UNL     1       1.370   4.363  20.029  0.00  0.00    +0.000 A 
ATOM      5  C   UNL     1       0.912   3.044  20.173  0.00  0.00    +0.000 A 
ATOM      6  C   UNL     1       1.224   2.107  19.178  0.00  0.00    +0.000 A 
ATOM      7  C   UNL     1       1.972   2.476  18.061  0.00  0.00    +0.000 A 
ATOM      8  C   UNL     1       2.434   3.786  17.896  0.00  0.00    +0.000 A 
ATOM      9  C   UNL     1       2.117   4.705  18.907  0.00  0.00    +0.000 A 
ATOM     10  N   UNL     1       2.393   6.046  19.088  0.00  0.00    +0.000 N 
ATOM     11  H   UNL     1       2.968   7.846  21.104  0.00  0.00    +0.000 HD
ENDROOT
BRANCH   1  15
ATOM     12  N   UNL     1      -0.102  10.569  20.426  0.00  0.00    +0.000 NA
ATOM     13  C   UNL     1      -0.491   9.187  20.066  0.00  0.00    +0.000 C 
ATOM     14  C   UNL     1      -0.379   8.227  21.248  0.00  0.00    +0.000 C 
ATOM     15  C   UNL     1       1.052   8.181  21.780  0.00  0.00    +0.000 C 
ATOM     16  C   UNL     1       1.439   9.613  22.173  0.00  0.00    +0.000 C 
ATOM     17  C   UNL     1       1.243  10.605  21.018  0.00  0.00    +0.000 C 
BRANCH  12  18
ATOM     18  C   UNL     1      -0.202  11.420  19.199  0.00  0.00    +0.000 C 
BRANCH  18  19
ATOM     19  C   UNL     1      -1.575  12.102  18.949  0.00  0.00    +0.000 C 
BRANCH  19  20
ATOM     20  C   UNL     1      -2.424  11.422  17.894  0.00  0.00    +0.000 A 
ATOM     21  C   UNL     1      -1.841  10.514  16.998  0.00  0.00    +0.000 A 
ATOM     22  C   UNL     1      -2.577   9.995  15.930  0.00  0.00    +0.000 A 
ATOM     23  C   UNL     1      -3.908  10.367  15.754  0.00  0.00    +0.000 A 
ATOM     24  C   UNL     1      -4.511  11.239  16.656  0.00  0.00    +0.000 A 
ATOM     25  C   UNL     1      -3.776  11.760  17.723  0.00  0.00    +0.000 A 
ENDBRANCH  19  20
BRANCH  19  26
ATOM     26  O   UNL     1      -2.364  12.136  20.140  0.00  0.00    +0.000 OA
ATOM     27  H   UNL     1      -2.681  13.048  20.230  0.00  0.00    +0.000 HD
ENDBRANCH  19  26
ENDBRANCH  18  19
ENDBRANCH  12  18
ENDBRANCH   1  15
BRANCH  10  28
ATOM     28  C   UNL     1       3.166   6.888  18.187  0.00  0.00    +0.000 C 
BRANCH  28  29
ATOM     29  C   UNL     1       4.475   6.309  17.685  0.00  0.00    +0.000 A 
ATOM     30  C   UNL     1       4.861   6.271  16.335  0.00  0.00    +0.000 A 
ATOM     31  C   UNL     1       6.059   5.656  15.952  0.00  0.00    +0.000 A 
ATOM     32  C   UNL     1       6.883   5.090  16.917  0.00  0.00    +0.000 A 
ATOM     33  F   UNL     1       8.014   4.476  16.544  0.00  0.00    +0.000 F 
ATOM     34  C   UNL     1       6.547   5.147  18.261  0.00  0.00    +0.000 A 
ATOM     35  C   UNL     1       5.351   5.757  18.643  0.00  0.00    +0.000 A 
ENDBRANCH  28  29
ENDBRANCH  10  28
TORSDOF 7
ENDMDL
MODEL 3
REMARK VINA RESULT:      -8.4      4.907      8.473
REMARK  Name = 
REMARK  7 active torsions:
REMARK  status: ('A' for Active; 'I' for Inactive)
REMARK    1  A    between atoms: O_1  and  C_2
REMARK    2  A    between atoms: C_2  and  C_3
REMARK    3  A    between atoms: C_2  and  C_28
REMARK    4  A    between atoms: C_3  and  N_4
REMARK    5  A    between atoms: C_7  and  N_8
REMARK    6  A    between atoms: N_17  and  C_18
REMARK    7  A    between atoms: C_18  and  C_19
REMARK                            x       y       z     vdW  Elec       q    Type
REMARK                         _______ _______ _______ _____ _____    ______ ____
ROOT
ATOM      1  N   UNL     1       1.971   7.726  20.709  0.00  0.00    +0.000 N 
ATOM      2  C   UNL     1       1.822   6.465  20.236  0.00  0.00    +0.000 A 
ATOM      3  N   UNL     1       1.174   5.472  20.799  0.00  0.00    +0.000 NA
ATOM      4  C   UNL     1       1.361   4.391  19.971  0.00  0.00    +0.000 A 
ATOM      5  C   UNL     1       0.909   3.070  20.113  0.00  0.00    +0.000 A 
ATOM      6  C   UNL     1       1.248   2.130  19.130  0.00  0.00    +0.000 A 
ATOM      7  C   UNL     1       2.017   2.498  18.027  0.00  0.00    +0.000 A 
ATOM      8  C   UNL     1       2.474   3.810  17.864  0.00  0.00    +0.000 A 
ATOM      9  C   UNL     1       2.130   4.733  18.863  0.00  0.00    +0.000 A 
ATOM     10  N   UNL     1       2.392   6.076  19.042  0.00  0.00    +0.000 N 
ATOM     11  H   UNL     1       2.912   7.892  21.060  0.00  0.00    +0.000 HD
ENDROOT
BRANCH   1  15
ATOM     12  N   UNL     1       0.055  10.753  20.436  0.00  0.00    +0.000 NA
ATOM     13  C   UNL     1      -0.397   9.424  19.967  0.00  0.00    +0.000 C 
ATOM     14  C   UNL     1      -0.412   8.388  21.089  0.00  0.00    +0.000 C 
ATOM     15  C   UNL     1       0.980   8.217  21.693  0.00  0.00    +0.000 C 
ATOM     16  C   UNL     1       1.431   9.595  22.198  0.00  0.00    +0.000 C 
ATOM     17  C   UNL     1       1.364  10.666  21.101  0.00  0.00    +0.000 C 
BRANCH  12  18
ATOM     18  C   UNL     1       0.078  11.682  19.263  0.00  0.00    +0.000 C 
BRANCH  18  19
ATOM     19  C   UNL     1      -1.212  11.728  18.400  0.00  0.00    +0.000 C 
BRANCH  19  20
ATOM     20  C   UNL     1      -2.460  12.118  19.165  0.00  0.00    +0.000 A 
ATOM     21  C   UNL     1      -3.722  11.709  18.710  0.00  0.00    +0.000 A 
ATOM     22  C   UNL     1      -4.887  12.184  19.317  0.00  0.00    +0.000 A 
ATOM     23  C   UNL     1      -4.804  13.063  20.395  0.00  0.00    +0.000 A 
ATOM     24  C   UNL     1      -3.558  13.450  20.881  0.00  0.00    +0.000 A 
ATOM     25  C   UNL     1      -2.393  12.978  20.274  0.00  0.00    +0.000 A 
ENDBRANCH  19  20
BRANCH  19  26
ATOM     26  O   UNL     1      -1.088  12.666  17.328  0.00  0.00    +0.000 OA
ATOM     27  H   UNL     1      -1.417  13.512  17.669  0.00  0.00    +0.000 HD
ENDBRANCH  19  26
ENDBRANCH  18  19
ENDBRANCH  12  18
ENDBRANCH   1  15
BRANCH  10  28
ATOM     28  C   UNL     1       3.179   6.919  18.153  0.00  0.00    +0.000 C 
BRANCH  28  29
ATOM     29  C   UNL     1       4.489   6.335  17.660  0.00  0.00    +0.000 A 
ATOM     30  C   UNL     1       4.868   6.260  16.310  0.00  0.00    +0.000 A 
ATOM     31  C   UNL     1       6.068   5.642  15.938  0.00  0.00    +0.000 A 
ATOM     32  C   UNL     1       6.902   5.111  16.914  0.00  0.00    +0.000 A 
ATOM     33  F   UNL     1       8.035   4.495  16.553  0.00  0.00    +0.000 F 
ATOM     34  C   UNL     1       6.574   5.205  18.257  0.00  0.00    +0.000 A 
ATOM     35  C   UNL     1       5.375   5.817  18.629  0.00  0.00    +0.000 A 
ENDBRANCH  28  29
ENDBRANCH  10  28
TORSDOF 7
ENDMDL
MODEL 4
REMARK VINA RESULT:      -8.1      0.607      1.195
REMARK  Name = 
REMARK  7 active torsions:
REMARK  status: ('A' for Active; 'I' for Inactive)
REMARK    1  A    between atoms: O_1  and  C_2
REMARK    2  A    between atoms: C_2  and  C_3
REMARK    3  A    between atoms: C_2  and  C_28
REMARK    4  A    between atoms: C_3  and  N_4
REMARK    5  A    between atoms: C_7  and  N_8
REMARK    6  A    between atoms: N_17  and  C_18
REMARK    7  A    between atoms: C_18  and  C_19
REMARK                            x       y       z     vdW  Elec       q    Type
REMARK                         _______ _______ _______ _____ _____    ______ ____
ROOT
ATOM      1  N   UNL     1       5.406   5.933  18.453  0.00  0.00    +0.000 N 
ATOM      2  C   UNL     1       4.406   5.022  18.532  0.00  0.00    +0.000 A 
ATOM      3  N   UNL     1       4.287   3.906  17.851  0.00  0.00    +0.000 NA
ATOM      4  C   UNL     1       3.085   3.363  18.238  0.00  0.00    +0.000 A 
ATOM      5  C   UNL     1       2.454   2.189  17.799  0.00  0.00    +0.000 A 
ATOM      6  C   UNL     1       1.205   1.850  18.337  0.00  0.00    +0.000 A 
ATOM      7  C   UNL     1       0.599   2.661  19.296  0.00  0.00    +0.000 A 
ATOM      8  C   UNL     1       1.212   3.834  19.750  0.00  0.00    +0.000 A 
ATOM      9  C   UNL     1       2.457   4.157  19.192  0.00  0.00    +0.000 A 
ATOM     10  N   UNL     1       3.337   5.204  19.384  0.00  0.00    +0.000 N 
ATOM     11  H   UNL     1       5.112   6.778  17.967  0.00  0.00    +0.000 HD
ENDROOT
BRANCH   1  15
ATOM     12  N   UNL     1       8.294   8.006  17.928  0.00  0.00    +0.000 NA
ATOM     13  C   UNL     1       8.021   7.237  19.163  0.00  0.00    +0.000 C 
ATOM     14  C   UNL     1       7.861   5.742  18.893  0.00  0.00    +0.000 C 
ATOM     15  C   UNL     1       6.712   5.483  17.921  0.00  0.00    +0.000 C 
ATOM     16  C   UNL     1       7.015   6.264  16.635  0.00  0.00    +0.000 C 
ATOM     17  C   UNL     1       7.267   7.754  16.907  0.00  0.00    +0.000 C 
BRANCH  12  18
ATOM     18  C   UNL     1       8.388   9.455  18.289  0.00  0.00    +0.000 C 
BRANCH  18  19
ATOM     19  C   UNL     1       9.477   9.832  19.331  0.00  0.00    +0.000 C 
BRANCH  19  20
ATOM     20  C   UNL     1      10.271  11.074  18.979  0.00  0.00    +0.000 A 
ATOM     21  C   UNL     1      10.423  11.456  17.638  0.00  0.00    +0.000 A 
ATOM     22  C   UNL     1      11.273  12.508  17.289  0.00  0.00    +0.000 A 
ATOM     23  C   UNL     1      11.971  13.199  18.277  0.00  0.00    +0.000 A 
ATOM     24  C   UNL     1      11.803  12.854  19.616  0.00  0.00    +0.000 A 
ATOM     25  C   UNL     1      10.955  11.802  19.966  0.00  0.00    +0.000 A 
ENDBRANCH  19  20
BRANCH  19  26
ATOM     26  O   UNL     1       8.904  10.073  20.618  0.00  0.00    +0.000 OA
ATOM     27  H   UNL     1       9.561  10.584  21.116  0.00  0.00    +0.000 HD
ENDBRANCH  19  26
ENDBRANCH  18  19
ENDBRANCH  12  18
ENDBRANCH   1  15
BRANCH  10  28
ATOM     28  C   UNL     1       3.143   6.328  20.288  0.00  0.00    +0.000 C 
BRANCH  28  29
ATOM     29  C   UNL     1       2.317   7.483  19.755  0.00  0.00    +0.000 A 
ATOM     30  C   UNL     1       1.413   8.234  20.523  0.00  0.00    +0.000 A 
ATOM     31  C   UNL     1       0.640   9.242  19.933  0.00  0.00    +0.000 A 
ATOM     32  C   UNL     1       0.778   9.513  18.578  0.00  0.00    +0.000 A 
ATOM     33  F   UNL     1       0.016  10.457  18.010  0.00  0.00    +0.000 F 
ATOM     34  C   UNL     1       1.691   8.815  17.802  0.00  0.00    +0.000 A 
ATOM     35  C   UNL     1       2.460   7.807  18.389  0.00  0.00    +0.000 A 
ENDBRANCH  28  29
ENDBRANCH  10  28
TORSDOF 7
ENDMDL
MODEL 5
REMARK VINA RESULT:      -8.0      4.753      7.058
REMARK  Name = 
REMARK  7 active torsions:
REMARK  status: ('A' for Active; 'I' for Inactive)
REMARK    1  A    between atoms: O_1  and  C_2
REMARK    2  A    between atoms: C_2  and  C_3
REMARK    3  A    between atoms: C_2  and  C_28
REMARK    4  A    between atoms: C_3  and  N_4
REMARK    5  A    between atoms: C_7  and  N_8
REMARK    6  A    between atoms: N_17  and  C_18
REMARK    7  A    between atoms: C_18  and  C_19
REMARK                            x       y       z     vdW  Elec       q    Type
REMARK                         _______ _______ _______ _____ _____    ______ ____
ROOT
ATOM      1  N   UNL     1       1.978   7.677  20.687  0.00  0.00    +0.000 N 
ATOM      2  C   UNL     1       1.822   6.414  20.222  0.00  0.00    +0.000 A 
ATOM      3  N   UNL     1       1.155   5.433  20.783  0.00  0.00    +0.000 NA
ATOM      4  C   UNL     1       1.342   4.343  19.967  0.00  0.00    +0.000 A 
ATOM      5  C   UNL     1       0.873   3.029  20.114  0.00  0.00    +0.000 A 
ATOM      6  C   UNL     1       1.216   2.076  19.144  0.00  0.00    +0.000 A 
ATOM      7  C   UNL     1       2.004   2.427  18.048  0.00  0.00    +0.000 A 
ATOM      8  C   UNL     1       2.478   3.733  17.881  0.00  0.00    +0.000 A 
ATOM      9  C   UNL     1       2.130   4.667  18.868  0.00  0.00    +0.000 A 
ATOM     10  N   UNL     1       2.405   6.009  19.040  0.00  0.00    +0.000 N 
ATOM     11  H   UNL     1       2.916   7.835  21.049  0.00  0.00    +0.000 HD
ENDROOT
BRANCH   1  15
ATOM     12  N   UNL     1       0.190  10.783  20.424  0.00  0.00    +0.000 NA
ATOM     13  C   UNL     1      -0.300   9.482  19.914  0.00  0.00    +0.000 C 
ATOM     14  C   UNL     1      -0.388   8.425  21.013  0.00  0.00    +0.000 C 
ATOM     15  C   UNL     1       0.979   8.187  21.653  0.00  0.00    +0.000 C 
ATOM     16  C   UNL     1       1.468   9.536  22.199  0.00  0.00    +0.000 C 
ATOM     17  C   UNL     1       1.474  10.630  21.123  0.00  0.00    +0.000 C 
BRANCH  12  18
ATOM     18  C   UNL     1       0.283  11.733  19.272  0.00  0.00    +0.000 C 
BRANCH  18  19
ATOM     19  C   UNL     1      -0.238  13.174  19.529  0.00  0.00    +0.000 C 
BRANCH  19  20
ATOM     20  C   UNL     1       0.642  14.266  18.956  0.00  0.00    +0.000 A 
ATOM     21  C   UNL     1       1.946  13.969  18.531  0.00  0.00    +0.000 A 
ATOM     22  C   UNL     1       2.817  14.988  18.141  0.00  0.00    +0.000 A 
ATOM     23  C   UNL     1       2.392  16.315  18.158  0.00  0.00    +0.000 A 
ATOM     24  C   UNL     1       1.090  16.622  18.543  0.00  0.00    +0.000 A 
ATOM     25  C   UNL     1       0.218  15.604  18.935  0.00  0.00    +0.000 A 
ENDBRANCH  19  20
BRANCH  19  26
ATOM     26  O   UNL     1      -1.537  13.366  18.962  0.00  0.00    +0.000 OA
ATOM     27  H   UNL     1      -1.526  12.918  18.102  0.00  0.00    +0.000 HD
ENDBRANCH  19  26
ENDBRANCH  18  19
ENDBRANCH  12  18
ENDBRANCH   1  15
BRANCH  10  28
ATOM     28  C   UNL     1       3.213   6.836  18.155  0.00  0.00    +0.000 C 
BRANCH  28  29
ATOM     29  C   UNL     1       4.536   6.244  17.706  0.00  0.00    +0.000 A 
ATOM     30  C   UNL     1       4.965   6.179  16.370  0.00  0.00    +0.000 A 
ATOM     31  C   UNL     1       6.172   5.554  16.038  0.00  0.00    +0.000 A 
ATOM     32  C   UNL     1       6.963   5.004  17.040  0.00  0.00    +0.000 A 
ATOM     33  F   UNL     1       8.103   4.381  16.716  0.00  0.00    +0.000 F 
ATOM     34  C   UNL     1       6.584   5.087  18.371  0.00  0.00    +0.000 A 
ATOM     35  C   UNL     1       5.378   5.707  18.703  0.00  0.00    +0.000 A 
ENDBRANCH  28  29
ENDBRANCH  10  28
TORSDOF 7
ENDMDL
MODEL 6
REMARK VINA RESULT:      -8.0      4.566      9.364
REMARK  Name = 
REMARK  7 active torsions:
REMARK  status: ('A' for Active; 'I' for Inactive)
REMARK    1  A    between atoms: O_1  and  C_2
REMARK    2  A    between atoms: C_2  and  C_3
REMARK    3  A    between atoms: C_2  and  C_28
REMARK    4  A    between atoms: C_3  and  N_4
REMARK    5  A    between atoms: C_7  and  N_8
REMARK    6  A    between atoms: N_17  and  C_18
REMARK    7  A    between atoms: C_18  and  C_19
REMARK                            x       y       z     vdW  Elec       q    Type
REMARK                         _______ _______ _______ _____ _____    ______ ____
ROOT
ATOM      1  N   UNL     1       1.842   7.909  18.401  0.00  0.00    +0.000 N 
ATOM      2  C   UNL     1       2.945   7.251  17.966  0.00  0.00    +0.000 A 
ATOM      3  N   UNL     1       4.137   7.753  17.740  0.00  0.00    +0.000 NA
ATOM      4  C   UNL     1       4.891   6.711  17.257  0.00  0.00    +0.000 A 
ATOM      5  C   UNL     1       6.228   6.700  16.830  0.00  0.00    +0.000 A 
ATOM      6  C   UNL     1       6.778   5.501  16.356  0.00  0.00    +0.000 A 
ATOM      7  C   UNL     1       6.014   4.335  16.314  0.00  0.00    +0.000 A 
ATOM      8  C   UNL     1       4.681   4.322  16.739  0.00  0.00    +0.000 A 
ATOM      9  C   UNL     1       4.149   5.535  17.201  0.00  0.00    +0.000 A 
ATOM     10  N   UNL     1       2.910   5.902  17.686  0.00  0.00    +0.000 N 
ATOM     11  H   UNL     1       1.161   8.041  17.656  0.00  0.00    +0.000 HD
ENDROOT
BRANCH   1  15
ATOM     12  N   UNL     1      -0.664  10.423  18.956  0.00  0.00    +0.000 NA
ATOM     13  C   UNL     1      -0.355   9.319  19.893  0.00  0.00    +0.000 C 
ATOM     14  C   UNL     1       1.109   9.322  20.331  0.00  0.00    +0.000 C 
ATOM     15  C   UNL     1       2.039   9.184  19.127  0.00  0.00    +0.000 C 
ATOM     16  C   UNL     1       1.728  10.346  18.174  0.00  0.00    +0.000 C 
ATOM     17  C   UNL     1       0.241  10.407  17.798  0.00  0.00    +0.000 C 
BRANCH  12  18
ATOM     18  C   UNL     1      -2.100  10.309  18.553  0.00  0.00    +0.000 C 
BRANCH  18  19
ATOM     19  C   UNL     1      -2.811  11.636  18.168  0.00  0.00    +0.000 C 
BRANCH  19  20
ATOM     20  C   UNL     1      -4.269  11.701  18.575  0.00  0.00    +0.000 A 
ATOM     21  C   UNL     1      -4.641  12.351  19.760  0.00  0.00    +0.000 A 
ATOM     22  C   UNL     1      -5.958  12.291  20.223  0.00  0.00    +0.000 A 
ATOM     23  C   UNL     1      -6.921  11.591  19.500  0.00  0.00    +0.000 A 
ATOM     24  C   UNL     1      -6.574  10.969  18.303  0.00  0.00    +0.000 A 
ATOM     25  C   UNL     1      -5.258  11.028  17.840  0.00  0.00    +0.000 A 
ENDBRANCH  19  20
BRANCH  19  26
ATOM     26  O   UNL     1      -2.174  12.763  18.776  0.00  0.00    +0.000 OA
ATOM     27  H   UNL     1      -2.211  12.611  19.733  0.00  0.00    +0.000 HD
ENDBRANCH  19  26
ENDBRANCH  18  19
ENDBRANCH  12  18
ENDBRANCH   1  15
BRANCH  10  28
ATOM     28  C   UNL     1       1.754   5.027  17.826  0.00  0.00    +0.000 C 
BRANCH  28  29
ATOM     29  C   UNL     1       1.669   4.230  19.114  0.00  0.00    +0.000 A 
ATOM     30  C   UNL     1       2.074   4.707  20.371  0.00  0.00    +0.000 A 
ATOM     31  C   UNL     1       2.023   3.878  21.499  0.00  0.00    +0.000 A 
ATOM     32  C   UNL     1       1.553   2.577  21.379  0.00  0.00    +0.000 A 
ATOM     33  F   UNL     1       1.533   1.778  22.453  0.00  0.00    +0.000 F 
ATOM     34  C   UNL     1       1.109   2.092  20.158  0.00  0.00    +0.000 A 
ATOM     35  C   UNL     1       1.163   2.915  19.032  0.00  0.00    +0.000 A 
ENDBRANCH  28  29
ENDBRANCH  10  28
TORSDOF 7
ENDMDL
MODEL 7
REMARK VINA RESULT:      -7.9      4.535      9.372
REMARK  Name = 
REMARK  7 active torsions:
REMARK  status: ('A' for Active; 'I' for Inactive)
REMARK    1  A    between atoms: O_1  and  C_2
REMARK    2  A    between atoms: C_2  and  C_3
REMARK    3  A    between atoms: C_2  and  C_28
REMARK    4  A    between atoms: C_3  and  N_4
REMARK    5  A    between atoms: C_7  and  N_8
REMARK    6  A    between atoms: N_17  and  C_18
REMARK    7  A    between atoms: C_18  and  C_19
REMARK                            x       y       z     vdW  Elec       q    Type
REMARK                         _______ _______ _______ _____ _____    ______ ____
ROOT
ATOM      1  N   UNL     1       1.841   7.957  18.347  0.00  0.00    +0.000 N 
ATOM      2  C   UNL     1       2.950   7.295  17.937  0.00  0.00    +0.000 A 
ATOM      3  N   UNL     1       4.151   7.791  17.743  0.00  0.00    +0.000 NA
ATOM      4  C   UNL     1       4.911   6.748  17.274  0.00  0.00    +0.000 A 
ATOM      5  C   UNL     1       6.258   6.732  16.880  0.00  0.00    +0.000 A 
ATOM      6  C   UNL     1       6.813   5.532  16.414  0.00  0.00    +0.000 A 
ATOM      7  C   UNL     1       6.044   4.371  16.346  0.00  0.00    +0.000 A 
ATOM      8  C   UNL     1       4.701   4.364  16.737  0.00  0.00    +0.000 A 
ATOM      9  C   UNL     1       4.165   5.577  17.193  0.00  0.00    +0.000 A 
ATOM     10  N   UNL     1       2.915   5.948  17.648  0.00  0.00    +0.000 N 
ATOM     11  H   UNL     1       1.180   8.097  17.587  0.00  0.00    +0.000 HD
ENDROOT
BRANCH   1  15
ATOM     12  N   UNL     1      -0.696  10.427  18.959  0.00  0.00    +0.000 NA
ATOM     13  C   UNL     1      -0.360   9.317  19.879  0.00  0.00    +0.000 C 
ATOM     14  C   UNL     1       1.108   9.337  20.301  0.00  0.00    +0.000 C 
ATOM     15  C   UNL     1       2.027   9.227  19.086  0.00  0.00    +0.000 C 
ATOM     16  C   UNL     1       1.688  10.394  18.149  0.00  0.00    +0.000 C 
ATOM     17  C   UNL     1       0.196  10.437  17.790  0.00  0.00    +0.000 C 
BRANCH  12  18
ATOM     18  C   UNL     1      -2.134  10.295  18.570  0.00  0.00    +0.000 C 
BRANCH  18  19
ATOM     19  C   UNL     1      -2.865  11.613  18.190  0.00  0.00    +0.000 C 
BRANCH  19  20
ATOM     20  C   UNL     1      -4.316  11.666  18.621  0.00  0.00    +0.000 A 
ATOM     21  C   UNL     1      -5.299  11.007  17.867  0.00  0.00    +0.000 A 
ATOM     22  C   UNL     1      -6.654  11.169  18.165  0.00  0.00    +0.000 A 
ATOM     23  C   UNL     1      -7.042  11.983  19.227  0.00  0.00    +0.000 A 
ATOM     24  C   UNL     1      -6.077  12.616  20.006  0.00  0.00    +0.000 A 
ATOM     25  C   UNL     1      -4.722  12.455  19.709  0.00  0.00    +0.000 A 
ENDBRANCH  19  20
BRANCH  19  26
ATOM     26  O   UNL     1      -2.229  12.749  18.780  0.00  0.00    +0.000 OA
ATOM     27  H   UNL     1      -2.937  13.284  19.170  0.00  0.00    +0.000 HD
ENDBRANCH  19  26
ENDBRANCH  18  19
ENDBRANCH  12  18
ENDBRANCH   1  15
BRANCH  10  28
ATOM     28  C   UNL     1       1.752   5.079  17.754  0.00  0.00    +0.000 C 
BRANCH  28  29
ATOM     29  C   UNL     1       1.701   4.170  18.967  0.00  0.00    +0.000 A 
ATOM     30  C   UNL     1       1.315   2.820  18.933  0.00  0.00    +0.000 A 
ATOM     31  C   UNL     1       1.232   2.071  20.113  0.00  0.00    +0.000 A 
ATOM     32  C   UNL     1       1.549   2.663  21.330  0.00  0.00    +0.000 A 
ATOM     33  F   UNL     1       1.440   1.952  22.460  0.00  0.00    +0.000 F 
ATOM     34  C   UNL     1       1.971   3.982  21.390  0.00  0.00    +0.000 A 
ATOM     35  C   UNL     1       2.051   4.731  20.214  0.00  0.00    +0.000 A 
ENDBRANCH  28  29
ENDBRANCH  10  28
TORSDOF 7
ENDMDL
MODEL 8
REMARK VINA RESULT:      -7.9      4.924      7.673
REMARK  Name = 
REMARK  7 active torsions:
REMARK  status: ('A' for Active; 'I' for Inactive)
REMARK    1  A    between atoms: O_1  and  C_2
REMARK    2  A    between atoms: C_2  and  C_3
REMARK    3  A    between atoms: C_2  and  C_28
REMARK    4  A    between atoms: C_3  and  N_4
REMARK    5  A    between atoms: C_7  and  N_8
REMARK    6  A    between atoms: N_17  and  C_18
REMARK    7  A    between atoms: C_18  and  C_19
REMARK                            x       y       z     vdW  Elec       q    Type
REMARK                         _______ _______ _______ _____ _____    ______ ____
ROOT
ATOM      1  N   UNL     1       1.952   7.726  20.650  0.00  0.00    +0.000 N 
ATOM      2  C   UNL     1       1.804   6.460  20.190  0.00  0.00    +0.000 A 
ATOM      3  N   UNL     1       1.131   5.481  20.748  0.00  0.00    +0.000 NA
ATOM      4  C   UNL     1       1.331   4.387  19.941  0.00  0.00    +0.000 A 
ATOM      5  C   UNL     1       0.862   3.072  20.089  0.00  0.00    +0.000 A 
ATOM      6  C   UNL     1       1.219   2.114  19.129  0.00  0.00    +0.000 A 
ATOM      7  C   UNL     1       2.022   2.460  18.043  0.00  0.00    +0.000 A 
ATOM      8  C   UNL     1       2.496   3.765  17.874  0.00  0.00    +0.000 A 
ATOM      9  C   UNL     1       2.133   4.705  18.851  0.00  0.00    +0.000 A 
ATOM     10  N   UNL     1       2.404   6.048  19.019  0.00  0.00    +0.000 N 
ATOM     11  H   UNL     1       2.885   7.887  21.024  0.00  0.00    +0.000 HD
ENDROOT
BRANCH   1  15
ATOM     12  N   UNL     1       0.230  10.869  20.393  0.00  0.00    +0.000 NA
ATOM     13  C   UNL     1      -0.272   9.586  19.850  0.00  0.00    +0.000 C 
ATOM     14  C   UNL     1      -0.406   8.513  20.929  0.00  0.00    +0.000 C 
ATOM     15  C   UNL     1       0.939   8.240  21.599  0.00  0.00    +0.000 C 
ATOM     16  C   UNL     1       1.440   9.570  22.179  0.00  0.00    +0.000 C 
ATOM     17  C   UNL     1       1.493  10.681  21.121  0.00  0.00    +0.000 C 
BRANCH  12  18
ATOM     18  C   UNL     1       0.369  11.835  19.259  0.00  0.00    +0.000 C 
BRANCH  18  19
ATOM     19  C   UNL     1      -0.882  12.696  18.935  0.00  0.00    +0.000 C 
BRANCH  19  20
ATOM     20  C   UNL     1      -0.814  14.115  19.463  0.00  0.00    +0.000 A 
ATOM     21  C   UNL     1      -0.115  15.100  18.749  0.00  0.00    +0.000 A 
ATOM     22  C   UNL     1       0.082  16.370  19.294  0.00  0.00    +0.000 A 
ATOM     23  C   UNL     1      -0.428  16.676  20.554  0.00  0.00    +0.000 A 
ATOM     24  C   UNL     1      -1.154  15.721  21.260  0.00  0.00    +0.000 A 
ATOM     25  C   UNL     1      -1.351  14.450  20.717  0.00  0.00    +0.000 A 
ENDBRANCH  19  20
BRANCH  19  26
ATOM     26  O   UNL     1      -1.089  12.803  17.524  0.00  0.00    +0.000 OA
ATOM     27  H   UNL     1      -0.333  12.364  17.105  0.00  0.00    +0.000 HD
ENDBRANCH  19  26
ENDBRANCH  18  19
ENDBRANCH  12  18
ENDBRANCH   1  15
BRANCH  10  28
ATOM     28  C   UNL     1       3.223   6.871  18.140  0.00  0.00    +0.000 C 
BRANCH  28  29
ATOM     29  C   UNL     1       4.540   6.268  17.691  0.00  0.00    +0.000 A 
ATOM     30  C   UNL     1       4.947   6.154  16.352  0.00  0.00    +0.000 A 
ATOM     31  C   UNL     1       6.151   5.521  16.023  0.00  0.00    +0.000 A 
ATOM     32  C   UNL     1       6.962   5.013  17.030  0.00  0.00    +0.000 A 
ATOM     33  F   UNL     1       8.099   4.382  16.710  0.00  0.00    +0.000 F 
ATOM     34  C   UNL     1       6.605   5.145  18.363  0.00  0.00    +0.000 A 
ATOM     35  C   UNL     1       5.402   5.772  18.693  0.00  0.00    +0.000 A 
ENDBRANCH  28  29
ENDBRANCH  10  28
TORSDOF 7
ENDMDL
MODEL 9
REMARK VINA RESULT:      -7.8      4.892      8.064
REMARK  Name = 
REMARK  7 active torsions:
REMARK  status: ('A' for Active; 'I' for Inactive)
REMARK    1  A    between atoms: O_1  and  C_2
REMARK    2  A    between atoms: C_2  and  C_3
REMARK    3  A    between atoms: C_2  and  C_28
REMARK    4  A    between atoms: C_3  and  N_4
REMARK    5  A    between atoms: C_7  and  N_8
REMARK    6  A    between atoms: N_17  and  C_18
REMARK    7  A    between atoms: C_18  and  C_19
REMARK                            x       y       z     vdW  Elec       q    Type
REMARK                         _______ _______ _______ _____ _____    ______ ____
ROOT
ATOM      1  N   UNL     1       2.014   7.704  20.724  0.00  0.00    +0.000 N 
ATOM      2  C   UNL     1       1.858   6.446  20.248  0.00  0.00    +0.000 A 
ATOM      3  N   UNL     1       1.237   5.444  20.826  0.00  0.00    +0.000 NA
ATOM      4  C   UNL     1       1.402   4.370  19.985  0.00  0.00    +0.000 A 
ATOM      5  C   UNL     1       0.966   3.045  20.134  0.00  0.00    +0.000 A 
ATOM      6  C   UNL     1       1.276   2.113  19.134  0.00  0.00    +0.000 A 
ATOM      7  C   UNL     1       2.003   2.495  18.007  0.00  0.00    +0.000 A 
ATOM      8  C   UNL     1       2.445   3.811  17.836  0.00  0.00    +0.000 A 
ATOM      9  C   UNL     1       2.129   4.724  18.854  0.00  0.00    +0.000 A 
ATOM     10  N   UNL     1       2.388   6.068  19.032  0.00  0.00    +0.000 N 
ATOM     11  H   UNL     1       2.966   7.875  21.042  0.00  0.00    +0.000 HD
ENDROOT
BRANCH   1  15
ATOM     12  N   UNL     1      -0.025  10.653  20.483  0.00  0.00    +0.000 NA
ATOM     13  C   UNL     1      -0.450   9.298  20.065  0.00  0.00    +0.000 C 
ATOM     14  C   UNL     1      -0.371   8.288  21.208  0.00  0.00    +0.000 C 
ATOM     15  C   UNL     1       1.055   8.182  21.746  0.00  0.00    +0.000 C 
ATOM     16  C   UNL     1       1.478   9.586  22.198  0.00  0.00    +0.000 C 
ATOM     17  C   UNL     1       1.317  10.629  21.083  0.00  0.00    +0.000 C 
BRANCH  12  18
ATOM     18  C   UNL     1      -0.094  11.555  19.291  0.00  0.00    +0.000 C 
BRANCH  18  19
ATOM     19  C   UNL     1      -1.156  12.687  19.350  0.00  0.00    +0.000 C 
BRANCH  19  20
ATOM     20  C   UNL     1      -1.500  13.147  20.752  0.00  0.00    +0.000 A 
ATOM     21  C   UNL     1      -0.614  13.976  21.457  0.00  0.00    +0.000 A 
ATOM     22  C   UNL     1      -0.845  14.285  22.800  0.00  0.00    +0.000 A 
ATOM     23  C   UNL     1      -1.970  13.780  23.449  0.00  0.00    +0.000 A 
ATOM     24  C   UNL     1      -2.876  12.986  22.752  0.00  0.00    +0.000 A 
ATOM     25  C   UNL     1      -2.646  12.674  21.411  0.00  0.00    +0.000 A 
ENDBRANCH  19  20
BRANCH  19  26
ATOM     26  O   UNL     1      -0.717  13.850  18.642  0.00  0.00    +0.000 OA
ATOM     27  H   UNL     1       0.180  14.037  18.959  0.00  0.00    +0.000 HD
ENDBRANCH  19  26
ENDBRANCH  18  19
ENDBRANCH  12  18
ENDBRANCH   1  15
BRANCH  10  28
ATOM     28  C   UNL     1       3.137   6.923  18.121  0.00  0.00    +0.000 C 
BRANCH  28  29
ATOM     29  C   UNL     1       4.439   6.356  17.588  0.00  0.00    +0.000 A 
ATOM     30  C   UNL     1       4.795   6.328  16.230  0.00  0.00    +0.000 A 
ATOM     31  C   UNL     1       5.989   5.724  15.818  0.00  0.00    +0.000 A 
ATOM     32  C   UNL     1       6.839   5.160  16.761  0.00  0.00    +0.000 A 
ATOM     33  F   UNL     1       7.965   4.557  16.361  0.00  0.00    +0.000 F 
ATOM     34  C   UNL     1       6.532   5.208  18.112  0.00  0.00    +0.000 A 
ATOM     35  C   UNL     1       5.340   5.807  18.524  0.00  0.00    +0.000 A 
ENDBRANCH  28  29
ENDBRANCH  10  28
TORSDOF 7
ENDMDL
