MODEL 1
REMARK VINA RESULT:      -6.8      0.000      0.000
REMARK  Name = 
REMARK  9 active torsions:
REMARK  status: ('A' for Active; 'I' for Inactive)
REMARK    1  A    between atoms: C_1  and  O_2
REMARK    2  A    between atoms: O_2  and  C_3
REMARK    3  A    between atoms: C_3  and  C_5
REMARK    4  A    between atoms: C_7  and  C_8
REMARK    5  A    between atoms: C_8  and  C_9
REMARK    6  A    between atoms: C_8  and  C_10
REMARK    7  A    between atoms: C_10  and  O_11
REMARK    8  A    between atoms: C_10  and  C_13
REMARK    9  A    between atoms: O_11  and  C_12
REMARK                            x       y       z     vdW  Elec       q    Type
REMARK                         _______ _______ _______ _____ _____    ______ ____
ROOT
ATOM      1  C   UNL     1       3.651   5.306  17.800  0.00  0.00    +0.000 C 
ATOM      2  C   UNL     1       3.358   6.621  17.847  0.00  0.00    +0.000 C 
ATOM      3  C   UNL     1       2.094   6.908  18.701  0.00  0.00    +0.000 C 
ATOM      4  C   UNL     1       2.340   5.682  19.633  0.00  0.00    +0.000 C 
ATOM      5  O   UNL     1       1.408   5.150  20.552  0.00  0.00    +0.000 OA
ATOM      6  C   UNL     1       2.035   4.069  21.307  0.00  0.00    +0.000 C 
ATOM      7  C   UNL     1       3.008   3.178  20.501  0.00  0.00    +0.000 C 
ATOM      8  C   UNL     1       2.634   3.170  19.040  0.00  0.00    +0.000 C 
ATOM      9  C   UNL     1       2.556   4.596  18.519  0.00  0.00    +0.000 C 
ENDROOT
BRANCH   1  10
ATOM     10  C   UNL     1       4.920   4.713  17.357  0.00  0.00    +0.000 C 
ATOM     11  O   UNL     1       5.875   4.529  18.090  0.00  0.00    +0.000 OA
BRANCH  10  13
ATOM     12  C   UNL     1       6.192   4.278  15.446  0.00  0.00    +0.000 C 
ATOM     13  O   UNL     1       4.899   4.479  16.017  0.00  0.00    +0.000 OA
ENDBRANCH  10  13
ENDBRANCH   1  10
BRANCH   3  14
ATOM     14  C   UNL     1       2.086   8.430  19.054  0.00  0.00    +0.000 C 
ATOM     15  C   UNL     1       2.123   9.180  17.677  0.00  0.00    +0.000 C 
BRANCH  14  16
ATOM     16  C   UNL     1       0.891   9.050  19.854  0.00  0.00    +0.000 C 
BRANCH  16  17
ATOM     17  C   UNL     1       0.546  10.545  19.579  0.00  0.00    +0.000 A 
ATOM     18  C   UNL     1       1.323  11.509  20.267  0.00  0.00    +0.000 A 
ATOM     19  C   UNL     1       1.030  12.882  20.217  0.00  0.00    +0.000 A 
ATOM     20  C   UNL     1      -0.047  13.333  19.469  0.00  0.00    +0.000 A 
ATOM     21  C   UNL     1      -0.797  12.422  18.740  0.00  0.00    +0.000 A 
ATOM     22  C   UNL     1      -0.499  11.045  18.768  0.00  0.00    +0.000 A 
ATOM     23 BR   UNL     1      -1.604  10.014  17.612  0.00  0.00    +0.000 Br
ENDBRANCH  16  17
BRANCH  16  24
ATOM     24  O   UNL     1       0.875   8.742  21.246  0.00  0.00    +0.000 OA
ATOM     25  C   UNL     1      -0.403   8.582  21.833  0.00  0.00    +0.000 C 
ENDBRANCH  16  24
ENDBRANCH  14  16
ENDBRANCH   3  14
TORSDOF 6
ENDMDL
MODEL 2
REMARK VINA RESULT:      -6.8      2.706      7.373
REMARK  Name = 
REMARK  9 active torsions:
REMARK  status: ('A' for Active; 'I' for Inactive)
REMARK    1  A    between atoms: C_1  and  O_2
REMARK    2  A    between atoms: O_2  and  C_3
REMARK    3  A    between atoms: C_3  and  C_5
REMARK    4  A    between atoms: C_7  and  C_8
REMARK    5  A    between atoms: C_8  and  C_9
REMARK    6  A    between atoms: C_8  and  C_10
REMARK    7  A    between atoms: C_10  and  O_11
REMARK    8  A    between atoms: C_10  and  C_13
REMARK    9  A    between atoms: O_11  and  C_12
REMARK                            x       y       z     vdW  Elec       q    Type
REMARK                         _______ _______ _______ _____ _____    ______ ____
ROOT
ATOM      1  C   UNL     1       0.004  10.489  18.698  0.00  0.00    +0.000 C 
ATOM      2  C   UNL     1       0.666   9.496  18.071  0.00  0.00    +0.000 C 
ATOM      3  C   UNL     1       1.760   8.864  18.973  0.00  0.00    +0.000 C 
ATOM      4  C   UNL     1       0.973   9.162  20.286  0.00  0.00    +0.000 C 
ATOM      5  O   UNL     1       1.497   9.071  21.595  0.00  0.00    +0.000 OA
ATOM      6  C   UNL     1       0.434   9.334  22.561  0.00  0.00    +0.000 C 
ATOM      7  C   UNL     1      -0.581  10.423  22.146  0.00  0.00    +0.000 C 
ATOM      8  C   UNL     1       0.057  11.413  21.205  0.00  0.00    +0.000 C 
ATOM      9  C   UNL     1       0.665  10.680  20.020  0.00  0.00    +0.000 C 
ENDROOT
BRANCH   1  10
ATOM     10  C   UNL     1      -1.269  11.088  18.276  0.00  0.00    +0.000 C 
ATOM     11  O   UNL     1      -1.500  12.284  18.305  0.00  0.00    +0.000 OA
BRANCH  10  13
ATOM     12  C   UNL     1      -2.631  10.225  16.585  0.00  0.00    +0.000 C 
ATOM     13  O   UNL     1      -2.163  10.122  17.930  0.00  0.00    +0.000 OA
ENDBRANCH  10  13
ENDBRANCH   1  10
BRANCH   3  14
ATOM     14  C   UNL     1       2.158   7.486  18.352  0.00  0.00    +0.000 C 
ATOM     15  C   UNL     1       3.375   7.786  17.410  0.00  0.00    +0.000 C 
BRANCH  14  16
ATOM     16  C   UNL     1       2.605   6.303  19.275  0.00  0.00    +0.000 C 
BRANCH  16  17
ATOM     17  C   UNL     1       3.060   4.985  18.578  0.00  0.00    +0.000 A 
ATOM     18  C   UNL     1       2.049   4.225  17.940  0.00  0.00    +0.000 A 
ATOM     19  C   UNL     1       2.298   2.955  17.395  0.00  0.00    +0.000 A 
ATOM     20  C   UNL     1       3.571   2.409  17.464  0.00  0.00    +0.000 A 
ATOM     21  C   UNL     1       4.598   3.148  18.035  0.00  0.00    +0.000 A 
ATOM     22  C   UNL     1       4.362   4.431  18.567  0.00  0.00    +0.000 A 
ATOM     23 BR   UNL     1       5.941   5.282  19.202  0.00  0.00    +0.000 Br
ENDBRANCH  16  17
BRANCH  16  24
ATOM     24  O   UNL     1       1.751   6.053  20.389  0.00  0.00    +0.000 OA
ATOM     25  C   UNL     1       2.077   4.929  21.184  0.00  0.00    +0.000 C 
ENDBRANCH  16  24
ENDBRANCH  14  16
ENDBRANCH   3  14
TORSDOF 6
ENDMDL
MODEL 3
REMARK VINA RESULT:      -6.8      2.263      4.097
REMARK  Name = 
REMARK  9 active torsions:
REMARK  status: ('A' for Active; 'I' for Inactive)
REMARK    1  A    between atoms: C_1  and  O_2
REMARK    2  A    between atoms: O_2  and  C_3
REMARK    3  A    between atoms: C_3  and  C_5
REMARK    4  A    between atoms: C_7  and  C_8
REMARK    5  A    between atoms: C_8  and  C_9
REMARK    6  A    between atoms: C_8  and  C_10
REMARK    7  A    between atoms: C_10  and  O_11
REMARK    8  A    between atoms: C_10  and  C_13
REMARK    9  A    between atoms: O_11  and  C_12
REMARK                            x       y       z     vdW  Elec       q    Type
REMARK                         _______ _______ _______ _____ _____    ______ ____
ROOT
ATOM      1  C   UNL     1       5.339   4.420  16.253  0.00  0.00    +0.000 C 
ATOM      2  C   UNL     1       4.037   4.548  16.579  0.00  0.00    +0.000 C 
ATOM      3  C   UNL     1       3.817   4.542  18.117  0.00  0.00    +0.000 C 
ATOM      4  C   UNL     1       5.212   5.176  18.406  0.00  0.00    +0.000 C 
ATOM      5  O   UNL     1       5.831   5.251  19.674  0.00  0.00    +0.000 OA
ATOM      6  C   UNL     1       7.082   5.996  19.558  0.00  0.00    +0.000 C 
ATOM      7  C   UNL     1       7.879   5.750  18.257  0.00  0.00    +0.000 C 
ATOM      8  C   UNL     1       7.583   4.380  17.703  0.00  0.00    +0.000 C 
ATOM      9  C   UNL     1       6.083   4.208  17.527  0.00  0.00    +0.000 C 
ENDROOT
BRANCH   1  10
ATOM     10  C   UNL     1       5.937   4.692  14.939  0.00  0.00    +0.000 C 
ATOM     11  O   UNL     1       6.205   5.809  14.534  0.00  0.00    +0.000 OA
BRANCH  10  13
ATOM     12  C   UNL     1       6.483   3.747  12.873  0.00  0.00    +0.000 C 
ATOM     13  O   UNL     1       6.071   3.542  14.225  0.00  0.00    +0.000 OA
ENDBRANCH  10  13
ENDBRANCH   1  10
BRANCH   3  14
ATOM     14  C   UNL     1       2.393   5.118  18.401  0.00  0.00    +0.000 C 
ATOM     15  C   UNL     1       1.390   4.003  17.942  0.00  0.00    +0.000 C 
BRANCH  14  16
ATOM     16  C   UNL     1       1.974   5.506  19.859  0.00  0.00    +0.000 C 
BRANCH  16  17
ATOM     17  C   UNL     1       1.682   7.011  20.142  0.00  0.00    +0.000 A 
ATOM     18  C   UNL     1       1.019   7.308  21.358  0.00  0.00    +0.000 A 
ATOM     19  C   UNL     1       0.576   8.603  21.672  0.00  0.00    +0.000 A 
ATOM     20  C   UNL     1       0.791   9.644  20.781  0.00  0.00    +0.000 A 
ATOM     21  C   UNL     1       1.485   9.400  19.605  0.00  0.00    +0.000 A 
ATOM     22  C   UNL     1       1.950   8.107  19.289  0.00  0.00    +0.000 A 
ATOM     23 BR   UNL     1       2.956   8.045  17.675  0.00  0.00    +0.000 Br
ENDBRANCH  16  17
BRANCH  16  24
ATOM     24  O   UNL     1       2.757   4.907  20.889  0.00  0.00    +0.000 OA
ATOM     25  C   UNL     1       2.190   3.776  21.523  0.00  0.00    +0.000 C 
ENDBRANCH  16  24
ENDBRANCH  14  16
ENDBRANCH   3  14
TORSDOF 6
ENDMDL
MODEL 4
REMARK VINA RESULT:      -6.8      0.543      1.021
REMARK  Name = 
REMARK  9 active torsions:
REMARK  status: ('A' for Active; 'I' for Inactive)
REMARK    1  A    between atoms: C_1  and  O_2
REMARK    2  A    between atoms: O_2  and  C_3
REMARK    3  A    between atoms: C_3  and  C_5
REMARK    4  A    between atoms: C_7  and  C_8
REMARK    5  A    between atoms: C_8  and  C_9
REMARK    6  A    between atoms: C_8  and  C_10
REMARK    7  A    between atoms: C_10  and  O_11
REMARK    8  A    between atoms: C_10  and  C_13
REMARK    9  A    between atoms: O_11  and  C_12
REMARK                            x       y       z     vdW  Elec       q    Type
REMARK                         _______ _______ _______ _____ _____    ______ ____
ROOT
ATOM      1  C   UNL     1       3.641   5.610  17.704  0.00  0.00    +0.000 C 
ATOM      2  C   UNL     1       3.328   6.918  17.800  0.00  0.00    +0.000 C 
ATOM      3  C   UNL     1       2.069   7.154  18.678  0.00  0.00    +0.000 C 
ATOM      4  C   UNL     1       2.346   5.901  19.564  0.00  0.00    +0.000 C 
ATOM      5  O   UNL     1       1.433   5.323  20.474  0.00  0.00    +0.000 OA
ATOM      6  C   UNL     1       2.087   4.227  21.184  0.00  0.00    +0.000 C 
ATOM      7  C   UNL     1       3.064   3.380  20.337  0.00  0.00    +0.000 C 
ATOM      8  C   UNL     1       2.673   3.416  18.881  0.00  0.00    +0.000 C 
ATOM      9  C   UNL     1       2.567   4.857  18.410  0.00  0.00    +0.000 C 
ENDROOT
BRANCH   1  10
ATOM     10  C   UNL     1       4.914   5.054  17.226  0.00  0.00    +0.000 C 
ATOM     11  O   UNL     1       5.267   5.070  16.061  0.00  0.00    +0.000 OA
BRANCH  10  13
ATOM     12  C   UNL     1       6.295   5.375  19.084  0.00  0.00    +0.000 C 
ATOM     13  O   UNL     1       5.592   4.458  18.246  0.00  0.00    +0.000 OA
ENDBRANCH  10  13
ENDBRANCH   1  10
BRANCH   3  14
ATOM     14  C   UNL     1       2.041   8.663  19.082  0.00  0.00    +0.000 C 
ATOM     15  C   UNL     1       2.071   9.460  17.733  0.00  0.00    +0.000 C 
BRANCH  14  16
ATOM     16  C   UNL     1       0.837   9.239  19.901  0.00  0.00    +0.000 C 
BRANCH  16  17
ATOM     17  C   UNL     1       0.434  10.721  19.632  0.00  0.00    +0.000 A 
ATOM     18  C   UNL     1       1.168  11.712  20.329  0.00  0.00    +0.000 A 
ATOM     19  C   UNL     1       0.820  13.072  20.285  0.00  0.00    +0.000 A 
ATOM     20  C   UNL     1      -0.270  13.484  19.532  0.00  0.00    +0.000 A 
ATOM     21  C   UNL     1      -0.979  12.547  18.795  0.00  0.00    +0.000 A 
ATOM     22  C   UNL     1      -0.626  11.183  18.818  0.00  0.00    +0.000 A 
ATOM     23 BR   UNL     1      -1.683  10.114  17.650  0.00  0.00    +0.000 Br
ENDBRANCH  16  17
BRANCH  16  24
ATOM     24  O   UNL     1       0.853   8.931  21.293  0.00  0.00    +0.000 OA
ATOM     25  C   UNL     1      -0.404   8.668  21.887  0.00  0.00    +0.000 C 
ENDBRANCH  16  24
ENDBRANCH  14  16
ENDBRANCH   3  14
TORSDOF 6
ENDMDL
MODEL 5
REMARK VINA RESULT:      -6.7      2.049      3.646
REMARK  Name = 
REMARK  9 active torsions:
REMARK  status: ('A' for Active; 'I' for Inactive)
REMARK    1  A    between atoms: C_1  and  O_2
REMARK    2  A    between atoms: O_2  and  C_3
REMARK    3  A    between atoms: C_3  and  C_5
REMARK    4  A    between atoms: C_7  and  C_8
REMARK    5  A    between atoms: C_8  and  C_9
REMARK    6  A    between atoms: C_8  and  C_10
REMARK    7  A    between atoms: C_10  and  O_11
REMARK    8  A    between atoms: C_10  and  C_13
REMARK    9  A    between atoms: O_11  and  C_12
REMARK                            x       y       z     vdW  Elec       q    Type
REMARK                         _______ _______ _______ _____ _____    ______ ____
ROOT
ATOM      1  C   UNL     1       2.509   4.881  20.448  0.00  0.00    +0.000 C 
ATOM      2  C   UNL     1       1.648   5.887  20.704  0.00  0.00    +0.000 C 
ATOM      3  C   UNL     1       2.119   7.230  20.083  0.00  0.00    +0.000 C 
ATOM      4  C   UNL     1       2.851   6.526  18.899  0.00  0.00    +0.000 C 
ATOM      5  O   UNL     1       3.757   7.147  18.010  0.00  0.00    +0.000 OA
ATOM      6  C   UNL     1       4.158   6.190  16.983  0.00  0.00    +0.000 C 
ATOM      7  C   UNL     1       4.336   4.734  17.469  0.00  0.00    +0.000 C 
ATOM      8  C   UNL     1       4.701   4.703  18.932  0.00  0.00    +0.000 C 
ATOM      9  C   UNL     1       3.672   5.481  19.736  0.00  0.00    +0.000 C 
ENDROOT
BRANCH   1  10
ATOM     10  C   UNL     1       2.240   3.446  20.607  0.00  0.00    +0.000 C 
ATOM     11  O   UNL     1       2.926   2.698  21.280  0.00  0.00    +0.000 OA
BRANCH  10  13
ATOM     12  C   UNL     1       1.550   2.435  18.617  0.00  0.00    +0.000 C 
ATOM     13  O   UNL     1       1.180   3.067  19.842  0.00  0.00    +0.000 OA
ENDBRANCH  10  13
ENDBRANCH   1  10
BRANCH   3  14
ATOM     14  C   UNL     1       0.894   8.200  20.049  0.00  0.00    +0.000 C 
ATOM     15  C   UNL     1       0.566   8.514  21.550  0.00  0.00    +0.000 C 
BRANCH  14  16
ATOM     16  C   UNL     1       1.003   9.586  19.329  0.00  0.00    +0.000 C 
BRANCH  16  17
ATOM     17  C   UNL     1      -0.329  10.321  18.988  0.00  0.00    +0.000 A 
ATOM     18  C   UNL     1      -1.021   9.873  17.836  0.00  0.00    +0.000 A 
ATOM     19  C   UNL     1      -2.155  10.534  17.339  0.00  0.00    +0.000 A 
ATOM     20  C   UNL     1      -2.639  11.661  17.987  0.00  0.00    +0.000 A 
ATOM     21  C   UNL     1      -2.018  12.097  19.148  0.00  0.00    +0.000 A 
ATOM     22  C   UNL     1      -0.890  11.429  19.665  0.00  0.00    +0.000 A 
ATOM     23 BR   UNL     1      -0.280  12.153  21.315  0.00  0.00    +0.000 Br
ENDBRANCH  16  17
BRANCH  16  24
ATOM     24  O   UNL     1       1.933   9.632  18.250  0.00  0.00    +0.000 OA
ATOM     25  C   UNL     1       2.429  10.913  17.909  0.00  0.00    +0.000 C 
ENDBRANCH  16  24
ENDBRANCH  14  16
ENDBRANCH   3  14
TORSDOF 6
ENDMDL
MODEL 6
REMARK VINA RESULT:      -6.7      1.298      1.843
REMARK  Name = 
REMARK  9 active torsions:
REMARK  status: ('A' for Active; 'I' for Inactive)
REMARK    1  A    between atoms: C_1  and  O_2
REMARK    2  A    between atoms: O_2  and  C_3
REMARK    3  A    between atoms: C_3  and  C_5
REMARK    4  A    between atoms: C_7  and  C_8
REMARK    5  A    between atoms: C_8  and  C_9
REMARK    6  A    between atoms: C_8  and  C_10
REMARK    7  A    between atoms: C_10  and  O_11
REMARK    8  A    between atoms: C_10  and  C_13
REMARK    9  A    between atoms: O_11  and  C_12
REMARK                            x       y       z     vdW  Elec       q    Type
REMARK                         _______ _______ _______ _____ _____    ______ ____
ROOT
ATOM      1  C   UNL     1       3.719   5.760  17.641  0.00  0.00    +0.000 C 
ATOM      2  C   UNL     1       3.368   7.054  17.784  0.00  0.00    +0.000 C 
ATOM      3  C   UNL     1       2.102   7.222  18.667  0.00  0.00    +0.000 C 
ATOM      4  C   UNL     1       2.413   5.945  19.507  0.00  0.00    +0.000 C 
ATOM      5  O   UNL     1       1.516   5.308  20.393  0.00  0.00    +0.000 OA
ATOM      6  C   UNL     1       2.199   4.205  21.063  0.00  0.00    +0.000 C 
ATOM      7  C   UNL     1       3.201   3.419  20.188  0.00  0.00    +0.000 C 
ATOM      8  C   UNL     1       2.811   3.497  18.733  0.00  0.00    +0.000 C 
ATOM      9  C   UNL     1       2.665   4.952  18.316  0.00  0.00    +0.000 C 
ENDROOT
BRANCH   1  10
ATOM     10  C   UNL     1       5.008   5.258  17.146  0.00  0.00    +0.000 C 
ATOM     11  O   UNL     1       5.204   4.910  15.996  0.00  0.00    +0.000 OA
BRANCH  10  13
ATOM     12  C   UNL     1       7.201   4.721  17.746  0.00  0.00    +0.000 C 
ATOM     13  O   UNL     1       5.910   5.166  18.161  0.00  0.00    +0.000 OA
ENDBRANCH  10  13
ENDBRANCH   1  10
BRANCH   3  14
ATOM     14  C   UNL     1       2.031   8.713  19.128  0.00  0.00    +0.000 C 
ATOM     15  C   UNL     1       2.025   9.560  17.809  0.00  0.00    +0.000 C 
BRANCH  14  16
ATOM     16  C   UNL     1       0.816   9.221  19.975  0.00  0.00    +0.000 C 
BRANCH  16  17
ATOM     17  C   UNL     1      -0.088  10.322  19.341  0.00  0.00    +0.000 A 
ATOM     18  C   UNL     1      -1.252   9.873  18.670  0.00  0.00    +0.000 A 
ATOM     19  C   UNL     1      -2.077  10.744  17.939  0.00  0.00    +0.000 A 
ATOM     20  C   UNL     1      -1.767  12.094  17.865  0.00  0.00    +0.000 A 
ATOM     21  C   UNL     1      -0.664  12.576  18.554  0.00  0.00    +0.000 A 
ATOM     22  C   UNL     1       0.160  11.714  19.305  0.00  0.00    +0.000 A 
ATOM     23 BR   UNL     1       1.546  12.624  20.238  0.00  0.00    +0.000 Br
ENDBRANCH  16  17
BRANCH  16  24
ATOM     24  O   UNL     1       1.109   9.491  21.345  0.00  0.00    +0.000 OA
ATOM     25  C   UNL     1       0.026   9.366  22.248  0.00  0.00    +0.000 C 
ENDBRANCH  16  24
ENDBRANCH  14  16
ENDBRANCH   3  14
TORSDOF 6
ENDMDL
MODEL 7
REMARK VINA RESULT:      -6.7      1.675      3.343
REMARK  Name = 
REMARK  9 active torsions:
REMARK  status: ('A' for Active; 'I' for Inactive)
REMARK    1  A    between atoms: C_1  and  O_2
REMARK    2  A    between atoms: O_2  and  C_3
REMARK    3  A    between atoms: C_3  and  C_5
REMARK    4  A    between atoms: C_7  and  C_8
REMARK    5  A    between atoms: C_8  and  C_9
REMARK    6  A    between atoms: C_8  and  C_10
REMARK    7  A    between atoms: C_10  and  O_11
REMARK    8  A    between atoms: C_10  and  C_13
REMARK    9  A    between atoms: O_11  and  C_12
REMARK                            x       y       z     vdW  Elec       q    Type
REMARK                         _______ _______ _______ _____ _____    ______ ____
ROOT
ATOM      1  C   UNL     1       2.247   5.196  20.306  0.00  0.00    +0.000 C 
ATOM      2  C   UNL     1       1.810   6.470  20.273  0.00  0.00    +0.000 C 
ATOM      3  C   UNL     1       2.795   7.407  19.522  0.00  0.00    +0.000 C 
ATOM      4  C   UNL     1       3.298   6.267  18.583  0.00  0.00    +0.000 C 
ATOM      5  O   UNL     1       4.436   6.335  17.749  0.00  0.00    +0.000 OA
ATOM      6  C   UNL     1       4.527   5.113  16.954  0.00  0.00    +0.000 C 
ATOM      7  C   UNL     1       4.109   3.817  17.685  0.00  0.00    +0.000 C 
ATOM      8  C   UNL     1       4.323   3.954  19.172  0.00  0.00    +0.000 C 
ATOM      9  C   UNL     1       3.602   5.189  19.685  0.00  0.00    +0.000 C 
ENDROOT
BRANCH   1  10
ATOM     10  C   UNL     1       1.449   4.011  20.649  0.00  0.00    +0.000 C 
ATOM     11  O   UNL     1       1.624   3.343  21.653  0.00  0.00    +0.000 OA
BRANCH  10  13
ATOM     12  C   UNL     1       0.866   2.545  18.926  0.00  0.00    +0.000 C 
ATOM     13  O   UNL     1       0.557   3.729  19.661  0.00  0.00    +0.000 OA
ENDBRANCH  10  13
ENDBRANCH   1  10
BRANCH   3  14
ATOM     14  C   UNL     1       2.029   8.719  19.159  0.00  0.00    +0.000 C 
ATOM     15  C   UNL     1       1.602   8.554  17.659  0.00  0.00    +0.000 C 
BRANCH  14  16
ATOM     16  C   UNL     1       0.731   9.118  19.938  0.00  0.00    +0.000 C 
BRANCH  16  17
ATOM     17  C   UNL     1      -0.179  10.211  19.300  0.00  0.00    +0.000 A 
ATOM     18  C   UNL     1      -1.380   9.761  18.697  0.00  0.00    +0.000 A 
ATOM     19  C   UNL     1      -2.219  10.618  17.969  0.00  0.00    +0.000 A 
ATOM     20  C   UNL     1      -1.887  11.958  17.828  0.00  0.00    +0.000 A 
ATOM     21  C   UNL     1      -0.747  12.444  18.450  0.00  0.00    +0.000 A 
ATOM     22  C   UNL     1       0.092  11.595  19.199  0.00  0.00    +0.000 A 
ATOM     23 BR   UNL     1       1.535  12.513  20.034  0.00  0.00    +0.000 Br
ENDBRANCH  16  17
BRANCH  16  24
ATOM     24  O   UNL     1       0.908   9.318  21.339  0.00  0.00    +0.000 OA
ATOM     25  C   UNL     1      -0.245   9.150  22.142  0.00  0.00    +0.000 C 
ENDBRANCH  16  24
ENDBRANCH  14  16
ENDBRANCH   3  14
TORSDOF 6
ENDMDL
MODEL 8
REMARK VINA RESULT:      -6.6      1.181      1.227
REMARK  Name = 
REMARK  9 active torsions:
REMARK  status: ('A' for Active; 'I' for Inactive)
REMARK    1  A    between atoms: C_1  and  O_2
REMARK    2  A    between atoms: O_2  and  C_3
REMARK    3  A    between atoms: C_3  and  C_5
REMARK    4  A    between atoms: C_7  and  C_8
REMARK    5  A    between atoms: C_8  and  C_9
REMARK    6  A    between atoms: C_8  and  C_10
REMARK    7  A    between atoms: C_10  and  O_11
REMARK    8  A    between atoms: C_10  and  C_13
REMARK    9  A    between atoms: O_11  and  C_12
REMARK                            x       y       z     vdW  Elec       q    Type
REMARK                         _______ _______ _______ _____ _____    ______ ____
ROOT
ATOM      1  C   UNL     1       4.094   6.190  17.371  0.00  0.00    +0.000 C 
ATOM      2  C   UNL     1       3.612   7.429  17.594  0.00  0.00    +0.000 C 
ATOM      3  C   UNL     1       2.290   7.403  18.408  0.00  0.00    +0.000 C 
ATOM      4  C   UNL     1       2.678   6.094  19.161  0.00  0.00    +0.000 C 
ATOM      5  O   UNL     1       1.801   5.303  19.937  0.00  0.00    +0.000 OA
ATOM      6  C   UNL     1       2.551   4.215  20.558  0.00  0.00    +0.000 C 
ATOM      7  C   UNL     1       3.670   3.602  19.686  0.00  0.00    +0.000 C 
ATOM      8  C   UNL     1       3.354   3.768  18.221  0.00  0.00    +0.000 C 
ATOM      9  C   UNL     1       3.089   5.233  17.913  0.00  0.00    +0.000 C 
ENDROOT
BRANCH   1  10
ATOM     10  C   UNL     1       5.451   5.853  16.918  0.00  0.00    +0.000 C 
ATOM     11  O   UNL     1       5.885   4.716  16.864  0.00  0.00    +0.000 OA
BRANCH  10  13
ATOM     12  C   UNL     1       7.351   7.112  17.428  0.00  0.00    +0.000 C 
ATOM     13  O   UNL     1       6.162   6.981  16.650  0.00  0.00    +0.000 OA
ENDBRANCH  10  13
ENDBRANCH   1  10
BRANCH   3  14
ATOM     14  C   UNL     1       2.050   8.837  18.980  0.00  0.00    +0.000 C 
ATOM     15  C   UNL     1       1.929   9.774  17.729  0.00  0.00    +0.000 C 
BRANCH  14  16
ATOM     16  C   UNL     1       0.793   9.133  19.867  0.00  0.00    +0.000 C 
BRANCH  16  17
ATOM     17  C   UNL     1       0.282  10.605  19.914  0.00  0.00    +0.000 A 
ATOM     18  C   UNL     1       0.993  11.494  20.757  0.00  0.00    +0.000 A 
ATOM     19  C   UNL     1       0.558  12.808  20.997  0.00  0.00    +0.000 A 
ATOM     20  C   UNL     1      -0.599  13.275  20.392  0.00  0.00    +0.000 A 
ATOM     21  C   UNL     1      -1.291  12.449  19.519  0.00  0.00    +0.000 A 
ATOM     22  C   UNL     1      -0.852  11.136  19.257  0.00  0.00    +0.000 A 
ATOM     23 BR   UNL     1      -1.907  10.238  17.953  0.00  0.00    +0.000 Br
ENDBRANCH  16  17
BRANCH  16  24
ATOM     24  O   UNL     1       0.814   8.530  21.159  0.00  0.00    +0.000 OA
ATOM     25  C   UNL     1      -0.431   8.453  21.829  0.00  0.00    +0.000 C 
ENDBRANCH  16  24
ENDBRANCH  14  16
ENDBRANCH   3  14
TORSDOF 6
ENDMDL
MODEL 9
REMARK VINA RESULT:      -6.6      1.619      3.446
REMARK  Name = 
REMARK  9 active torsions:
REMARK  status: ('A' for Active; 'I' for Inactive)
REMARK    1  A    between atoms: C_1  and  O_2
REMARK    2  A    between atoms: O_2  and  C_3
REMARK    3  A    between atoms: C_3  and  C_5
REMARK    4  A    between atoms: C_7  and  C_8
REMARK    5  A    between atoms: C_8  and  C_9
REMARK    6  A    between atoms: C_8  and  C_10
REMARK    7  A    between atoms: C_10  and  O_11
REMARK    8  A    between atoms: C_10  and  C_13
REMARK    9  A    between atoms: O_11  and  C_12
REMARK                            x       y       z     vdW  Elec       q    Type
REMARK                         _______ _______ _______ _____ _____    ______ ____
ROOT
ATOM      1  C   UNL     1       2.144   5.053  19.208  0.00  0.00    +0.000 C 
ATOM      2  C   UNL     1       1.720   6.315  19.422  0.00  0.00    +0.000 C 
ATOM      3  C   UNL     1       2.835   7.360  19.149  0.00  0.00    +0.000 C 
ATOM      4  C   UNL     1       3.520   6.474  18.064  0.00  0.00    +0.000 C 
ATOM      5  O   UNL     1       4.803   6.694  17.515  0.00  0.00    +0.000 OA
ATOM      6  C   UNL     1       5.055   5.712  16.464  0.00  0.00    +0.000 C 
ATOM      7  C   UNL     1       4.500   4.296  16.737  0.00  0.00    +0.000 C 
ATOM      8  C   UNL     1       4.409   4.037  18.219  0.00  0.00    +0.000 C 
ATOM      9  C   UNL     1       3.596   5.136  18.885  0.00  0.00    +0.000 C 
ENDROOT
BRANCH   1  10
ATOM     10  C   UNL     1       1.295   3.862  19.068  0.00  0.00    +0.000 C 
ATOM     11  O   UNL     1       1.101   3.288  18.011  0.00  0.00    +0.000 OA
BRANCH  10  13
ATOM     12  C   UNL     1       1.536   2.785  21.127  0.00  0.00    +0.000 C 
ATOM     13  O   UNL     1       0.705   3.550  20.254  0.00  0.00    +0.000 OA
ENDBRANCH  10  13
ENDBRANCH   1  10
BRANCH   3  14
ATOM     14  C   UNL     1       2.156   8.759  18.997  0.00  0.00    +0.000 C 
ATOM     15  C   UNL     1       1.730   8.857  17.491  0.00  0.00    +0.000 C 
BRANCH  14  16
ATOM     16  C   UNL     1       0.881   9.114  19.833  0.00  0.00    +0.000 C 
BRANCH  16  17
ATOM     17  C   UNL     1      -0.078  10.196  19.251  0.00  0.00    +0.000 A 
ATOM     18  C   UNL     1      -1.269   9.725  18.645  0.00  0.00    +0.000 A 
ATOM     19  C   UNL     1      -2.150  10.579  17.963  0.00  0.00    +0.000 A 
ATOM     20  C   UNL     1      -1.871  11.935  17.872  0.00  0.00    +0.000 A 
ATOM     21  C   UNL     1      -0.741  12.439  18.499  0.00  0.00    +0.000 A 
ATOM     22  C   UNL     1       0.140  11.593  19.203  0.00  0.00    +0.000 A 
ATOM     23 BR   UNL     1       1.559  12.530  20.057  0.00  0.00    +0.000 Br
ENDBRANCH  16  17
BRANCH  16  24
ATOM     24  O   UNL     1       1.109   9.294  21.229  0.00  0.00    +0.000 OA
ATOM     25  C   UNL     1       0.018   8.996  22.081  0.00  0.00    +0.000 C 
ENDBRANCH  16  24
ENDBRANCH  14  16
ENDBRANCH   3  14
TORSDOF 6
ENDMDL
