MODEL 1
REMARK VINA RESULT:      -7.1      0.000      0.000
REMARK  Name = 
REMARK  12 active torsions:
REMARK  status: ('A' for Active; 'I' for Inactive)
REMARK    1  A    between atoms: C_1  and  C_2
REMARK    2  A    between atoms: C_2  and  O_3
REMARK    3  A    between atoms: O_3  and  C_4
REMARK    4  A    between atoms: C_7  and  O_8
REMARK    5  A    between atoms: O_8  and  C_9
REMARK    6  A    between atoms: C_9  and  C_10
REMARK    7  A    between atoms: N_19  and  C_20
REMARK    8  A    between atoms: C_23  and  C_24
REMARK    9  A    between atoms: C_24  and  C_25
REMARK   10  A    between atoms: C_25  and  O_27
REMARK   11  A    between atoms: C_29  and  O_30
REMARK   12  A    between atoms: O_30  and  C_31
REMARK                            x       y       z     vdW  Elec       q    Type
REMARK                         _______ _______ _______ _____ _____    ______ ____
ROOT
ATOM      1  C   UNL     1       0.820  11.654  18.905  0.00  0.00    +0.000 A 
ATOM      2  C   UNL     1       1.219  10.317  18.848  0.00  0.00    +0.000 A 
ATOM      3  C   UNL     1       0.849   9.445  19.890  0.00  0.00    +0.000 A 
ATOM      4  C   UNL     1      -0.034   9.812  20.911  0.00  0.00    +0.000 A 
ATOM      5  C   UNL     1      -0.437  11.166  20.988  0.00  0.00    +0.000 A 
ATOM      6  C   UNL     1      -1.247  11.636  22.054  0.00  0.00    +0.000 A 
ATOM      7  C   UNL     1      -1.612  12.974  22.181  0.00  0.00    +0.000 A 
ATOM      8  C   UNL     1      -1.202  13.885  21.220  0.00  0.00    +0.000 A 
ATOM      9  C   UNL     1      -0.424  13.450  20.143  0.00  0.00    +0.000 A 
ATOM     10  C   UNL     1      -0.007  12.099  19.994  0.00  0.00    +0.000 A 
ATOM     11  C   UNL     1       1.621   8.207  19.697  0.00  0.00    +0.000 C 
ATOM     12  O   UNL     1       1.905   7.404  20.568  0.00  0.00    +0.000 OA
ATOM     13  N   UNL     1       2.044   8.166  18.372  0.00  0.00    +0.000 N 
ATOM     14  C   UNL     1       2.084   9.538  17.882  0.00  0.00    +0.000 C 
ENDROOT
BRANCH  13  15
ATOM     15  C   UNL     1       2.931   7.151  17.916  0.00  0.00    +0.000 A 
ATOM     16  C   UNL     1       4.205   7.519  17.446  0.00  0.00    +0.000 A 
ATOM     17  C   UNL     1       5.101   6.572  16.912  0.00  0.00    +0.000 A 
ATOM     18  C   UNL     1       4.762   5.219  16.854  0.00  0.00    +0.000 A 
ATOM     19  C   UNL     1       3.543   4.835  17.421  0.00  0.00    +0.000 A 
ATOM     20  C   UNL     1       2.618   5.775  17.938  0.00  0.00    +0.000 A 
BRANCH  20  21
ATOM     21  O   UNL     1       1.495   5.121  18.361  0.00  0.00    +0.000 OA
ATOM     22  C   UNL     1       1.577   3.883  19.033  0.00  0.00    +0.000 C 
ENDBRANCH  20  21
BRANCH  18  23
ATOM     23  C   UNL     1       5.659   4.198  16.174  0.00  0.00    +0.000 C 
BRANCH  23  24
ATOM     24  C   UNL     1       7.094   4.637  15.948  0.00  0.00    +0.000 C 
ATOM     25  O   UNL     1       7.467   5.212  14.933  0.00  0.00    +0.000 OA
BRANCH  24  26
ATOM     26  O   UNL     1       7.938   4.426  16.987  0.00  0.00    +0.000 OA
ATOM     27  H   UNL     1       8.667   5.075  17.039  0.00  0.00    +0.000 HD
ENDBRANCH  24  26
ENDBRANCH  23  24
ENDBRANCH  18  23
ENDBRANCH  13  15
BRANCH   1  28
ATOM     28  O   UNL     1       1.203  12.658  18.051  0.00  0.00    +0.000 OA
BRANCH  28  30
ATOM     29  C   UNL     1       2.880  14.107  18.928  0.00  0.00    +0.000 C 
ATOM     30  C   UNL     1       2.574  13.005  17.928  0.00  0.00    +0.000 C 
ENDBRANCH  28  30
ENDBRANCH   1  28
BRANCH   4  31
ATOM     31  O   UNL     1      -0.558   8.978  21.874  0.00  0.00    +0.000 OA
BRANCH  31  32
ATOM     32  C   UNL     1      -0.129   9.199  23.220  0.00  0.00    +0.000 C 
ATOM     33  C   UNL     1       1.383   9.280  23.311  0.00  0.00    +0.000 C 
ENDBRANCH  31  32
ENDBRANCH   4  31
TORSDOF 9
ENDMDL
MODEL 2
REMARK VINA RESULT:      -6.6      1.904      3.063
REMARK  Name = 
REMARK  12 active torsions:
REMARK  status: ('A' for Active; 'I' for Inactive)
REMARK    1  A    between atoms: C_1  and  C_2
REMARK    2  A    between atoms: C_2  and  O_3
REMARK    3  A    between atoms: O_3  and  C_4
REMARK    4  A    between atoms: C_7  and  O_8
REMARK    5  A    between atoms: O_8  and  C_9
REMARK    6  A    between atoms: C_9  and  C_10
REMARK    7  A    between atoms: N_19  and  C_20
REMARK    8  A    between atoms: C_23  and  C_24
REMARK    9  A    between atoms: C_24  and  C_25
REMARK   10  A    between atoms: C_25  and  O_27
REMARK   11  A    between atoms: C_29  and  O_30
REMARK   12  A    between atoms: O_30  and  C_31
REMARK                            x       y       z     vdW  Elec       q    Type
REMARK                         _______ _______ _______ _____ _____    ______ ____
ROOT
ATOM      1  C   UNL     1       1.439   9.438  18.890  0.00  0.00    +0.000 A 
ATOM      2  C   UNL     1       2.170   8.307  18.518  0.00  0.00    +0.000 A 
ATOM      3  C   UNL     1       2.292   7.239  19.427  0.00  0.00    +0.000 A 
ATOM      4  C   UNL     1       1.586   7.184  20.634  0.00  0.00    +0.000 A 
ATOM      5  C   UNL     1       0.851   8.326  21.028  0.00  0.00    +0.000 A 
ATOM      6  C   UNL     1       0.195   8.384  22.286  0.00  0.00    +0.000 A 
ATOM      7  C   UNL     1      -0.489   9.516  22.720  0.00  0.00    +0.000 A 
ATOM      8  C   UNL     1      -0.567  10.624  21.889  0.00  0.00    +0.000 A 
ATOM      9  C   UNL     1       0.047  10.591  20.633  0.00  0.00    +0.000 A 
ATOM     10  C   UNL     1       0.779   9.465  20.167  0.00  0.00    +0.000 A 
ATOM     11  C   UNL     1       3.315   6.334  18.879  0.00  0.00    +0.000 C 
ATOM     12  O   UNL     1       3.992   5.554  19.524  0.00  0.00    +0.000 OA
ATOM     13  N   UNL     1       3.433   6.594  17.517  0.00  0.00    +0.000 N 
ATOM     14  C   UNL     1       2.984   7.963  17.291  0.00  0.00    +0.000 C 
ENDROOT
BRANCH  13  15
ATOM     15  C   UNL     1       4.445   5.968  16.736  0.00  0.00    +0.000 A 
ATOM     16  C   UNL     1       5.534   6.739  16.286  0.00  0.00    +0.000 A 
ATOM     17  C   UNL     1       6.529   6.198  15.449  0.00  0.00    +0.000 A 
ATOM     18  C   UNL     1       6.482   4.860  15.052  0.00  0.00    +0.000 A 
ATOM     19  C   UNL     1       5.464   4.065  15.586  0.00  0.00    +0.000 A 
ATOM     20  C   UNL     1       4.439   4.596  16.408  0.00  0.00    +0.000 A 
BRANCH  20  21
ATOM     21  O   UNL     1       3.552   3.606  16.723  0.00  0.00    +0.000 OA
ATOM     22  C   UNL     1       3.825   2.675  17.747  0.00  0.00    +0.000 C 
ENDBRANCH  20  21
BRANCH  18  23
ATOM     23  C   UNL     1       7.474   4.287  14.054  0.00  0.00    +0.000 C 
BRANCH  23  24
ATOM     24  C   UNL     1       7.996   5.264  13.016  0.00  0.00    +0.000 C 
ATOM     25  O   UNL     1       8.906   6.053  13.237  0.00  0.00    +0.000 OA
BRANCH  24  26
ATOM     26  O   UNL     1       7.443   5.155  11.784  0.00  0.00    +0.000 OA
ATOM     27  H   UNL     1       7.824   5.771  11.127  0.00  0.00    +0.000 HD
ENDBRANCH  24  26
ENDBRANCH  23  24
ENDBRANCH  18  23
ENDBRANCH  13  15
BRANCH   1  28
ATOM     28  O   UNL     1       1.333  10.611  18.185  0.00  0.00    +0.000 OA
BRANCH  28  30
ATOM     29  C   UNL     1       2.223  12.772  18.651  0.00  0.00    +0.000 C 
ATOM     30  C   UNL     1       2.477  11.430  17.988  0.00  0.00    +0.000 C 
ENDBRANCH  28  30
ENDBRANCH   1  28
BRANCH   4  31
ATOM     31  O   UNL     1       1.537   6.113  21.499  0.00  0.00    +0.000 OA
BRANCH  31  32
ATOM     32  C   UNL     1       1.208   4.842  20.933  0.00  0.00    +0.000 C 
ATOM     33  C   UNL     1       2.034   3.731  21.552  0.00  0.00    +0.000 C 
ENDBRANCH  31  32
ENDBRANCH   4  31
TORSDOF 9
ENDMDL
MODEL 3
REMARK VINA RESULT:      -6.6      1.912      3.412
REMARK  Name = 
REMARK  12 active torsions:
REMARK  status: ('A' for Active; 'I' for Inactive)
REMARK    1  A    between atoms: C_1  and  C_2
REMARK    2  A    between atoms: C_2  and  O_3
REMARK    3  A    between atoms: O_3  and  C_4
REMARK    4  A    between atoms: C_7  and  O_8
REMARK    5  A    between atoms: O_8  and  C_9
REMARK    6  A    between atoms: C_9  and  C_10
REMARK    7  A    between atoms: N_19  and  C_20
REMARK    8  A    between atoms: C_23  and  C_24
REMARK    9  A    between atoms: C_24  and  C_25
REMARK   10  A    between atoms: C_25  and  O_27
REMARK   11  A    between atoms: C_29  and  O_30
REMARK   12  A    between atoms: O_30  and  C_31
REMARK                            x       y       z     vdW  Elec       q    Type
REMARK                         _______ _______ _______ _____ _____    ______ ____
ROOT
ATOM      1  C   UNL     1       0.002  10.768  21.329  0.00  0.00    +0.000 A 
ATOM      2  C   UNL     1       0.609  10.056  20.292  0.00  0.00    +0.000 A 
ATOM      3  C   UNL     1       0.046  10.107  19.002  0.00  0.00    +0.000 A 
ATOM      4  C   UNL     1      -1.007  10.964  18.667  0.00  0.00    +0.000 A 
ATOM      5  C   UNL     1      -1.639  11.683  19.708  0.00  0.00    +0.000 A 
ATOM      6  C   UNL     1      -2.779  12.490  19.462  0.00  0.00    +0.000 A 
ATOM      7  C   UNL     1      -3.451  13.165  20.479  0.00  0.00    +0.000 A 
ATOM      8  C   UNL     1      -2.980  13.077  21.779  0.00  0.00    +0.000 A 
ATOM      9  C   UNL     1      -1.843  12.309  22.053  0.00  0.00    +0.000 A 
ATOM     10  C   UNL     1      -1.148  11.584  21.047  0.00  0.00    +0.000 A 
ATOM     11  C   UNL     1       0.724   9.071  18.206  0.00  0.00    +0.000 C 
ATOM     12  O   UNL     1       0.267   8.524  17.218  0.00  0.00    +0.000 OA
ATOM     13  N   UNL     1       1.927   8.766  18.833  0.00  0.00    +0.000 N 
ATOM     14  C   UNL     1       1.788   9.109  20.243  0.00  0.00    +0.000 C 
ENDROOT
BRANCH  13  15
ATOM     15  C   UNL     1       2.745   7.696  18.370  0.00  0.00    +0.000 A 
ATOM     16  C   UNL     1       3.691   7.948  17.359  0.00  0.00    +0.000 A 
ATOM     17  C   UNL     1       4.478   6.920  16.806  0.00  0.00    +0.000 A 
ATOM     18  C   UNL     1       4.363   5.605  17.263  0.00  0.00    +0.000 A 
ATOM     19  C   UNL     1       3.505   5.372  18.342  0.00  0.00    +0.000 A 
ATOM     20  C   UNL     1       2.686   6.387  18.894  0.00  0.00    +0.000 A 
BRANCH  20  21
ATOM     21  O   UNL     1       1.909   5.856  19.884  0.00  0.00    +0.000 OA
ATOM     22  C   UNL     1       1.683   4.466  19.973  0.00  0.00    +0.000 C 
ENDBRANCH  20  21
BRANCH  18  23
ATOM     23  C   UNL     1       5.110   4.460  16.602  0.00  0.00    +0.000 C 
BRANCH  23  24
ATOM     24  C   UNL     1       6.618   4.476  16.776  0.00  0.00    +0.000 C 
ATOM     25  O   UNL     1       7.391   4.826  15.894  0.00  0.00    +0.000 OA
BRANCH  24  26
ATOM     26  O   UNL     1       7.063   4.153  18.015  0.00  0.00    +0.000 OA
ATOM     27  H   UNL     1       6.587   3.400  18.419  0.00  0.00    +0.000 HD
ENDBRANCH  24  26
ENDBRANCH  23  24
ENDBRANCH  18  23
ENDBRANCH  13  15
BRANCH   1  28
ATOM     28  O   UNL     1       0.338  10.721  22.659  0.00  0.00    +0.000 OA
BRANCH  28  30
ATOM     29  C   UNL     1      -0.701   8.579  22.553  0.00  0.00    +0.000 C 
ATOM     30  C   UNL     1       0.095   9.543  23.414  0.00  0.00    +0.000 C 
ENDBRANCH  28  30
ENDBRANCH   1  28
BRANCH   4  31
ATOM     31  O   UNL     1      -1.509  11.180  17.402  0.00  0.00    +0.000 OA
BRANCH  31  32
ATOM     32  C   UNL     1      -2.489  10.250  16.931  0.00  0.00    +0.000 C 
ATOM     33  C   UNL     1      -3.537  10.938  16.077  0.00  0.00    +0.000 C 
ENDBRANCH  31  32
ENDBRANCH   4  31
TORSDOF 9
ENDMDL
MODEL 4
REMARK VINA RESULT:      -6.6      7.563     11.576
REMARK  Name = 
REMARK  12 active torsions:
REMARK  status: ('A' for Active; 'I' for Inactive)
REMARK    1  A    between atoms: C_1  and  C_2
REMARK    2  A    between atoms: C_2  and  O_3
REMARK    3  A    between atoms: O_3  and  C_4
REMARK    4  A    between atoms: C_7  and  O_8
REMARK    5  A    between atoms: O_8  and  C_9
REMARK    6  A    between atoms: C_9  and  C_10
REMARK    7  A    between atoms: N_19  and  C_20
REMARK    8  A    between atoms: C_23  and  C_24
REMARK    9  A    between atoms: C_24  and  C_25
REMARK   10  A    between atoms: C_25  and  O_27
REMARK   11  A    between atoms: C_29  and  O_30
REMARK   12  A    between atoms: O_30  and  C_31
REMARK                            x       y       z     vdW  Elec       q    Type
REMARK                         _______ _______ _______ _____ _____    ______ ____
ROOT
ATOM      1  C   UNL     1      10.084  12.127  19.811  0.00  0.00    +0.000 A 
ATOM      2  C   UNL     1       9.378  12.708  20.866  0.00  0.00    +0.000 A 
ATOM      3  C   UNL     1       9.397  14.108  21.016  0.00  0.00    +0.000 A 
ATOM      4  C   UNL     1       9.963  14.966  20.068  0.00  0.00    +0.000 A 
ATOM      5  C   UNL     1      10.691  14.392  19.000  0.00  0.00    +0.000 A 
ATOM      6  C   UNL     1      11.380  15.199  18.057  0.00  0.00    +0.000 A 
ATOM      7  C   UNL     1      12.147  14.656  17.029  0.00  0.00    +0.000 A 
ATOM      8  C   UNL     1      12.224  13.279  16.891  0.00  0.00    +0.000 A 
ATOM      9  C   UNL     1      11.536  12.455  17.788  0.00  0.00    +0.000 A 
ATOM     10  C   UNL     1      10.766  12.970  18.867  0.00  0.00    +0.000 A 
ATOM     11  C   UNL     1       8.809  14.398  22.334  0.00  0.00    +0.000 C 
ATOM     12  O   UNL     1       9.016  15.397  22.999  0.00  0.00    +0.000 OA
ATOM     13  N   UNL     1       8.055  13.295  22.720  0.00  0.00    +0.000 N 
ATOM     14  C   UNL     1       8.588  12.132  22.020  0.00  0.00    +0.000 C 
ENDROOT
BRANCH  13  15
ATOM     15  C   UNL     1       7.473  13.222  24.017  0.00  0.00    +0.000 A 
ATOM     16  C   UNL     1       8.171  12.556  25.042  0.00  0.00    +0.000 A 
ATOM     17  C   UNL     1       7.618  12.384  26.326  0.00  0.00    +0.000 A 
ATOM     18  C   UNL     1       6.356  12.896  26.636  0.00  0.00    +0.000 A 
ATOM     19  C   UNL     1       5.709  13.653  25.655  0.00  0.00    +0.000 A 
ATOM     20  C   UNL     1       6.237  13.814  24.350  0.00  0.00    +0.000 A 
BRANCH  20  21
ATOM     21  O   UNL     1       5.362  14.541  23.593  0.00  0.00    +0.000 OA
ATOM     22  C   UNL     1       4.818  15.755  24.063  0.00  0.00    +0.000 C 
ENDBRANCH  20  21
BRANCH  18  23
ATOM     23  C   UNL     1       5.687  12.620  27.972  0.00  0.00    +0.000 C 
BRANCH  23  24
ATOM     24  C   UNL     1       4.734  11.438  27.995  0.00  0.00    +0.000 C 
ATOM     25  O   UNL     1       5.105  10.281  28.139  0.00  0.00    +0.000 OA
BRANCH  24  26
ATOM     26  O   UNL     1       3.418  11.753  27.928  0.00  0.00    +0.000 OA
ATOM     27  H   UNL     1       2.970  11.756  28.797  0.00  0.00    +0.000 HD
ENDBRANCH  24  26
ENDBRANCH  23  24
ENDBRANCH  18  23
ENDBRANCH  13  15
BRANCH   1  28
ATOM     28  O   UNL     1      10.279  10.784  19.599  0.00  0.00    +0.000 OA
BRANCH  28  30
ATOM     29  C   UNL     1       8.654  10.058  18.015  0.00  0.00    +0.000 C 
ATOM     30  C   UNL     1       9.165   9.919  19.438  0.00  0.00    +0.000 C 
ENDBRANCH  28  30
ENDBRANCH   1  28
BRANCH   4  31
ATOM     31  O   UNL     1       9.890  16.342  20.069  0.00  0.00    +0.000 OA
BRANCH  31  32
ATOM     32  C   UNL     1       8.639  16.921  19.687  0.00  0.00    +0.000 C 
ATOM     33  C   UNL     1       8.808  17.892  18.534  0.00  0.00    +0.000 C 
ENDBRANCH  31  32
ENDBRANCH   4  31
TORSDOF 9
ENDMDL
MODEL 5
REMARK VINA RESULT:      -6.5      6.240      8.036
REMARK  Name = 
REMARK  12 active torsions:
REMARK  status: ('A' for Active; 'I' for Inactive)
REMARK    1  A    between atoms: C_1  and  C_2
REMARK    2  A    between atoms: C_2  and  O_3
REMARK    3  A    between atoms: O_3  and  C_4
REMARK    4  A    between atoms: C_7  and  O_8
REMARK    5  A    between atoms: O_8  and  C_9
REMARK    6  A    between atoms: C_9  and  C_10
REMARK    7  A    between atoms: N_19  and  C_20
REMARK    8  A    between atoms: C_23  and  C_24
REMARK    9  A    between atoms: C_24  and  C_25
REMARK   10  A    between atoms: C_25  and  O_27
REMARK   11  A    between atoms: C_29  and  O_30
REMARK   12  A    between atoms: O_30  and  C_31
REMARK                            x       y       z     vdW  Elec       q    Type
REMARK                         _______ _______ _______ _____ _____    ______ ____
ROOT
ATOM      1  C   UNL     1      -3.205  11.834  18.176  0.00  0.00    +0.000 A 
ATOM      2  C   UNL     1      -2.179  12.421  18.920  0.00  0.00    +0.000 A 
ATOM      3  C   UNL     1      -2.471  12.951  20.191  0.00  0.00    +0.000 A 
ATOM      4  C   UNL     1      -3.709  12.782  20.820  0.00  0.00    +0.000 A 
ATOM      5  C   UNL     1      -4.760  12.199  20.074  0.00  0.00    +0.000 A 
ATOM      6  C   UNL     1      -6.071  12.089  20.606  0.00  0.00    +0.000 A 
ATOM      7  C   UNL     1      -7.134  11.569  19.873  0.00  0.00    +0.000 A 
ATOM      8  C   UNL     1      -6.911  11.109  18.584  0.00  0.00    +0.000 A 
ATOM      9  C   UNL     1      -5.625  11.179  18.038  0.00  0.00    +0.000 A 
ATOM     10  C   UNL     1      -4.521  11.730  18.745  0.00  0.00    +0.000 A 
ATOM     11  C   UNL     1      -1.289  13.724  20.606  0.00  0.00    +0.000 C 
ATOM     12  O   UNL     1      -1.287  14.643  21.405  0.00  0.00    +0.000 OA
ATOM     13  N   UNL     1      -0.202  13.282  19.859  0.00  0.00    +0.000 N 
ATOM     14  C   UNL     1      -0.723  12.704  18.626  0.00  0.00    +0.000 C 
ENDROOT
BRANCH  13  15
ATOM     15  C   UNL     1       1.059  13.937  19.939  0.00  0.00    +0.000 A 
ATOM     16  C   UNL     1       2.094  13.336  20.678  0.00  0.00    +0.000 A 
ATOM     17  C   UNL     1       3.341  13.967  20.858  0.00  0.00    +0.000 A 
ATOM     18  C   UNL     1       3.602  15.213  20.283  0.00  0.00    +0.000 A 
ATOM     19  C   UNL     1       2.616  15.760  19.457  0.00  0.00    +0.000 A 
ATOM     20  C   UNL     1       1.348  15.154  19.286  0.00  0.00    +0.000 A 
BRANCH  20  21
ATOM     21  O   UNL     1       0.572  15.943  18.484  0.00  0.00    +0.000 OA
ATOM     22  C   UNL     1      -0.221  16.979  19.021  0.00  0.00    +0.000 C 
ENDBRANCH  20  21
BRANCH  18  23
ATOM     23  C   UNL     1       4.891  15.968  20.562  0.00  0.00    +0.000 C 
BRANCH  23  24
ATOM     24  C   UNL     1       5.550  16.606  19.352  0.00  0.00    +0.000 C 
ATOM     25  O   UNL     1       5.735  17.811  19.247  0.00  0.00    +0.000 OA
BRANCH  24  26
ATOM     26  O   UNL     1       6.004  15.740  18.414  0.00  0.00    +0.000 OA
ATOM     27  H   UNL     1       6.478  16.173  17.676  0.00  0.00    +0.000 HD
ENDBRANCH  24  26
ENDBRANCH  23  24
ENDBRANCH  18  23
ENDBRANCH  13  15
BRANCH   1  28
ATOM     28  O   UNL     1      -3.124  11.394  16.878  0.00  0.00    +0.000 OA
BRANCH  28  30
ATOM     29  C   UNL     1      -2.903   9.705  15.210  0.00  0.00    +0.000 C 
ATOM     30  C   UNL     1      -2.445  10.183  16.577  0.00  0.00    +0.000 C 
ENDBRANCH  28  30
ENDBRANCH   1  28
BRANCH   4  31
ATOM     31  O   UNL     1      -4.021  13.137  22.113  0.00  0.00    +0.000 OA
BRANCH  31  32
ATOM     32  C   UNL     1      -3.405  12.376  23.156  0.00  0.00    +0.000 C 
ATOM     33  C   UNL     1      -4.187  12.481  24.452  0.00  0.00    +0.000 C 
ENDBRANCH  31  32
ENDBRANCH   4  31
TORSDOF 9
ENDMDL
MODEL 6
REMARK VINA RESULT:      -6.5      4.840     10.054
REMARK  Name = 
REMARK  12 active torsions:
REMARK  status: ('A' for Active; 'I' for Inactive)
REMARK    1  A    between atoms: C_1  and  C_2
REMARK    2  A    between atoms: C_2  and  O_3
REMARK    3  A    between atoms: O_3  and  C_4
REMARK    4  A    between atoms: C_7  and  O_8
REMARK    5  A    between atoms: O_8  and  C_9
REMARK    6  A    between atoms: C_9  and  C_10
REMARK    7  A    between atoms: N_19  and  C_20
REMARK    8  A    between atoms: C_23  and  C_24
REMARK    9  A    between atoms: C_24  and  C_25
REMARK   10  A    between atoms: C_25  and  O_27
REMARK   11  A    between atoms: C_29  and  O_30
REMARK   12  A    between atoms: O_30  and  C_31
REMARK                            x       y       z     vdW  Elec       q    Type
REMARK                         _______ _______ _______ _____ _____    ______ ____
ROOT
ATOM      1  C   UNL     1      -1.438  11.313  18.927  0.00  0.00    +0.000 A 
ATOM      2  C   UNL     1      -1.934  12.067  19.992  0.00  0.00    +0.000 A 
ATOM      3  C   UNL     1      -3.259  12.542  19.940  0.00  0.00    +0.000 A 
ATOM      4  C   UNL     1      -4.161  12.165  18.940  0.00  0.00    +0.000 A 
ATOM      5  C   UNL     1      -3.670  11.411  17.849  0.00  0.00    +0.000 A 
ATOM      6  C   UNL     1      -4.501  11.080  16.747  0.00  0.00    +0.000 A 
ATOM      7  C   UNL     1      -4.027  10.385  15.637  0.00  0.00    +0.000 A 
ATOM      8  C   UNL     1      -2.706   9.968  15.609  0.00  0.00    +0.000 A 
ATOM      9  C   UNL     1      -1.866  10.256  16.690  0.00  0.00    +0.000 A 
ATOM     10  C   UNL     1      -2.305  10.987  17.827  0.00  0.00    +0.000 A 
ATOM     11  C   UNL     1      -3.405  13.506  21.043  0.00  0.00    +0.000 C 
ATOM     12  O   UNL     1      -4.216  14.413  21.090  0.00  0.00    +0.000 OA
ATOM     13  N   UNL     1      -2.398  13.254  21.970  0.00  0.00    +0.000 N 
ATOM     14  C   UNL     1      -1.306  12.594  21.264  0.00  0.00    +0.000 C 
ENDROOT
BRANCH  13  15
ATOM     15  C   UNL     1      -2.196  14.114  23.085  0.00  0.00    +0.000 A 
ATOM     16  C   UNL     1      -1.279  15.175  22.970  0.00  0.00    +0.000 A 
ATOM     17  C   UNL     1      -0.977  16.017  24.059  0.00  0.00    +0.000 A 
ATOM     18  C   UNL     1      -1.604  15.841  25.294  0.00  0.00    +0.000 A 
ATOM     19  C   UNL     1      -2.596  14.860  25.380  0.00  0.00    +0.000 A 
ATOM     20  C   UNL     1      -2.893  13.987  24.305  0.00  0.00    +0.000 A 
BRANCH  20  21
ATOM     21  O   UNL     1      -3.851  13.094  24.697  0.00  0.00    +0.000 OA
ATOM     22  C   UNL     1      -5.166  13.159  24.188  0.00  0.00    +0.000 C 
ENDBRANCH  20  21
BRANCH  18  23
ATOM     23  C   UNL     1      -1.209  16.656  26.514  0.00  0.00    +0.000 C 
BRANCH  23  24
ATOM     24  C   UNL     1       0.284  16.801  26.748  0.00  0.00    +0.000 C 
ATOM     25  O   UNL     1       0.910  17.816  26.471  0.00  0.00    +0.000 OA
BRANCH  24  26
ATOM     26  O   UNL     1       0.879  15.754  27.369  0.00  0.00    +0.000 OA
ATOM     27  H   UNL     1       0.413  14.905  27.241  0.00  0.00    +0.000 HD
ENDBRANCH  24  26
ENDBRANCH  23  24
ENDBRANCH  18  23
ENDBRANCH  13  15
BRANCH   1  28
ATOM     28  O   UNL     1      -0.142  10.891  18.757  0.00  0.00    +0.000 OA
BRANCH  28  30
ATOM     29  C   UNL     1       1.475   9.142  18.783  0.00  0.00    +0.000 C 
ATOM     30  C   UNL     1       0.377   9.843  19.562  0.00  0.00    +0.000 C 
ENDBRANCH  28  30
ENDBRANCH   1  28
BRANCH   4  31
ATOM     31  O   UNL     1      -5.506  12.464  18.903  0.00  0.00    +0.000 OA
BRANCH  31  32
ATOM     32  C   UNL     1      -6.383  11.572  19.596  0.00  0.00    +0.000 C 
ATOM     33  C   UNL     1      -6.911  12.200  20.873  0.00  0.00    +0.000 C 
ENDBRANCH  31  32
ENDBRANCH   4  31
TORSDOF 9
ENDMDL
MODEL 7
REMARK VINA RESULT:      -6.5      2.306      2.958
REMARK  Name = 
REMARK  12 active torsions:
REMARK  status: ('A' for Active; 'I' for Inactive)
REMARK    1  A    between atoms: C_1  and  C_2
REMARK    2  A    between atoms: C_2  and  O_3
REMARK    3  A    between atoms: O_3  and  C_4
REMARK    4  A    between atoms: C_7  and  O_8
REMARK    5  A    between atoms: O_8  and  C_9
REMARK    6  A    between atoms: C_9  and  C_10
REMARK    7  A    between atoms: N_19  and  C_20
REMARK    8  A    between atoms: C_23  and  C_24
REMARK    9  A    between atoms: C_24  and  C_25
REMARK   10  A    between atoms: C_25  and  O_27
REMARK   11  A    between atoms: C_29  and  O_30
REMARK   12  A    between atoms: O_30  and  C_31
REMARK                            x       y       z     vdW  Elec       q    Type
REMARK                         _______ _______ _______ _____ _____    ______ ____
ROOT
ATOM      1  C   UNL     1      -2.100  11.354  18.705  0.00  0.00    +0.000 A 
ATOM      2  C   UNL     1      -1.012  10.532  19.010  0.00  0.00    +0.000 A 
ATOM      3  C   UNL     1      -0.418  10.625  20.283  0.00  0.00    +0.000 A 
ATOM      4  C   UNL     1      -0.958  11.391  21.320  0.00  0.00    +0.000 A 
ATOM      5  C   UNL     1      -2.053  12.236  21.023  0.00  0.00    +0.000 A 
ATOM      6  C   UNL     1      -2.589  13.120  21.996  0.00  0.00    +0.000 A 
ATOM      7  C   UNL     1      -3.631  14.000  21.713  0.00  0.00    +0.000 A 
ATOM      8  C   UNL     1      -4.194  14.001  20.447  0.00  0.00    +0.000 A 
ATOM      9  C   UNL     1      -3.706  13.125  19.471  0.00  0.00    +0.000 A 
ATOM     10  C   UNL     1      -2.626  12.233  19.714  0.00  0.00    +0.000 A 
ATOM     11  C   UNL     1       0.838   9.858  20.218  0.00  0.00    +0.000 C 
ATOM     12  O   UNL     1       1.810  10.027  20.931  0.00  0.00    +0.000 OA
ATOM     13  N   UNL     1       0.748   8.978  19.144  0.00  0.00    +0.000 N 
ATOM     14  C   UNL     1      -0.216   9.532  18.201  0.00  0.00    +0.000 C 
ENDROOT
BRANCH  13  15
ATOM     15  C   UNL     1       1.867   8.196  18.742  0.00  0.00    +0.000 A 
ATOM     16  C   UNL     1       2.635   8.618  17.641  0.00  0.00    +0.000 A 
ATOM     17  C   UNL     1       3.709   7.851  17.147  0.00  0.00    +0.000 A 
ATOM     18  C   UNL     1       4.066   6.646  17.754  0.00  0.00    +0.000 A 
ATOM     19  C   UNL     1       3.377   6.279  18.914  0.00  0.00    +0.000 A 
ATOM     20  C   UNL     1       2.278   7.023  19.410  0.00  0.00    +0.000 A 
BRANCH  20  21
ATOM     21  O   UNL     1       1.764   6.395  20.509  0.00  0.00    +0.000 OA
ATOM     22  C   UNL     1       2.002   5.025  20.750  0.00  0.00    +0.000 C 
ENDBRANCH  20  21
BRANCH  18  23
ATOM     23  C   UNL     1       5.139   5.743  17.169  0.00  0.00    +0.000 C 
BRANCH  23  24
ATOM     24  C   UNL     1       5.096   4.295  17.626  0.00  0.00    +0.000 C 
ATOM     25  O   UNL     1       4.316   3.471  17.168  0.00  0.00    +0.000 OA
BRANCH  24  26
ATOM     26  O   UNL     1       6.044   3.943  18.528  0.00  0.00    +0.000 OA
ATOM     27  H   UNL     1       5.940   4.379  19.397  0.00  0.00    +0.000 HD
ENDBRANCH  24  26
ENDBRANCH  23  24
ENDBRANCH  18  23
ENDBRANCH  13  15
BRANCH   1  28
ATOM     28  O   UNL     1      -2.707  11.486  17.481  0.00  0.00    +0.000 OA
BRANCH  28  30
ATOM     29  C   UNL     1      -2.912  10.070  15.575  0.00  0.00    +0.000 C 
ATOM     30  C   UNL     1      -3.470  10.416  16.944  0.00  0.00    +0.000 C 
ENDBRANCH  28  30
ENDBRANCH   1  28
BRANCH   4  31
ATOM     31  O   UNL     1      -0.523  11.415  22.627  0.00  0.00    +0.000 OA
BRANCH  31  32
ATOM     32  C   UNL     1      -0.944  10.335  23.465  0.00  0.00    +0.000 C 
ATOM     33  C   UNL     1       0.177   9.339  23.688  0.00  0.00    +0.000 C 
ENDBRANCH  31  32
ENDBRANCH   4  31
TORSDOF 9
ENDMDL
MODEL 8
REMARK VINA RESULT:      -6.4      7.660     11.600
REMARK  Name = 
REMARK  12 active torsions:
REMARK  status: ('A' for Active; 'I' for Inactive)
REMARK    1  A    between atoms: C_1  and  C_2
REMARK    2  A    between atoms: C_2  and  O_3
REMARK    3  A    between atoms: O_3  and  C_4
REMARK    4  A    between atoms: C_7  and  O_8
REMARK    5  A    between atoms: O_8  and  C_9
REMARK    6  A    between atoms: C_9  and  C_10
REMARK    7  A    between atoms: N_19  and  C_20
REMARK    8  A    between atoms: C_23  and  C_24
REMARK    9  A    between atoms: C_24  and  C_25
REMARK   10  A    between atoms: C_25  and  O_27
REMARK   11  A    between atoms: C_29  and  O_30
REMARK   12  A    between atoms: O_30  and  C_31
REMARK                            x       y       z     vdW  Elec       q    Type
REMARK                         _______ _______ _______ _____ _____    ______ ____
ROOT
ATOM      1  C   UNL     1       9.811  11.997  19.705  0.00  0.00    +0.000 A 
ATOM      2  C   UNL     1       9.203  12.545  20.836  0.00  0.00    +0.000 A 
ATOM      3  C   UNL     1       9.468  13.885  21.176  0.00  0.00    +0.000 A 
ATOM      4  C   UNL     1      10.192  14.751  20.349  0.00  0.00    +0.000 A 
ATOM      5  C   UNL     1      10.823  14.206  19.206  0.00  0.00    +0.000 A 
ATOM      6  C   UNL     1      11.659  14.999  18.376  0.00  0.00    +0.000 A 
ATOM      7  C   UNL     1      12.333  14.474  17.276  0.00  0.00    +0.000 A 
ATOM      8  C   UNL     1      12.165  13.137  16.951  0.00  0.00    +0.000 A 
ATOM      9  C   UNL     1      11.328  12.334  17.733  0.00  0.00    +0.000 A 
ATOM     10  C   UNL     1      10.646  12.826  18.879  0.00  0.00    +0.000 A 
ATOM     11  C   UNL     1       8.921  14.093  22.527  0.00  0.00    +0.000 C 
ATOM     12  O   UNL     1       9.293  14.939  23.321  0.00  0.00    +0.000 OA
ATOM     13  N   UNL     1       7.978  13.099  22.766  0.00  0.00    +0.000 N 
ATOM     14  C   UNL     1       8.305  11.967  21.908  0.00  0.00    +0.000 C 
ENDROOT
BRANCH  13  15
ATOM     15  C   UNL     1       7.372  12.955  24.046  0.00  0.00    +0.000 A 
ATOM     16  C   UNL     1       8.090  12.314  25.072  0.00  0.00    +0.000 A 
ATOM     17  C   UNL     1       7.521  12.074  26.338  0.00  0.00    +0.000 A 
ATOM     18  C   UNL     1       6.220  12.490  26.628  0.00  0.00    +0.000 A 
ATOM     19  C   UNL     1       5.545  13.224  25.649  0.00  0.00    +0.000 A 
ATOM     20  C   UNL     1       6.090  13.452  24.362  0.00  0.00    +0.000 A 
BRANCH  20  21
ATOM     21  O   UNL     1       5.185  14.136  23.600  0.00  0.00    +0.000 OA
ATOM     22  C   UNL     1       4.855  15.479  23.880  0.00  0.00    +0.000 C 
ENDBRANCH  20  21
BRANCH  18  23
ATOM     23  C   UNL     1       5.541  12.136  27.941  0.00  0.00    +0.000 C 
BRANCH  23  24
ATOM     24  C   UNL     1       4.036  11.954  27.871  0.00  0.00    +0.000 C 
ATOM     25  O   UNL     1       3.502  10.890  27.585  0.00  0.00    +0.000 OA
BRANCH  24  26
ATOM     26  O   UNL     1       3.302  13.036  28.229  0.00  0.00    +0.000 OA
ATOM     27  H   UNL     1       3.594  13.448  29.067  0.00  0.00    +0.000 HD
ENDBRANCH  24  26
ENDBRANCH  23  24
ENDBRANCH  18  23
ENDBRANCH  13  15
BRANCH   1  28
ATOM     28  O   UNL     1       9.767  10.683  19.309  0.00  0.00    +0.000 OA
BRANCH  28  30
ATOM     29  C   UNL     1       8.570   8.771  18.542  0.00  0.00    +0.000 C 
ATOM     30  C   UNL     1       8.808  10.258  18.352  0.00  0.00    +0.000 C 
ENDBRANCH  28  30
ENDBRANCH   1  28
BRANCH   4  31
ATOM     31  O   UNL     1      10.365  16.104  20.539  0.00  0.00    +0.000 OA
BRANCH  31  32
ATOM     32  C   UNL     1      11.502  16.506  21.309  0.00  0.00    +0.000 C 
ATOM     33  C   UNL     1      11.169  17.678  22.212  0.00  0.00    +0.000 C 
ENDBRANCH  31  32
ENDBRANCH   4  31
TORSDOF 9
ENDMDL
MODEL 9
REMARK VINA RESULT:      -6.4      2.119      4.437
REMARK  Name = 
REMARK  12 active torsions:
REMARK  status: ('A' for Active; 'I' for Inactive)
REMARK    1  A    between atoms: C_1  and  C_2
REMARK    2  A    between atoms: C_2  and  O_3
REMARK    3  A    between atoms: O_3  and  C_4
REMARK    4  A    between atoms: C_7  and  O_8
REMARK    5  A    between atoms: O_8  and  C_9
REMARK    6  A    between atoms: C_9  and  C_10
REMARK    7  A    between atoms: N_19  and  C_20
REMARK    8  A    between atoms: C_23  and  C_24
REMARK    9  A    between atoms: C_24  and  C_25
REMARK   10  A    between atoms: C_25  and  O_27
REMARK   11  A    between atoms: C_29  and  O_30
REMARK   12  A    between atoms: O_30  and  C_31
REMARK                            x       y       z     vdW  Elec       q    Type
REMARK                         _______ _______ _______ _____ _____    ______ ____
ROOT
ATOM      1  C   UNL     1       0.050  11.694  21.840  0.00  0.00    +0.000 A 
ATOM      2  C   UNL     1       0.640  10.679  21.085  0.00  0.00    +0.000 A 
ATOM      3  C   UNL     1       1.010  10.941  19.753  0.00  0.00    +0.000 A 
ATOM      4  C   UNL     1       0.960  12.220  19.188  0.00  0.00    +0.000 A 
ATOM      5  C   UNL     1       0.355  13.256  19.937  0.00  0.00    +0.000 A 
ATOM      6  C   UNL     1       0.175  14.553  19.391  0.00  0.00    +0.000 A 
ATOM      7  C   UNL     1      -0.466  15.574  20.088  0.00  0.00    +0.000 A 
ATOM      8  C   UNL     1      -0.921  15.337  21.375  0.00  0.00    +0.000 A 
ATOM      9  C   UNL     1      -0.737  14.077  21.953  0.00  0.00    +0.000 A 
ATOM     10  C   UNL     1      -0.113  13.001  21.263  0.00  0.00    +0.000 A 
ATOM     11  C   UNL     1       1.343   9.642  19.145  0.00  0.00    +0.000 C 
ATOM     12  O   UNL     1       1.302   9.384  17.955  0.00  0.00    +0.000 OA
ATOM     13  N   UNL     1       1.620   8.746  20.172  0.00  0.00    +0.000 N 
ATOM     14  C   UNL     1       0.935   9.222  21.368  0.00  0.00    +0.000 C 
ENDROOT
BRANCH  13  15
ATOM     15  C   UNL     1       1.843   7.366  19.901  0.00  0.00    +0.000 A 
ATOM     16  C   UNL     1       1.152   6.402  20.658  0.00  0.00    +0.000 A 
ATOM     17  C   UNL     1       1.383   5.022  20.491  0.00  0.00    +0.000 A 
ATOM     18  C   UNL     1       2.296   4.559  19.542  0.00  0.00    +0.000 A 
ATOM     19  C   UNL     1       2.901   5.509  18.713  0.00  0.00    +0.000 A 
ATOM     20  C   UNL     1       2.702   6.901  18.884  0.00  0.00    +0.000 A 
BRANCH  20  21
ATOM     21  O   UNL     1       3.468   7.582  17.980  0.00  0.00    +0.000 OA
ATOM     22  C   UNL     1       4.424   6.920  17.181  0.00  0.00    +0.000 C 
ENDBRANCH  20  21
BRANCH  18  23
ATOM     23  C   UNL     1       2.651   3.086  19.426  0.00  0.00    +0.000 C 
BRANCH  23  24
ATOM     24  C   UNL     1       3.647   2.572  20.450  0.00  0.00    +0.000 C 
ATOM     25  O   UNL     1       4.829   2.377  20.196  0.00  0.00    +0.000 OA
BRANCH  24  26
ATOM     26  O   UNL     1       3.162   2.416  21.705  0.00  0.00    +0.000 OA
ATOM     27  H   UNL     1       2.430   3.027  21.922  0.00  0.00    +0.000 HD
ENDBRANCH  24  26
ENDBRANCH  23  24
ENDBRANCH  18  23
ENDBRANCH  13  15
BRANCH   1  28
ATOM     28  O   UNL     1      -0.488  11.571  23.098  0.00  0.00    +0.000 OA
BRANCH  28  30
ATOM     29  C   UNL     1      -2.814  11.918  23.485  0.00  0.00    +0.000 C 
ATOM     30  C   UNL     1      -1.718  10.887  23.283  0.00  0.00    +0.000 C 
ENDBRANCH  28  30
ENDBRANCH   1  28
BRANCH   4  31
ATOM     31  O   UNL     1       1.443  12.582  17.949  0.00  0.00    +0.000 OA
BRANCH  31  32
ATOM     32  C   UNL     1       2.865  12.609  17.795  0.00  0.00    +0.000 C 
ATOM     33  C   UNL     1       3.433  13.968  18.157  0.00  0.00    +0.000 C 
ENDBRANCH  31  32
ENDBRANCH   4  31
TORSDOF 9
ENDMDL
