MODEL 1
REMARK VINA RESULT:      -7.8      0.000      0.000
REMARK  Name = 
REMARK  14 active torsions:
REMARK  status: ('A' for Active; 'I' for Inactive)
REMARK    1  A    between atoms: C_1  and  C_2
REMARK    2  A    between atoms: C_2  and  C_3
REMARK    3  A    between atoms: C_3  and  C_4
REMARK    4  A    between atoms: C_4  and  N_5
REMARK    5  A    between atoms: N_5  and  C_22
REMARK    6  A    between atoms: C_6  and  C_8
REMARK    7  A    between atoms: C_11  and  C_12
REMARK    8  A    between atoms: C_15  and  C_16
REMARK    9  A    between atoms: C_16  and  C_17
REMARK   10  A    between atoms: C_16  and  C_18
REMARK   11  A    between atoms: C_23  and  N_24
REMARK   12  A    between atoms: N_25  and  C_26
REMARK   13  A    between atoms: C_26  and  C_27
REMARK   14  A    between atoms: C_27  and  C_28
REMARK                            x       y       z     vdW  Elec       q    Type
REMARK                         _______ _______ _______ _____ _____    ______ ____
ROOT
ATOM      1  N   UNL     1       5.607   4.964  15.665  0.00  0.00    +0.000 N 
ATOM      2  C   UNL     1       6.883   5.580  15.712  0.00  0.00    +0.000 C 
ATOM      3  O   UNL     1       7.655   5.497  14.751  0.00  0.00    +0.000 OA
ENDROOT
BRANCH   1   4
ATOM      4  C   UNL     1       4.679   5.073  16.707  0.00  0.00    +0.000 A 
ATOM      5  C   UNL     1       4.223   4.009  17.414  0.00  0.00    +0.000 A 
ATOM      6  N   UNL     1       3.197   4.191  18.344  0.00  0.00    +0.000 N 
ATOM      7  C   UNL     1       2.715   5.449  18.683  0.00  0.00    +0.000 A 
ATOM      8  O   UNL     1       1.804   5.649  19.491  0.00  0.00    +0.000 OA
ATOM      9  N   UNL     1       3.277   6.509  18.050  0.00  0.00    +0.000 N 
ATOM     10  C   UNL     1       4.066   6.417  16.949  0.00  0.00    +0.000 A 
ATOM     11  O   UNL     1       4.218   7.363  16.179  0.00  0.00    +0.000 OA
ATOM     12  H   UNL     1       2.862   7.407  18.236  0.00  0.00    +0.000 HD
BRANCH   5  13
ATOM     13  N   UNL     1       4.771   2.745  17.224  0.00  0.00    +0.000 N 
ATOM     14  H   UNL     1       5.786   2.739  17.213  0.00  0.00    +0.000 HD
ATOM     15  H   UNL     1       4.377   2.236  16.442  0.00  0.00    +0.000 HD
ENDBRANCH   5  13
BRANCH   6  16
ATOM     16  C   UNL     1       2.609   3.046  19.043  0.00  0.00    +0.000 C 
BRANCH  16  17
ATOM     17  C   UNL     1       3.216   2.771  20.422  0.00  0.00    +0.000 C 
ATOM     18  C   UNL     1       2.180   2.759  21.533  0.00  0.00    +0.000 C 
ENDBRANCH  16  17
ENDBRANCH   6  16
ENDBRANCH   1   4
BRANCH   2  19
ATOM     19  C   UNL     1       7.309   6.325  16.928  0.00  0.00    +0.000 A 
ATOM     20  C   UNL     1       7.677   5.682  18.099  0.00  0.00    +0.000 A 
ATOM     21  S   UNL     1       8.291   6.803  19.240  0.00  0.00    +0.000 S 
ATOM     22  C   UNL     1       8.029   8.084  18.123  0.00  0.00    +0.000 A 
ATOM     23  N   UNL     1       7.410   7.719  17.015  0.00  0.00    +0.000 NA
BRANCH  22  24
ATOM     24  C   UNL     1       8.501   9.460  18.385  0.00  0.00    +0.000 A 
ATOM     25  C   UNL     1       9.440   9.764  19.381  0.00  0.00    +0.000 A 
ATOM     26  C   UNL     1       9.980  11.055  19.500  0.00  0.00    +0.000 A 
ATOM     27  C   UNL     1       9.594  12.083  18.628  0.00  0.00    +0.000 A 
ATOM     28  C   UNL     1       8.617  11.794  17.667  0.00  0.00    +0.000 A 
ATOM     29  C   UNL     1       8.086  10.501  17.544  0.00  0.00    +0.000 A 
BRANCH  27  30
ATOM     30  C   UNL     1      10.256  13.450  18.717  0.00  0.00    +0.000 C 
ATOM     31  C   UNL     1      10.892  13.861  17.383  0.00  0.00    +0.000 C 
ATOM     32  C   UNL     1       9.288  14.533  19.199  0.00  0.00    +0.000 C 
ENDBRANCH  27  30
ENDBRANCH  22  24
ENDBRANCH   2  19
BRANCH   1  33
ATOM     33  C   UNL     1       5.158   4.377  14.372  0.00  0.00    +0.000 C 
BRANCH  33  34
ATOM     34  C   UNL     1       6.234   3.550  13.643  0.00  0.00    +0.000 C 
BRANCH  34  36
ATOM     35  C   UNL     1       4.442   3.554  11.904  0.00  0.00    +0.000 C 
ATOM     36  C   UNL     1       5.901   3.205  12.191  0.00  0.00    +0.000 C 
ENDBRANCH  34  36
ENDBRANCH  33  34
ENDBRANCH   1  33
TORSDOF 10
ENDMDL
MODEL 2
REMARK VINA RESULT:      -7.8      4.316      7.325
REMARK  Name = 
REMARK  14 active torsions:
REMARK  status: ('A' for Active; 'I' for Inactive)
REMARK    1  A    between atoms: C_1  and  C_2
REMARK    2  A    between atoms: C_2  and  C_3
REMARK    3  A    between atoms: C_3  and  C_4
REMARK    4  A    between atoms: C_4  and  N_5
REMARK    5  A    between atoms: N_5  and  C_22
REMARK    6  A    between atoms: C_6  and  C_8
REMARK    7  A    between atoms: C_11  and  C_12
REMARK    8  A    between atoms: C_15  and  C_16
REMARK    9  A    between atoms: C_16  and  C_17
REMARK   10  A    between atoms: C_16  and  C_18
REMARK   11  A    between atoms: C_23  and  N_24
REMARK   12  A    between atoms: N_25  and  C_26
REMARK   13  A    between atoms: C_26  and  C_27
REMARK   14  A    between atoms: C_27  and  C_28
REMARK                            x       y       z     vdW  Elec       q    Type
REMARK                         _______ _______ _______ _____ _____    ______ ____
ROOT
ATOM      1  N   UNL     1       3.984   4.033  19.237  0.00  0.00    +0.000 N 
ATOM      2  C   UNL     1       2.893   4.674  19.877  0.00  0.00    +0.000 C 
ATOM      3  O   UNL     1       2.169   4.047  20.658  0.00  0.00    +0.000 OA
ENDROOT
BRANCH   1   4
ATOM      4  C   UNL     1       4.863   4.712  18.385  0.00  0.00    +0.000 A 
ATOM      5  C   UNL     1       4.754   4.696  17.033  0.00  0.00    +0.000 A 
ATOM      6  N   UNL     1       5.751   5.288  16.256  0.00  0.00    +0.000 N 
ATOM      7  C   UNL     1       6.789   6.025  16.813  0.00  0.00    +0.000 A 
ATOM      8  O   UNL     1       7.694   6.553  16.161  0.00  0.00    +0.000 OA
ATOM      9  N   UNL     1       6.805   6.131  18.166  0.00  0.00    +0.000 N 
ATOM     10  C   UNL     1       6.056   5.371  19.005  0.00  0.00    +0.000 A 
ATOM     11  O   UNL     1       6.372   5.199  20.180  0.00  0.00    +0.000 OA
ATOM     12  H   UNL     1       7.607   6.590  18.565  0.00  0.00    +0.000 HD
BRANCH   5  13
ATOM     13  N   UNL     1       3.657   4.100  16.419  0.00  0.00    +0.000 N 
ATOM     14  H   UNL     1       3.755   4.006  15.414  0.00  0.00    +0.000 HD
ATOM     15  H   UNL     1       2.766   4.504  16.682  0.00  0.00    +0.000 HD
ENDBRANCH   5  13
BRANCH   6  16
ATOM     16  C   UNL     1       5.718   5.191  14.795  0.00  0.00    +0.000 C 
BRANCH  16  17
ATOM     17  C   UNL     1       6.334   3.906  14.236  0.00  0.00    +0.000 C 
ATOM     18  C   UNL     1       5.955   3.648  12.787  0.00  0.00    +0.000 C 
ENDBRANCH  16  17
ENDBRANCH   6  16
ENDBRANCH   1   4
BRANCH   2  19
ATOM     19  C   UNL     1       2.605   6.107  19.604  0.00  0.00    +0.000 A 
ATOM     20  C   UNL     1       2.823   6.684  18.363  0.00  0.00    +0.000 A 
ATOM     21  S   UNL     1       2.216   8.285  18.321  0.00  0.00    +0.000 S 
ATOM     22  C   UNL     1       1.702   8.134  19.955  0.00  0.00    +0.000 A 
ATOM     23  N   UNL     1       2.068   7.005  20.535  0.00  0.00    +0.000 NA
BRANCH  22  24
ATOM     24  C   UNL     1       0.889   9.173  20.620  0.00  0.00    +0.000 A 
ATOM     25  C   UNL     1       0.155   8.931  21.790  0.00  0.00    +0.000 A 
ATOM     26  C   UNL     1      -0.481   9.977  22.479  0.00  0.00    +0.000 A 
ATOM     27  C   UNL     1      -0.405  11.298  22.015  0.00  0.00    +0.000 A 
ATOM     28  C   UNL     1       0.283  11.533  20.818  0.00  0.00    +0.000 A 
ATOM     29  C   UNL     1       0.925  10.488  20.137  0.00  0.00    +0.000 A 
BRANCH  27  30
ATOM     30  C   UNL     1      -1.025  12.428  22.823  0.00  0.00    +0.000 C 
ATOM     31  C   UNL     1      -0.899  13.776  22.103  0.00  0.00    +0.000 C 
ATOM     32  C   UNL     1      -2.488  12.152  23.179  0.00  0.00    +0.000 C 
ENDBRANCH  27  30
ENDBRANCH  22  24
ENDBRANCH   2  19
BRANCH   1  33
ATOM     33  C   UNL     1       4.338   2.651  19.667  0.00  0.00    +0.000 C 
BRANCH  33  34
ATOM     34  C   UNL     1       3.740   1.540  18.784  0.00  0.00    +0.000 C 
BRANCH  34  36
ATOM     35  C   UNL     1       1.248   1.680  18.791  0.00  0.00    +0.000 C 
ATOM     36  C   UNL     1       2.510   1.955  17.977  0.00  0.00    +0.000 C 
ENDBRANCH  34  36
ENDBRANCH  33  34
ENDBRANCH   1  33
TORSDOF 10
ENDMDL
MODEL 3
REMARK VINA RESULT:      -7.7      4.339      7.464
REMARK  Name = 
REMARK  14 active torsions:
REMARK  status: ('A' for Active; 'I' for Inactive)
REMARK    1  A    between atoms: C_1  and  C_2
REMARK    2  A    between atoms: C_2  and  C_3
REMARK    3  A    between atoms: C_3  and  C_4
REMARK    4  A    between atoms: C_4  and  N_5
REMARK    5  A    between atoms: N_5  and  C_22
REMARK    6  A    between atoms: C_6  and  C_8
REMARK    7  A    between atoms: C_11  and  C_12
REMARK    8  A    between atoms: C_15  and  C_16
REMARK    9  A    between atoms: C_16  and  C_17
REMARK   10  A    between atoms: C_16  and  C_18
REMARK   11  A    between atoms: C_23  and  N_24
REMARK   12  A    between atoms: N_25  and  C_26
REMARK   13  A    between atoms: C_26  and  C_27
REMARK   14  A    between atoms: C_27  and  C_28
REMARK                            x       y       z     vdW  Elec       q    Type
REMARK                         _______ _______ _______ _____ _____    ______ ____
ROOT
ATOM      1  N   UNL     1       3.926   4.182  19.323  0.00  0.00    +0.000 N 
ATOM      2  C   UNL     1       2.883   4.905  19.957  0.00  0.00    +0.000 C 
ATOM      3  O   UNL     1       2.177   4.364  20.814  0.00  0.00    +0.000 OA
ENDROOT
BRANCH   1   4
ATOM      4  C   UNL     1       4.784   4.766  18.384  0.00  0.00    +0.000 A 
ATOM      5  C   UNL     1       4.609   4.655  17.043  0.00  0.00    +0.000 A 
ATOM      6  N   UNL     1       5.587   5.154  16.180  0.00  0.00    +0.000 N 
ATOM      7  C   UNL     1       6.675   5.890  16.633  0.00  0.00    +0.000 A 
ATOM      8  O   UNL     1       7.564   6.336  15.903  0.00  0.00    +0.000 OA
ATOM      9  N   UNL     1       6.759   6.094  17.972  0.00  0.00    +0.000 N 
ATOM     10  C   UNL     1       6.027   5.424  18.898  0.00  0.00    +0.000 A 
ATOM     11  O   UNL     1       6.394   5.326  20.067  0.00  0.00    +0.000 OA
ATOM     12  H   UNL     1       7.594   6.551  18.298  0.00  0.00    +0.000 HD
BRANCH   5  13
ATOM     13  N   UNL     1       3.465   4.057  16.526  0.00  0.00    +0.000 N 
ATOM     14  H   UNL     1       3.076   4.546  15.726  0.00  0.00    +0.000 HD
ATOM     15  H   UNL     1       2.762   3.839  17.221  0.00  0.00    +0.000 HD
ENDBRANCH   5  13
BRANCH   6  16
ATOM     16  C   UNL     1       5.480   4.952  14.732  0.00  0.00    +0.000 C 
BRANCH  16  17
ATOM     17  C   UNL     1       6.212   3.711  14.215  0.00  0.00    +0.000 C 
ATOM     18  C   UNL     1       6.268   3.646  12.698  0.00  0.00    +0.000 C 
ENDBRANCH  16  17
ENDBRANCH   6  16
ENDBRANCH   1   4
BRANCH   2  19
ATOM     19  C   UNL     1       2.624   6.322  19.585  0.00  0.00    +0.000 A 
ATOM     20  C   UNL     1       2.883   6.815  18.316  0.00  0.00    +0.000 A 
ATOM     21  S   UNL     1       2.303   8.418  18.156  0.00  0.00    +0.000 S 
ATOM     22  C   UNL     1       1.744   8.379  19.782  0.00  0.00    +0.000 A 
ATOM     23  N   UNL     1       2.076   7.284  20.442  0.00  0.00    +0.000 NA
BRANCH  22  24
ATOM     24  C   UNL     1       0.929   9.470  20.356  0.00  0.00    +0.000 A 
ATOM     25  C   UNL     1       0.278  10.429  19.566  0.00  0.00    +0.000 A 
ATOM     26  C   UNL     1      -0.611  11.355  20.135  0.00  0.00    +0.000 A 
ATOM     27  C   UNL     1      -0.874  11.354  21.511  0.00  0.00    +0.000 A 
ATOM     28  C   UNL     1      -0.185  10.431  22.308  0.00  0.00    +0.000 A 
ATOM     29  C   UNL     1       0.696   9.501  21.737  0.00  0.00    +0.000 A 
BRANCH  27  30
ATOM     30  C   UNL     1      -1.906  12.307  22.094  0.00  0.00    +0.000 C 
ATOM     31  C   UNL     1      -1.275  13.291  23.087  0.00  0.00    +0.000 C 
ATOM     32  C   UNL     1      -2.671  13.068  21.008  0.00  0.00    +0.000 C 
ENDBRANCH  27  30
ENDBRANCH  22  24
ENDBRANCH   2  19
BRANCH   1  33
ATOM     33  C   UNL     1       4.258   2.827  19.844  0.00  0.00    +0.000 C 
BRANCH  33  34
ATOM     34  C   UNL     1       3.606   1.670  19.064  0.00  0.00    +0.000 C 
BRANCH  34  36
ATOM     35  C   UNL     1       1.227   2.103  18.444  0.00  0.00    +0.000 C 
ATOM     36  C   UNL     1       2.149   1.391  19.432  0.00  0.00    +0.000 C 
ENDBRANCH  34  36
ENDBRANCH  33  34
ENDBRANCH   1  33
TORSDOF 10
ENDMDL
MODEL 4
REMARK VINA RESULT:      -7.7      7.363     10.630
REMARK  Name = 
REMARK  14 active torsions:
REMARK  status: ('A' for Active; 'I' for Inactive)
REMARK    1  A    between atoms: C_1  and  C_2
REMARK    2  A    between atoms: C_2  and  C_3
REMARK    3  A    between atoms: C_3  and  C_4
REMARK    4  A    between atoms: C_4  and  N_5
REMARK    5  A    between atoms: N_5  and  C_22
REMARK    6  A    between atoms: C_6  and  C_8
REMARK    7  A    between atoms: C_11  and  C_12
REMARK    8  A    between atoms: C_15  and  C_16
REMARK    9  A    between atoms: C_16  and  C_17
REMARK   10  A    between atoms: C_16  and  C_18
REMARK   11  A    between atoms: C_23  and  N_24
REMARK   12  A    between atoms: N_25  and  C_26
REMARK   13  A    between atoms: C_26  and  C_27
REMARK   14  A    between atoms: C_27  and  C_28
REMARK                            x       y       z     vdW  Elec       q    Type
REMARK                         _______ _______ _______ _____ _____    ______ ____
ROOT
ATOM      1  N   UNL     1      -0.861  13.712  20.492  0.00  0.00    +0.000 N 
ATOM      2  C   UNL     1      -0.177  13.070  21.555  0.00  0.00    +0.000 C 
ATOM      3  O   UNL     1       0.275  13.728  22.498  0.00  0.00    +0.000 OA
ENDROOT
BRANCH   1   4
ATOM      4  C   UNL     1      -1.435  13.005  19.429  0.00  0.00    +0.000 A 
ATOM      5  C   UNL     1      -2.662  12.430  19.492  0.00  0.00    +0.000 A 
ATOM      6  N   UNL     1      -3.100  11.629  18.435  0.00  0.00    +0.000 N 
ATOM      7  C   UNL     1      -2.388  11.508  17.249  0.00  0.00    +0.000 A 
ATOM      8  O   UNL     1      -2.736  10.802  16.299  0.00  0.00    +0.000 OA
ATOM      9  N   UNL     1      -1.221  12.195  17.164  0.00  0.00    +0.000 N 
ATOM     10  C   UNL     1      -0.585  12.762  18.221  0.00  0.00    +0.000 A 
ATOM     11  O   UNL     1       0.619  13.008  18.197  0.00  0.00    +0.000 OA
ATOM     12  H   UNL     1      -0.669  12.031  16.338  0.00  0.00    +0.000 HD
BRANCH   5  13
ATOM     13  N   UNL     1      -3.485  12.637  20.594  0.00  0.00    +0.000 N 
ATOM     14  H   UNL     1      -4.219  13.319  20.432  0.00  0.00    +0.000 HD
ATOM     15  H   UNL     1      -2.984  12.810  21.457  0.00  0.00    +0.000 HD
ENDBRANCH   5  13
BRANCH   6  16
ATOM     16  C   UNL     1      -4.373  10.907  18.521  0.00  0.00    +0.000 C 
BRANCH  16  17
ATOM     17  C   UNL     1      -5.566  11.664  17.931  0.00  0.00    +0.000 C 
ATOM     18  C   UNL     1      -6.899  11.188  18.482  0.00  0.00    +0.000 C 
ENDBRANCH  16  17
ENDBRANCH   6  16
ENDBRANCH   1   4
BRANCH   2  19
ATOM     19  C   UNL     1       0.012  11.594  21.539  0.00  0.00    +0.000 A 
ATOM     20  C   UNL     1      -0.789  10.736  22.276  0.00  0.00    +0.000 A 
ATOM     21  S   UNL     1      -0.442   9.103  21.894  0.00  0.00    +0.000 S 
ATOM     22  C   UNL     1       0.759   9.618  20.776  0.00  0.00    +0.000 A 
ATOM     23  N   UNL     1       0.974  10.921  20.775  0.00  0.00    +0.000 NA
BRANCH  22  24
ATOM     24  C   UNL     1       1.449   8.670  19.876  0.00  0.00    +0.000 A 
ATOM     25  C   UNL     1       1.859   9.016  18.580  0.00  0.00    +0.000 A 
ATOM     26  C   UNL     1       2.647   8.143  17.811  0.00  0.00    +0.000 A 
ATOM     27  C   UNL     1       3.045   6.897  18.314  0.00  0.00    +0.000 A 
ATOM     28  C   UNL     1       2.592   6.530  19.587  0.00  0.00    +0.000 A 
ATOM     29  C   UNL     1       1.813   7.406  20.357  0.00  0.00    +0.000 A 
BRANCH  27  30
ATOM     30  C   UNL     1       3.971   6.005  17.501  0.00  0.00    +0.000 C 
ATOM     31  C   UNL     1       4.704   6.793  16.408  0.00  0.00    +0.000 C 
ATOM     32  C   UNL     1       4.976   5.257  18.379  0.00  0.00    +0.000 C 
ENDBRANCH  27  30
ENDBRANCH  22  24
ENDBRANCH   2  19
BRANCH   1  33
ATOM     33  C   UNL     1      -1.174  15.161  20.633  0.00  0.00    +0.000 C 
BRANCH  33  34
ATOM     34  C   UNL     1      -0.494  16.062  19.585  0.00  0.00    +0.000 C 
BRANCH  34  36
ATOM     35  C   UNL     1       1.462  16.725  20.987  0.00  0.00    +0.000 C 
ATOM     36  C   UNL     1       1.033  16.096  19.664  0.00  0.00    +0.000 C 
ENDBRANCH  34  36
ENDBRANCH  33  34
ENDBRANCH   1  33
TORSDOF 10
ENDMDL
MODEL 5
REMARK VINA RESULT:      -7.7      7.540     10.743
REMARK  Name = 
REMARK  14 active torsions:
REMARK  status: ('A' for Active; 'I' for Inactive)
REMARK    1  A    between atoms: C_1  and  C_2
REMARK    2  A    between atoms: C_2  and  C_3
REMARK    3  A    between atoms: C_3  and  C_4
REMARK    4  A    between atoms: C_4  and  N_5
REMARK    5  A    between atoms: N_5  and  C_22
REMARK    6  A    between atoms: C_6  and  C_8
REMARK    7  A    between atoms: C_11  and  C_12
REMARK    8  A    between atoms: C_15  and  C_16
REMARK    9  A    between atoms: C_16  and  C_17
REMARK   10  A    between atoms: C_16  and  C_18
REMARK   11  A    between atoms: C_23  and  N_24
REMARK   12  A    between atoms: N_25  and  C_26
REMARK   13  A    between atoms: C_26  and  C_27
REMARK   14  A    between atoms: C_27  and  C_28
REMARK                            x       y       z     vdW  Elec       q    Type
REMARK                         _______ _______ _______ _____ _____    ______ ____
ROOT
ATOM      1  N   UNL     1      -0.970  13.621  20.460  0.00  0.00    +0.000 N 
ATOM      2  C   UNL     1      -0.253  12.988  21.506  0.00  0.00    +0.000 C 
ATOM      3  O   UNL     1       0.226  13.654  22.430  0.00  0.00    +0.000 OA
ENDROOT
BRANCH   1   4
ATOM      4  C   UNL     1      -1.574  12.904  19.420  0.00  0.00    +0.000 A 
ATOM      5  C   UNL     1      -2.817  12.367  19.508  0.00  0.00    +0.000 A 
ATOM      6  N   UNL     1      -3.288  11.554  18.475  0.00  0.00    +0.000 N 
ATOM      7  C   UNL     1      -2.591  11.382  17.286  0.00  0.00    +0.000 A 
ATOM      8  O   UNL     1      -2.968  10.664  16.357  0.00  0.00    +0.000 OA
ATOM      9  N   UNL     1      -1.406  12.033  17.174  0.00  0.00    +0.000 N 
ATOM     10  C   UNL     1      -0.743  12.607  18.210  0.00  0.00    +0.000 A 
ATOM     11  O   UNL     1       0.467  12.818  18.170  0.00  0.00    +0.000 OA
ATOM     12  H   UNL     1      -0.867  11.833  16.347  0.00  0.00    +0.000 HD
BRANCH   5  13
ATOM     13  N   UNL     1      -3.623  12.625  20.611  0.00  0.00    +0.000 N 
ATOM     14  H   UNL     1      -3.934  11.788  21.093  0.00  0.00    +0.000 HD
ATOM     15  H   UNL     1      -4.385  13.266  20.427  0.00  0.00    +0.000 HD
ENDBRANCH   5  13
BRANCH   6  16
ATOM     16  C   UNL     1      -4.580  10.871  18.590  0.00  0.00    +0.000 C 
BRANCH  16  17
ATOM     17  C   UNL     1      -5.749  11.626  17.952  0.00  0.00    +0.000 C 
ATOM     18  C   UNL     1      -6.969  11.700  18.854  0.00  0.00    +0.000 C 
ENDBRANCH  16  17
ENDBRANCH   6  16
ENDBRANCH   1   4
BRANCH   2  19
ATOM     19  C   UNL     1      -0.062  11.512  21.495  0.00  0.00    +0.000 A 
ATOM     20  C   UNL     1      -0.901  10.651  22.183  0.00  0.00    +0.000 A 
ATOM     21  S   UNL     1      -0.531   9.019  21.816  0.00  0.00    +0.000 S 
ATOM     22  C   UNL     1       0.729   9.540  20.769  0.00  0.00    +0.000 A 
ATOM     23  N   UNL     1       0.942  10.843  20.784  0.00  0.00    +0.000 NA
BRANCH  22  24
ATOM     24  C   UNL     1       1.470   8.596  19.905  0.00  0.00    +0.000 A 
ATOM     25  C   UNL     1       1.903   8.929  18.613  0.00  0.00    +0.000 A 
ATOM     26  C   UNL     1       2.735   8.066  17.882  0.00  0.00    +0.000 A 
ATOM     27  C   UNL     1       3.157   6.842  18.420  0.00  0.00    +0.000 A 
ATOM     28  C   UNL     1       2.683   6.486  19.688  0.00  0.00    +0.000 A 
ATOM     29  C   UNL     1       1.859   7.353  20.421  0.00  0.00    +0.000 A 
BRANCH  27  30
ATOM     30  C   UNL     1       4.130   5.963  17.648  0.00  0.00    +0.000 C 
ATOM     31  C   UNL     1       3.487   4.634  17.231  0.00  0.00    +0.000 C 
ATOM     32  C   UNL     1       4.712   6.676  16.424  0.00  0.00    +0.000 C 
ENDBRANCH  27  30
ENDBRANCH  22  24
ENDBRANCH   2  19
BRANCH   1  33
ATOM     33  C   UNL     1      -1.282  15.070  20.598  0.00  0.00    +0.000 C 
BRANCH  33  34
ATOM     34  C   UNL     1      -0.405  15.994  19.732  0.00  0.00    +0.000 C 
BRANCH  34  36
ATOM     35  C   UNL     1      -0.421  17.561  17.788  0.00  0.00    +0.000 C 
ATOM     36  C   UNL     1      -1.156  17.144  19.060  0.00  0.00    +0.000 C 
ENDBRANCH  34  36
ENDBRANCH  33  34
ENDBRANCH   1  33
TORSDOF 10
ENDMDL
MODEL 6
REMARK VINA RESULT:      -7.6      0.875      1.197
REMARK  Name = 
REMARK  14 active torsions:
REMARK  status: ('A' for Active; 'I' for Inactive)
REMARK    1  A    between atoms: C_1  and  C_2
REMARK    2  A    between atoms: C_2  and  C_3
REMARK    3  A    between atoms: C_3  and  C_4
REMARK    4  A    between atoms: C_4  and  N_5
REMARK    5  A    between atoms: N_5  and  C_22
REMARK    6  A    between atoms: C_6  and  C_8
REMARK    7  A    between atoms: C_11  and  C_12
REMARK    8  A    between atoms: C_15  and  C_16
REMARK    9  A    between atoms: C_16  and  C_17
REMARK   10  A    between atoms: C_16  and  C_18
REMARK   11  A    between atoms: C_23  and  N_24
REMARK   12  A    between atoms: N_25  and  C_26
REMARK   13  A    between atoms: C_26  and  C_27
REMARK   14  A    between atoms: C_27  and  C_28
REMARK                            x       y       z     vdW  Elec       q    Type
REMARK                         _______ _______ _______ _____ _____    ______ ____
ROOT
ATOM      1  N   UNL     1       5.704   4.525  16.608  0.00  0.00    +0.000 N 
ATOM      2  C   UNL     1       7.017   5.058  16.565  0.00  0.00    +0.000 C 
ATOM      3  O   UNL     1       7.805   4.712  15.679  0.00  0.00    +0.000 OA
ENDROOT
BRANCH   1   4
ATOM      4  C   UNL     1       4.759   4.924  17.562  0.00  0.00    +0.000 A 
ATOM      5  C   UNL     1       4.333   4.123  18.570  0.00  0.00    +0.000 A 
ATOM      6  N   UNL     1       3.291   4.552  19.395  0.00  0.00    +0.000 N 
ATOM      7  C   UNL     1       2.760   5.833  19.317  0.00  0.00    +0.000 A 
ATOM      8  O   UNL     1       1.833   6.245  20.019  0.00  0.00    +0.000 OA
ATOM      9  N   UNL     1       3.292   6.659  18.380  0.00  0.00    +0.000 N 
ATOM     10  C   UNL     1       4.096   6.251  17.365  0.00  0.00    +0.000 A 
ATOM     11  O   UNL     1       4.224   6.910  16.335  0.00  0.00    +0.000 OA
ATOM     12  H   UNL     1       2.843   7.553  18.271  0.00  0.00    +0.000 HD
BRANCH   5  13
ATOM     13  N   UNL     1       4.929   2.885  18.791  0.00  0.00    +0.000 N 
ATOM     14  H   UNL     1       4.784   2.525  19.729  0.00  0.00    +0.000 HD
ATOM     15  H   UNL     1       5.899   2.837  18.507  0.00  0.00    +0.000 HD
ENDBRANCH   5  13
BRANCH   6  16
ATOM     16  C   UNL     1       2.735   3.666  20.421  0.00  0.00    +0.000 C 
BRANCH  16  17
ATOM     17  C   UNL     1       1.323   3.159  20.116  0.00  0.00    +0.000 C 
ATOM     18  C   UNL     1       1.289   2.147  18.983  0.00  0.00    +0.000 C 
ENDBRANCH  16  17
ENDBRANCH   6  16
ENDBRANCH   1   4
BRANCH   2  19
ATOM     19  C   UNL     1       7.462   6.032  17.598  0.00  0.00    +0.000 A 
ATOM     20  C   UNL     1       7.927   5.634  18.841  0.00  0.00    +0.000 A 
ATOM     21  S   UNL     1       8.535   6.973  19.720  0.00  0.00    +0.000 S 
ATOM     22  C   UNL     1       8.141   8.013  18.408  0.00  0.00    +0.000 A 
ATOM     23  N   UNL     1       7.487   7.422  17.425  0.00  0.00    +0.000 NA
BRANCH  22  24
ATOM     24  C   UNL     1       8.547   9.435  18.387  0.00  0.00    +0.000 A 
ATOM     25  C   UNL     1       9.641   9.923  19.116  0.00  0.00    +0.000 A 
ATOM     26  C   UNL     1      10.091  11.244  18.952  0.00  0.00    +0.000 A 
ATOM     27  C   UNL     1       9.457  12.117  18.058  0.00  0.00    +0.000 A 
ATOM     28  C   UNL     1       8.332  11.646  17.370  0.00  0.00    +0.000 A 
ATOM     29  C   UNL     1       7.890  10.324  17.528  0.00  0.00    +0.000 A 
BRANCH  27  30
ATOM     30  C   UNL     1      10.013  13.515  17.830  0.00  0.00    +0.000 C 
ATOM     31  C   UNL     1      10.485  14.159  19.140  0.00  0.00    +0.000 C 
ATOM     32  C   UNL     1      11.142  13.529  16.796  0.00  0.00    +0.000 C 
ENDBRANCH  27  30
ENDBRANCH  22  24
ENDBRANCH   2  19
BRANCH   1  33
ATOM     33  C   UNL     1       5.248   3.687  15.464  0.00  0.00    +0.000 C 
BRANCH  33  34
ATOM     34  C   UNL     1       5.287   4.401  14.100  0.00  0.00    +0.000 C 
BRANCH  34  36
ATOM     35  C   UNL     1       5.085   3.269  11.884  0.00  0.00    +0.000 C 
ATOM     36  C   UNL     1       6.047   3.651  13.007  0.00  0.00    +0.000 C 
ENDBRANCH  34  36
ENDBRANCH  33  34
ENDBRANCH   1  33
TORSDOF 10
ENDMDL
MODEL 7
REMARK VINA RESULT:      -7.6      7.789     11.047
REMARK  Name = 
REMARK  14 active torsions:
REMARK  status: ('A' for Active; 'I' for Inactive)
REMARK    1  A    between atoms: C_1  and  C_2
REMARK    2  A    between atoms: C_2  and  C_3
REMARK    3  A    between atoms: C_3  and  C_4
REMARK    4  A    between atoms: C_4  and  N_5
REMARK    5  A    between atoms: N_5  and  C_22
REMARK    6  A    between atoms: C_6  and  C_8
REMARK    7  A    between atoms: C_11  and  C_12
REMARK    8  A    between atoms: C_15  and  C_16
REMARK    9  A    between atoms: C_16  and  C_17
REMARK   10  A    between atoms: C_16  and  C_18
REMARK   11  A    between atoms: C_23  and  N_24
REMARK   12  A    between atoms: N_25  and  C_26
REMARK   13  A    between atoms: C_26  and  C_27
REMARK   14  A    between atoms: C_27  and  C_28
REMARK                            x       y       z     vdW  Elec       q    Type
REMARK                         _______ _______ _______ _____ _____    ______ ____
ROOT
ATOM      1  N   UNL     1      -0.817  13.920  20.640  0.00  0.00    +0.000 N 
ATOM      2  C   UNL     1      -0.160  13.288  21.727  0.00  0.00    +0.000 C 
ATOM      3  O   UNL     1       0.269  13.955  22.673  0.00  0.00    +0.000 OA
ENDROOT
BRANCH   1   4
ATOM      4  C   UNL     1      -1.366  13.202  19.571  0.00  0.00    +0.000 A 
ATOM      5  C   UNL     1      -2.550  12.545  19.643  0.00  0.00    +0.000 A 
ATOM      6  N   UNL     1      -2.957  11.743  18.575  0.00  0.00    +0.000 N 
ATOM      7  C   UNL     1      -2.264  11.699  17.371  0.00  0.00    +0.000 A 
ATOM      8  O   UNL     1      -2.585  10.996  16.410  0.00  0.00    +0.000 OA
ATOM      9  N   UNL     1      -1.148  12.466  17.281  0.00  0.00    +0.000 N 
ATOM     10  C   UNL     1      -0.528  13.048  18.340  0.00  0.00    +0.000 A 
ATOM     11  O   UNL     1       0.655  13.376  18.298  0.00  0.00    +0.000 OA
ATOM     12  H   UNL     1      -0.605  12.361  16.440  0.00  0.00    +0.000 HD
BRANCH   5  13
ATOM     13  N   UNL     1      -3.361  12.668  20.767  0.00  0.00    +0.000 N 
ATOM     14  H   UNL     1      -3.415  13.614  21.128  0.00  0.00    +0.000 HD
ATOM     15  H   UNL     1      -3.165  11.991  21.494  0.00  0.00    +0.000 HD
ENDBRANCH   5  13
BRANCH   6  16
ATOM     16  C   UNL     1      -4.176  10.935  18.667  0.00  0.00    +0.000 C 
BRANCH  16  17
ATOM     17  C   UNL     1      -5.449  11.665  18.232  0.00  0.00    +0.000 C 
ATOM     18  C   UNL     1      -6.706  10.836  18.434  0.00  0.00    +0.000 C 
ENDBRANCH  16  17
ENDBRANCH   6  16
ENDBRANCH   1   4
BRANCH   2  19
ATOM     19  C   UNL     1       0.027  11.812  21.729  0.00  0.00    +0.000 A 
ATOM     20  C   UNL     1      -0.703  10.974  22.557  0.00  0.00    +0.000 A 
ATOM     21  S   UNL     1      -0.391   9.331  22.187  0.00  0.00    +0.000 S 
ATOM     22  C   UNL     1       0.704   9.816  20.951  0.00  0.00    +0.000 A 
ATOM     23  N   UNL     1       0.916  11.119  20.898  0.00  0.00    +0.000 NA
BRANCH  22  24
ATOM     24  C   UNL     1       1.310   8.846  20.016  0.00  0.00    +0.000 A 
ATOM     25  C   UNL     1       1.614   9.163  18.684  0.00  0.00    +0.000 A 
ATOM     26  C   UNL     1       2.329   8.269  17.870  0.00  0.00    +0.000 A 
ATOM     27  C   UNL     1       2.758   7.029  18.363  0.00  0.00    +0.000 A 
ATOM     28  C   UNL     1       2.409   6.690  19.676  0.00  0.00    +0.000 A 
ATOM     29  C   UNL     1       1.703   7.587  20.490  0.00  0.00    +0.000 A 
BRANCH  27  30
ATOM     30  C   UNL     1       3.607   6.113  17.494  0.00  0.00    +0.000 C 
ATOM     31  C   UNL     1       4.919   6.786  17.071  0.00  0.00    +0.000 C 
ATOM     32  C   UNL     1       3.894   4.771  18.172  0.00  0.00    +0.000 C 
ENDBRANCH  27  30
ENDBRANCH  22  24
ENDBRANCH   2  19
BRANCH   1  33
ATOM     33  C   UNL     1      -1.132  15.371  20.758  0.00  0.00    +0.000 C 
BRANCH  33  34
ATOM     34  C   UNL     1      -2.459  15.676  21.480  0.00  0.00    +0.000 C 
BRANCH  34  36
ATOM     35  C   UNL     1      -1.040  17.254  22.794  0.00  0.00    +0.000 C 
ATOM     36  C   UNL     1      -2.308  16.404  22.815  0.00  0.00    +0.000 C 
ENDBRANCH  34  36
ENDBRANCH  33  34
ENDBRANCH   1  33
TORSDOF 10
ENDMDL
MODEL 8
REMARK VINA RESULT:      -7.5      0.853      1.352
REMARK  Name = 
REMARK  14 active torsions:
REMARK  status: ('A' for Active; 'I' for Inactive)
REMARK    1  A    between atoms: C_1  and  C_2
REMARK    2  A    between atoms: C_2  and  C_3
REMARK    3  A    between atoms: C_3  and  C_4
REMARK    4  A    between atoms: C_4  and  N_5
REMARK    5  A    between atoms: N_5  and  C_22
REMARK    6  A    between atoms: C_6  and  C_8
REMARK    7  A    between atoms: C_11  and  C_12
REMARK    8  A    between atoms: C_15  and  C_16
REMARK    9  A    between atoms: C_16  and  C_17
REMARK   10  A    between atoms: C_16  and  C_18
REMARK   11  A    between atoms: C_23  and  N_24
REMARK   12  A    between atoms: N_25  and  C_26
REMARK   13  A    between atoms: C_26  and  C_27
REMARK   14  A    between atoms: C_27  and  C_28
REMARK                            x       y       z     vdW  Elec       q    Type
REMARK                         _______ _______ _______ _____ _____    ______ ____
ROOT
ATOM      1  N   UNL     1       5.669   4.667  16.535  0.00  0.00    +0.000 N 
ATOM      2  C   UNL     1       6.964   5.237  16.452  0.00  0.00    +0.000 C 
ATOM      3  O   UNL     1       7.731   4.921  15.536  0.00  0.00    +0.000 OA
ENDROOT
BRANCH   1   4
ATOM      4  C   UNL     1       4.747   5.031  17.523  0.00  0.00    +0.000 A 
ATOM      5  C   UNL     1       4.362   4.203  18.526  0.00  0.00    +0.000 A 
ATOM      6  N   UNL     1       3.338   4.599  19.389  0.00  0.00    +0.000 N 
ATOM      7  C   UNL     1       2.786   5.873  19.354  0.00  0.00    +0.000 A 
ATOM      8  O   UNL     1       1.874   6.255  20.091  0.00  0.00    +0.000 OA
ATOM      9  N   UNL     1       3.278   6.725  18.420  0.00  0.00    +0.000 N 
ATOM     10  C   UNL     1       4.058   6.352  17.373  0.00  0.00    +0.000 A 
ATOM     11  O   UNL     1       4.146   7.033  16.354  0.00  0.00    +0.000 OA
ATOM     12  H   UNL     1       2.812   7.614  18.343  0.00  0.00    +0.000 HD
BRANCH   5  13
ATOM     13  N   UNL     1       4.983   2.971  18.704  0.00  0.00    +0.000 N 
ATOM     14  H   UNL     1       4.878   2.593  19.640  0.00  0.00    +0.000 HD
ATOM     15  H   UNL     1       5.943   2.941  18.383  0.00  0.00    +0.000 HD
ENDBRANCH   5  13
BRANCH   6  16
ATOM     16  C   UNL     1       2.826   3.683  20.412  0.00  0.00    +0.000 C 
BRANCH  16  17
ATOM     17  C   UNL     1       1.409   3.170  20.144  0.00  0.00    +0.000 C 
ATOM     18  C   UNL     1       1.333   2.236  18.949  0.00  0.00    +0.000 C 
ENDBRANCH  16  17
ENDBRANCH   6  16
ENDBRANCH   1   4
BRANCH   2  19
ATOM     19  C   UNL     1       7.416   6.216  17.478  0.00  0.00    +0.000 A 
ATOM     20  C   UNL     1       7.841   5.825  18.738  0.00  0.00    +0.000 A 
ATOM     21  S   UNL     1       8.471   7.160  19.607  0.00  0.00    +0.000 S 
ATOM     22  C   UNL     1       8.140   8.189  18.270  0.00  0.00    +0.000 A 
ATOM     23  N   UNL     1       7.490   7.600  17.282  0.00  0.00    +0.000 NA
BRANCH  22  24
ATOM     24  C   UNL     1       8.590   9.596  18.234  0.00  0.00    +0.000 A 
ATOM     25  C   UNL     1       7.939  10.583  17.479  0.00  0.00    +0.000 A 
ATOM     26  C   UNL     1       8.298  11.936  17.589  0.00  0.00    +0.000 A 
ATOM     27  C   UNL     1       9.322  12.344  18.455  0.00  0.00    +0.000 A 
ATOM     28  C   UNL     1      10.007  11.354  19.170  0.00  0.00    +0.000 A 
ATOM     29  C   UNL     1       9.641  10.003  19.066  0.00  0.00    +0.000 A 
BRANCH  27  30
ATOM     30  C   UNL     1       9.635  13.822  18.626  0.00  0.00    +0.000 C 
ATOM     31  C   UNL     1       8.572  14.709  17.964  0.00  0.00    +0.000 C 
ATOM     32  C   UNL     1       9.811  14.213  20.095  0.00  0.00    +0.000 C 
ENDBRANCH  27  30
ENDBRANCH  22  24
ENDBRANCH   2  19
BRANCH   1  33
ATOM     33  C   UNL     1       5.198   3.826  15.399  0.00  0.00    +0.000 C 
BRANCH  33  34
ATOM     34  C   UNL     1       5.311   4.501  14.020  0.00  0.00    +0.000 C 
BRANCH  34  36
ATOM     35  C   UNL     1       4.795   3.301  11.893  0.00  0.00    +0.000 C 
ATOM     36  C   UNL     1       5.884   3.611  12.917  0.00  0.00    +0.000 C 
ENDBRANCH  34  36
ENDBRANCH  33  34
ENDBRANCH   1  33
TORSDOF 10
ENDMDL
MODEL 9
REMARK VINA RESULT:      -7.5      7.730     11.040
REMARK  Name = 
REMARK  14 active torsions:
REMARK  status: ('A' for Active; 'I' for Inactive)
REMARK    1  A    between atoms: C_1  and  C_2
REMARK    2  A    between atoms: C_2  and  C_3
REMARK    3  A    between atoms: C_3  and  C_4
REMARK    4  A    between atoms: C_4  and  N_5
REMARK    5  A    between atoms: N_5  and  C_22
REMARK    6  A    between atoms: C_6  and  C_8
REMARK    7  A    between atoms: C_11  and  C_12
REMARK    8  A    between atoms: C_15  and  C_16
REMARK    9  A    between atoms: C_16  and  C_17
REMARK   10  A    between atoms: C_16  and  C_18
REMARK   11  A    between atoms: C_23  and  N_24
REMARK   12  A    between atoms: N_25  and  C_26
REMARK   13  A    between atoms: C_26  and  C_27
REMARK   14  A    between atoms: C_27  and  C_28
REMARK                            x       y       z     vdW  Elec       q    Type
REMARK                         _______ _______ _______ _____ _____    ______ ____
ROOT
ATOM      1  N   UNL     1      -0.667  14.042  20.513  0.00  0.00    +0.000 N 
ATOM      2  C   UNL     1       0.076  13.455  21.569  0.00  0.00    +0.000 C 
ATOM      3  O   UNL     1       0.671  14.164  22.387  0.00  0.00    +0.000 OA
ENDROOT
BRANCH   1   4
ATOM      4  C   UNL     1      -1.400  13.282  19.594  0.00  0.00    +0.000 A 
ATOM      5  C   UNL     1      -2.662  12.844  19.827  0.00  0.00    +0.000 A 
ATOM      6  N   UNL     1      -3.268  11.979  18.913  0.00  0.00    +0.000 N 
ATOM      7  C   UNL     1      -2.684  11.656  17.695  0.00  0.00    +0.000 A 
ATOM      8  O   UNL     1      -3.183  10.888  16.868  0.00  0.00    +0.000 OA
ATOM      9  N   UNL     1      -1.474  12.209  17.432  0.00  0.00    +0.000 N 
ATOM     10  C   UNL     1      -0.693  12.823  18.357  0.00  0.00    +0.000 A 
ATOM     11  O   UNL     1       0.521  12.944  18.204  0.00  0.00    +0.000 OA
ATOM     12  H   UNL     1      -1.019  11.900  16.588  0.00  0.00    +0.000 HD
BRANCH   5  13
ATOM     13  N   UNL     1      -3.356  13.253  20.961  0.00  0.00    +0.000 N 
ATOM     14  H   UNL     1      -3.495  14.257  21.013  0.00  0.00    +0.000 HD
ATOM     15  H   UNL     1      -2.996  12.871  21.826  0.00  0.00    +0.000 HD
ENDBRANCH   5  13
BRANCH   6  16
ATOM     16  C   UNL     1      -4.587  11.402  19.190  0.00  0.00    +0.000 C 
BRANCH  16  17
ATOM     17  C   UNL     1      -5.762  12.282  18.756  0.00  0.00    +0.000 C 
ATOM     18  C   UNL     1      -6.867  11.499  18.069  0.00  0.00    +0.000 C 
ENDBRANCH  16  17
ENDBRANCH   6  16
ENDBRANCH   1   4
BRANCH   2  19
ATOM     19  C   UNL     1       0.153  11.974  21.694  0.00  0.00    +0.000 A 
ATOM     20  C   UNL     1      -0.721  11.251  22.490  0.00  0.00    +0.000 A 
ATOM     21  S   UNL     1      -0.492   9.568  22.270  0.00  0.00    +0.000 S 
ATOM     22  C   UNL     1       0.761   9.885  21.136  0.00  0.00    +0.000 A 
ATOM     23  N   UNL     1       1.073  11.163  21.017  0.00  0.00    +0.000 NA
BRANCH  22  24
ATOM     24  C   UNL     1       1.391   8.809  20.343  0.00  0.00    +0.000 A 
ATOM     25  C   UNL     1       1.639   7.530  20.862  0.00  0.00    +0.000 A 
ATOM     26  C   UNL     1       2.096   6.488  20.038  0.00  0.00    +0.000 A 
ATOM     27  C   UNL     1       2.321   6.695  18.670  0.00  0.00    +0.000 A 
ATOM     28  C   UNL     1       2.123   7.985  18.162  0.00  0.00    +0.000 A 
ATOM     29  C   UNL     1       1.659   9.022  18.985  0.00  0.00    +0.000 A 
BRANCH  27  30
ATOM     30  C   UNL     1       2.730   5.532  17.778  0.00  0.00    +0.000 C 
ATOM     31  C   UNL     1       4.240   5.526  17.509  0.00  0.00    +0.000 C 
ATOM     32  C   UNL     1       2.287   4.181  18.346  0.00  0.00    +0.000 C 
ENDBRANCH  27  30
ENDBRANCH  22  24
ENDBRANCH   2  19
BRANCH   1  33
ATOM     33  C   UNL     1      -0.857  15.519  20.526  0.00  0.00    +0.000 C 
BRANCH  33  34
ATOM     34  C   UNL     1      -0.317  16.239  19.275  0.00  0.00    +0.000 C 
BRANCH  34  36
ATOM     35  C   UNL     1      -1.026  18.163  17.851  0.00  0.00    +0.000 C 
ATOM     36  C   UNL     1      -0.567  17.747  19.247  0.00  0.00    +0.000 C 
ENDBRANCH  34  36
ENDBRANCH  33  34
ENDBRANCH   1  33
TORSDOF 10
ENDMDL
