MODEL 1
REMARK VINA RESULT:      -7.6      0.000      0.000
REMARK  Name = 
REMARK  3 active torsions:
REMARK  status: ('A' for Active; 'I' for Inactive)
REMARK    1  A    between atoms: C_2  and  C_4
REMARK    2  A    between atoms: C_9  and  N_10
REMARK    3  A    between atoms: N_18  and  C_19
REMARK                            x       y       z     vdW  Elec       q    Type
REMARK                         _______ _______ _______ _____ _____    ______ ____
ROOT
ATOM      1  C   UNL     1       6.048   4.489  16.830  0.00  0.00    +0.000 A 
ATOM      2  C   UNL     1       6.996   5.063  15.962  0.00  0.00    +0.000 A 
ATOM      3  C   UNL     1       6.891   4.831  14.620  0.00  0.00    +0.000 A 
ATOM      4  C   UNL     1       5.876   4.016  14.165  0.00  0.00    +0.000 A 
ATOM      5  N   UNL     1       4.883   3.532  14.945  0.00  0.00    +0.000 NA
ATOM      6  C   UNL     1       4.925   3.790  16.296  0.00  0.00    +0.000 A 
ATOM      7  C   UNL     1       6.059   3.735  12.696  0.00  0.00    +0.000 C 
ATOM      8  C   UNL     1       7.465   4.317  12.420  0.00  0.00    +0.000 C 
ATOM      9  C   UNL     1       7.766   5.331  13.525  0.00  0.00    +0.000 C 
ENDROOT
BRANCH   6  10
ATOM     10  N   UNL     1       3.806   3.415  17.008  0.00  0.00    +0.000 N 
ATOM     11  C   UNL     1       2.640   4.283  17.159  0.00  0.00    +0.000 C 
ATOM     12  C   UNL     1       1.921   3.768  18.425  0.00  0.00    +0.000 C 
ATOM     13  C   UNL     1       2.219   2.279  18.405  0.00  0.00    +0.000 C 
ATOM     14  C   UNL     1       3.522   2.113  17.602  0.00  0.00    +0.000 C 
ATOM     15  O   UNL     1       2.415   1.904  19.771  0.00  0.00    +0.000 OA
ATOM     16  C   UNL     1       2.702   3.032  20.487  0.00  0.00    +0.000 C 
ATOM     17  O   UNL     1       3.099   3.007  21.640  0.00  0.00    +0.000 OA
ATOM     18  N   UNL     1       2.421   4.150  19.732  0.00  0.00    +0.000 N 
BRANCH  18  19
ATOM     19  C   UNL     1       2.528   5.510  20.257  0.00  0.00    +0.000 C 
ATOM     20  C   UNL     1       2.679   6.610  19.207  0.00  0.00    +0.000 C 
ATOM     21  C   UNL     1       2.170   7.869  19.880  0.00  0.00    +0.000 C 
ATOM     22  C   UNL     1       0.990   7.393  20.704  0.00  0.00    +0.000 C 
ATOM     23  C   UNL     1       1.321   5.958  21.112  0.00  0.00    +0.000 C 
ENDBRANCH  18  19
ENDBRANCH   6  10
BRANCH   1  25
ATOM     24  N   UNL     1       7.651   5.061  18.595  0.00  0.00    +0.000 N 
ATOM     25  C   UNL     1       6.423   4.546  18.268  0.00  0.00    +0.000 C 
ATOM     26  O   UNL     1       5.738   4.055  19.158  0.00  0.00    +0.000 OA
ATOM     27  H   UNL     1       7.932   4.963  19.562  0.00  0.00    +0.000 HD
ATOM     28  H   UNL     1       8.346   5.364  17.930  0.00  0.00    +0.000 HD
ENDBRANCH   1  25
TORSDOF 3
ENDMDL
MODEL 2
REMARK VINA RESULT:      -7.5      8.359     11.459
REMARK  Name = 
REMARK  3 active torsions:
REMARK  status: ('A' for Active; 'I' for Inactive)
REMARK    1  A    between atoms: C_2  and  C_4
REMARK    2  A    between atoms: C_9  and  N_10
REMARK    3  A    between atoms: N_18  and  C_19
REMARK                            x       y       z     vdW  Elec       q    Type
REMARK                         _______ _______ _______ _____ _____    ______ ____
ROOT
ATOM      1  C   UNL     1      -3.731  11.417  17.485  0.00  0.00    +0.000 A 
ATOM      2  C   UNL     1      -5.123  11.614  17.551  0.00  0.00    +0.000 A 
ATOM      3  C   UNL     1      -5.668  12.118  18.697  0.00  0.00    +0.000 A 
ATOM      4  C   UNL     1      -4.836  12.388  19.763  0.00  0.00    +0.000 A 
ATOM      5  N   UNL     1      -3.487  12.316  19.712  0.00  0.00    +0.000 NA
ATOM      6  C   UNL     1      -2.898  11.863  18.554  0.00  0.00    +0.000 A 
ATOM      7  C   UNL     1      -5.654  12.743  20.978  0.00  0.00    +0.000 C 
ATOM      8  C   UNL     1      -7.093  12.407  20.520  0.00  0.00    +0.000 C 
ATOM      9  C   UNL     1      -7.097  12.411  18.990  0.00  0.00    +0.000 C 
ENDROOT
BRANCH   6  10
ATOM     10  N   UNL     1      -1.524  11.970  18.504  0.00  0.00    +0.000 N 
ATOM     11  C   UNL     1      -0.641  10.808  18.582  0.00  0.00    +0.000 C 
ATOM     12  C   UNL     1       0.716  11.373  19.059  0.00  0.00    +0.000 C 
ATOM     13  C   UNL     1       0.739  12.765  18.453  0.00  0.00    +0.000 C 
ATOM     14  C   UNL     1      -0.733  13.167  18.246  0.00  0.00    +0.000 C 
ATOM     15  O   UNL     1       1.360  13.603  19.432  0.00  0.00    +0.000 OA
ATOM     16  C   UNL     1       1.282  12.977  20.643  0.00  0.00    +0.000 C 
ATOM     17  O   UNL     1       1.559  13.526  21.696  0.00  0.00    +0.000 OA
ATOM     18  N   UNL     1       0.911  11.661  20.467  0.00  0.00    +0.000 N 
BRANCH  18  19
ATOM     19  C   UNL     1       0.839  10.703  21.569  0.00  0.00    +0.000 C 
ATOM     20  C   UNL     1      -0.443  10.751  22.399  0.00  0.00    +0.000 C 
ATOM     21  C   UNL     1      -0.563   9.373  23.018  0.00  0.00    +0.000 C 
ATOM     22  C   UNL     1      -0.083   8.438  21.925  0.00  0.00    +0.000 C 
ATOM     23  C   UNL     1       0.961   9.225  21.134  0.00  0.00    +0.000 C 
ENDBRANCH  18  19
ENDBRANCH   6  10
BRANCH   1  25
ATOM     24  N   UNL     1      -3.170  11.200  15.108  0.00  0.00    +0.000 N 
ATOM     25  C   UNL     1      -3.284  10.591  16.332  0.00  0.00    +0.000 C 
ATOM     26  O   UNL     1      -3.122   9.379  16.400  0.00  0.00    +0.000 OA
ATOM     27  H   UNL     1      -2.996  10.588  14.321  0.00  0.00    +0.000 HD
ATOM     28  H   UNL     1      -3.412  12.160  14.915  0.00  0.00    +0.000 HD
ENDBRANCH   1  25
TORSDOF 3
ENDMDL
MODEL 3
REMARK VINA RESULT:      -7.2      0.886      1.170
REMARK  Name = 
REMARK  3 active torsions:
REMARK  status: ('A' for Active; 'I' for Inactive)
REMARK    1  A    between atoms: C_2  and  C_4
REMARK    2  A    between atoms: C_9  and  N_10
REMARK    3  A    between atoms: N_18  and  C_19
REMARK                            x       y       z     vdW  Elec       q    Type
REMARK                         _______ _______ _______ _____ _____    ______ ____
ROOT
ATOM      1  C   UNL     1       6.096   4.606  16.947  0.00  0.00    +0.000 A 
ATOM      2  C   UNL     1       6.929   5.259  16.019  0.00  0.00    +0.000 A 
ATOM      3  C   UNL     1       6.840   4.925  14.698  0.00  0.00    +0.000 A 
ATOM      4  C   UNL     1       5.957   3.934  14.323  0.00  0.00    +0.000 A 
ATOM      5  N   UNL     1       5.065   3.356  15.158  0.00  0.00    +0.000 NA
ATOM      6  C   UNL     1       5.088   3.707  16.489  0.00  0.00    +0.000 A 
ATOM      7  C   UNL     1       6.158   3.587  12.870  0.00  0.00    +0.000 C 
ATOM      8  C   UNL     1       7.452   4.359  12.521  0.00  0.00    +0.000 C 
ATOM      9  C   UNL     1       7.609   5.479  13.551  0.00  0.00    +0.000 C 
ENDROOT
BRANCH   6  10
ATOM     10  N   UNL     1       4.053   3.212  17.253  0.00  0.00    +0.000 N 
ATOM     11  C   UNL     1       2.654   3.550  16.997  0.00  0.00    +0.000 C 
ATOM     12  C   UNL     1       1.932   3.291  18.338  0.00  0.00    +0.000 C 
ATOM     13  C   UNL     1       2.719   2.138  18.934  0.00  0.00    +0.000 C 
ATOM     14  C   UNL     1       4.126   2.213  18.312  0.00  0.00    +0.000 C 
ATOM     15  O   UNL     1       2.773   2.391  20.341  0.00  0.00    +0.000 OA
ATOM     16  C   UNL     1       2.517   3.717  20.547  0.00  0.00    +0.000 C 
ATOM     17  O   UNL     1       2.676   4.266  21.624  0.00  0.00    +0.000 OA
ATOM     18  N   UNL     1       2.016   4.282  19.394  0.00  0.00    +0.000 N 
BRANCH  18  19
ATOM     19  C   UNL     1       1.552   5.666  19.326  0.00  0.00    +0.000 C 
ATOM     20  C   UNL     1       1.785   6.500  20.585  0.00  0.00    +0.000 C 
ATOM     21  C   UNL     1       1.810   7.938  20.106  0.00  0.00    +0.000 C 
ATOM     22  C   UNL     1       2.530   7.868  18.774  0.00  0.00    +0.000 C 
ATOM     23  C   UNL     1       2.191   6.496  18.191  0.00  0.00    +0.000 C 
ENDBRANCH  18  19
ENDBRANCH   6  10
BRANCH   1  25
ATOM     24  N   UNL     1       5.559   5.384  19.210  0.00  0.00    +0.000 N 
ATOM     25  C   UNL     1       6.481   4.816  18.368  0.00  0.00    +0.000 C 
ATOM     26  O   UNL     1       7.612   4.610  18.792  0.00  0.00    +0.000 OA
ATOM     27  H   UNL     1       5.893   5.637  20.131  0.00  0.00    +0.000 HD
ATOM     28  H   UNL     1       4.650   5.716  18.929  0.00  0.00    +0.000 HD
ENDBRANCH   1  25
TORSDOF 3
ENDMDL
MODEL 4
REMARK VINA RESULT:      -7.2      2.071      6.525
REMARK  Name = 
REMARK  3 active torsions:
REMARK  status: ('A' for Active; 'I' for Inactive)
REMARK    1  A    between atoms: C_2  and  C_4
REMARK    2  A    between atoms: C_9  and  N_10
REMARK    3  A    between atoms: N_18  and  C_19
REMARK                            x       y       z     vdW  Elec       q    Type
REMARK                         _______ _______ _______ _____ _____    ______ ____
ROOT
ATOM      1  C   UNL     1       1.843   5.242  20.520  0.00  0.00    +0.000 A 
ATOM      2  C   UNL     1       0.966   6.205  21.057  0.00  0.00    +0.000 A 
ATOM      3  C   UNL     1       1.031   7.490  20.599  0.00  0.00    +0.000 A 
ATOM      4  C   UNL     1       1.977   7.807  19.647  0.00  0.00    +0.000 A 
ATOM      5  N   UNL     1       2.764   6.900  19.027  0.00  0.00    +0.000 NA
ATOM      6  C   UNL     1       2.690   5.584  19.424  0.00  0.00    +0.000 A 
ATOM      7  C   UNL     1       2.010   9.298  19.430  0.00  0.00    +0.000 C 
ATOM      8  C   UNL     1       1.107   9.820  20.572  0.00  0.00    +0.000 C 
ATOM      9  C   UNL     1       0.211   8.660  21.012  0.00  0.00    +0.000 C 
ENDROOT
BRANCH   6  10
ATOM     10  N   UNL     1       3.390   4.687  18.647  0.00  0.00    +0.000 N 
ATOM     11  C   UNL     1       4.723   4.207  19.005  0.00  0.00    +0.000 C 
ATOM     12  C   UNL     1       5.344   3.727  17.675  0.00  0.00    +0.000 C 
ATOM     13  C   UNL     1       4.140   3.227  16.897  0.00  0.00    +0.000 C 
ATOM     14  C   UNL     1       2.921   3.980  17.461  0.00  0.00    +0.000 C 
ATOM     15  O   UNL     1       4.377   3.595  15.535  0.00  0.00    +0.000 OA
ATOM     16  C   UNL     1       5.307   4.596  15.519  0.00  0.00    +0.000 C 
ATOM     17  O   UNL     1       5.574   5.241  14.519  0.00  0.00    +0.000 OA
ATOM     18  N   UNL     1       5.902   4.703  16.757  0.00  0.00    +0.000 N 
BRANCH  18  19
ATOM     19  C   UNL     1       7.010   5.618  17.029  0.00  0.00    +0.000 C 
ATOM     20  C   UNL     1       6.618   7.080  17.235  0.00  0.00    +0.000 C 
ATOM     21  C   UNL     1       7.740   7.675  18.063  0.00  0.00    +0.000 C 
ATOM     22  C   UNL     1       8.109   6.567  19.028  0.00  0.00    +0.000 C 
ATOM     23  C   UNL     1       7.835   5.260  18.285  0.00  0.00    +0.000 C 
ENDBRANCH  18  19
ENDBRANCH   6  10
BRANCH   1  25
ATOM     24  N   UNL     1       0.981   2.998  21.001  0.00  0.00    +0.000 N 
ATOM     25  C   UNL     1       1.902   3.972  21.290  0.00  0.00    +0.000 C 
ATOM     26  O   UNL     1       2.658   3.799  22.239  0.00  0.00    +0.000 OA
ATOM     27  H   UNL     1       0.959   2.204  21.628  0.00  0.00    +0.000 HD
ATOM     28  H   UNL     1       0.230   3.093  20.334  0.00  0.00    +0.000 HD
ENDBRANCH   1  25
TORSDOF 3
ENDMDL
MODEL 5
REMARK VINA RESULT:      -7.1     10.059     12.988
REMARK  Name = 
REMARK  3 active torsions:
REMARK  status: ('A' for Active; 'I' for Inactive)
REMARK    1  A    between atoms: C_2  and  C_4
REMARK    2  A    between atoms: C_9  and  N_10
REMARK    3  A    between atoms: N_18  and  C_19
REMARK                            x       y       z     vdW  Elec       q    Type
REMARK                         _______ _______ _______ _____ _____    ______ ____
ROOT
ATOM      1  C   UNL     1      -5.641  12.451  18.020  0.00  0.00    +0.000 A 
ATOM      2  C   UNL     1      -5.191  11.591  17.000  0.00  0.00    +0.000 A 
ATOM      3  C   UNL     1      -4.014  10.918  17.171  0.00  0.00    +0.000 A 
ATOM      4  C   UNL     1      -3.292  11.131  18.326  0.00  0.00    +0.000 A 
ATOM      5  N   UNL     1      -3.733  11.861  19.375  0.00  0.00    +0.000 NA
ATOM      6  C   UNL     1      -4.940  12.511  19.261  0.00  0.00    +0.000 A 
ATOM      7  C   UNL     1      -1.949  10.454  18.225  0.00  0.00    +0.000 C 
ATOM      8  C   UNL     1      -1.907  10.017  16.742  0.00  0.00    +0.000 C 
ATOM      9  C   UNL     1      -3.352   9.964  16.241  0.00  0.00    +0.000 C 
ENDROOT
BRANCH   6  10
ATOM     10  N   UNL     1      -5.411  13.098  20.416  0.00  0.00    +0.000 N 
ATOM     11  C   UNL     1      -4.897  14.371  20.918  0.00  0.00    +0.000 C 
ATOM     12  C   UNL     1      -5.239  14.370  22.424  0.00  0.00    +0.000 C 
ATOM     13  C   UNL     1      -6.533  13.579  22.482  0.00  0.00    +0.000 C 
ATOM     14  C   UNL     1      -6.533  12.667  21.241  0.00  0.00    +0.000 C 
ATOM     15  O   UNL     1      -6.460  12.802  23.681  0.00  0.00    +0.000 OA
ATOM     16  C   UNL     1      -5.150  12.716  24.056  0.00  0.00    +0.000 C 
ATOM     17  O   UNL     1      -4.755  11.966  24.933  0.00  0.00    +0.000 OA
ATOM     18  N   UNL     1      -4.398  13.626  23.344  0.00  0.00    +0.000 N 
BRANCH  18  19
ATOM     19  C   UNL     1      -2.974  13.845  23.591  0.00  0.00    +0.000 C 
ATOM     20  C   UNL     1      -2.022  13.025  22.722  0.00  0.00    +0.000 C 
ATOM     21  C   UNL     1      -0.728  13.813  22.703  0.00  0.00    +0.000 C 
ATOM     22  C   UNL     1      -1.181  15.258  22.645  0.00  0.00    +0.000 C 
ATOM     23  C   UNL     1      -2.513  15.307  23.393  0.00  0.00    +0.000 C 
ENDBRANCH  18  19
ENDBRANCH   6  10
BRANCH   1  25
ATOM     24  N   UNL     1      -6.433  14.506  16.942  0.00  0.00    +0.000 N 
ATOM     25  C   UNL     1      -6.751  13.353  17.613  0.00  0.00    +0.000 C 
ATOM     26  O   UNL     1      -7.917  13.171  17.944  0.00  0.00    +0.000 OA
ATOM     27  H   UNL     1      -7.190  15.162  16.799  0.00  0.00    +0.000 HD
ATOM     28  H   UNL     1      -5.495  14.818  16.742  0.00  0.00    +0.000 HD
ENDBRANCH   1  25
TORSDOF 3
ENDMDL
MODEL 6
REMARK VINA RESULT:      -7.1      4.636      7.357
REMARK  Name = 
REMARK  3 active torsions:
REMARK  status: ('A' for Active; 'I' for Inactive)
REMARK    1  A    between atoms: C_2  and  C_4
REMARK    2  A    between atoms: C_9  and  N_10
REMARK    3  A    between atoms: N_18  and  C_19
REMARK                            x       y       z     vdW  Elec       q    Type
REMARK                         _______ _______ _______ _____ _____    ______ ____
ROOT
ATOM      1  C   UNL     1       2.099   7.012  18.924  0.00  0.00    +0.000 A 
ATOM      2  C   UNL     1       2.280   5.727  18.378  0.00  0.00    +0.000 A 
ATOM      3  C   UNL     1       2.040   4.634  19.161  0.00  0.00    +0.000 A 
ATOM      4  C   UNL     1       1.658   4.829  20.471  0.00  0.00    +0.000 A 
ATOM      5  N   UNL     1       1.368   6.036  21.007  0.00  0.00    +0.000 NA
ATOM      6  C   UNL     1       1.547   7.158  20.231  0.00  0.00    +0.000 A 
ATOM      7  C   UNL     1       1.639   3.512  21.204  0.00  0.00    +0.000 C 
ATOM      8  C   UNL     1       2.298   2.555  20.183  0.00  0.00    +0.000 C 
ATOM      9  C   UNL     1       2.160   3.195  18.801  0.00  0.00    +0.000 C 
ENDROOT
BRANCH   6  10
ATOM     10  N   UNL     1       1.079   8.336  20.773  0.00  0.00    +0.000 N 
ATOM     11  C   UNL     1      -0.336   8.702  20.763  0.00  0.00    +0.000 C 
ATOM     12  C   UNL     1      -0.350  10.239  20.914  0.00  0.00    +0.000 C 
ATOM     13  C   UNL     1       0.875  10.510  21.768  0.00  0.00    +0.000 C 
ATOM     14  C   UNL     1       1.831   9.327  21.534  0.00  0.00    +0.000 C 
ATOM     15  O   UNL     1       1.438  11.725  21.264  0.00  0.00    +0.000 OA
ATOM     16  C   UNL     1       0.966  11.921  19.997  0.00  0.00    +0.000 C 
ATOM     17  O   UNL     1       1.411  12.771  19.245  0.00  0.00    +0.000 OA
ATOM     18  N   UNL     1      -0.090  11.070  19.753  0.00  0.00    +0.000 N 
BRANCH  18  19
ATOM     19  C   UNL     1      -0.873  11.110  18.520  0.00  0.00    +0.000 C 
ATOM     20  C   UNL     1      -0.883   9.816  17.706  0.00  0.00    +0.000 C 
ATOM     21  C   UNL     1      -2.156   9.877  16.886  0.00  0.00    +0.000 C 
ATOM     22  C   UNL     1      -3.166  10.506  17.824  0.00  0.00    +0.000 C 
ATOM     23  C   UNL     1      -2.366  11.446  18.726  0.00  0.00    +0.000 C 
ENDBRANCH  18  19
ENDBRANCH   6  10
BRANCH   1  25
ATOM     24  N   UNL     1       3.821   7.859  17.398  0.00  0.00    +0.000 N 
ATOM     25  C   UNL     1       2.673   8.112  18.104  0.00  0.00    +0.000 C 
ATOM     26  O   UNL     1       2.233   9.256  18.118  0.00  0.00    +0.000 OA
ATOM     27  H   UNL     1       4.260   8.658  16.960  0.00  0.00    +0.000 HD
ATOM     28  H   UNL     1       4.338   6.994  17.427  0.00  0.00    +0.000 HD
ENDBRANCH   1  25
TORSDOF 3
ENDMDL
MODEL 7
REMARK VINA RESULT:      -7.0      8.771     12.208
REMARK  Name = 
REMARK  3 active torsions:
REMARK  status: ('A' for Active; 'I' for Inactive)
REMARK    1  A    between atoms: C_2  and  C_4
REMARK    2  A    between atoms: C_9  and  N_10
REMARK    3  A    between atoms: N_18  and  C_19
REMARK                            x       y       z     vdW  Elec       q    Type
REMARK                         _______ _______ _______ _____ _____    ______ ____
ROOT
ATOM      1  C   UNL     1      -1.074  11.897  19.525  0.00  0.00    +0.000 A 
ATOM      2  C   UNL     1      -0.137  10.850  19.614  0.00  0.00    +0.000 A 
ATOM      3  C   UNL     1       0.023  10.202  20.806  0.00  0.00    +0.000 A 
ATOM      4  C   UNL     1      -0.719  10.619  21.891  0.00  0.00    +0.000 A 
ATOM      5  N   UNL     1      -1.702  11.545  21.829  0.00  0.00    +0.000 NA
ATOM      6  C   UNL     1      -1.930  12.182  20.631  0.00  0.00    +0.000 A 
ATOM      7  C   UNL     1      -0.251   9.913  23.137  0.00  0.00    +0.000 C 
ATOM      8  C   UNL     1       1.032   9.198  22.652  0.00  0.00    +0.000 C 
ATOM      9  C   UNL     1       0.939   9.076  21.130  0.00  0.00    +0.000 C 
ENDROOT
BRANCH   6  10
ATOM     10  N   UNL     1      -3.047  12.988  20.588  0.00  0.00    +0.000 N 
ATOM     11  C   UNL     1      -3.036  14.375  21.049  0.00  0.00    +0.000 C 
ATOM     12  C   UNL     1      -4.512  14.701  21.362  0.00  0.00    +0.000 C 
ATOM     13  C   UNL     1      -5.271  13.858  20.353  0.00  0.00    +0.000 C 
ATOM     14  C   UNL     1      -4.342  12.685  19.990  0.00  0.00    +0.000 C 
ATOM     15  O   UNL     1      -6.436  13.389  21.037  0.00  0.00    +0.000 OA
ATOM     16  C   UNL     1      -6.210  13.483  22.381  0.00  0.00    +0.000 C 
ATOM     17  O   UNL     1      -6.946  12.987  23.217  0.00  0.00    +0.000 OA
ATOM     18  N   UNL     1      -5.090  14.251  22.615  0.00  0.00    +0.000 N 
BRANCH  18  19
ATOM     19  C   UNL     1      -4.646  14.620  23.958  0.00  0.00    +0.000 C 
ATOM     20  C   UNL     1      -3.361  13.945  24.434  0.00  0.00    +0.000 C 
ATOM     21  C   UNL     1      -2.796  14.873  25.490  0.00  0.00    +0.000 C 
ATOM     22  C   UNL     1      -3.087  16.260  24.951  0.00  0.00    +0.000 C 
ATOM     23  C   UNL     1      -4.381  16.130  24.148  0.00  0.00    +0.000 C 
ENDBRANCH  18  19
ENDBRANCH   6  10
BRANCH   1  25
ATOM     24  N   UNL     1      -1.546  12.266  17.148  0.00  0.00    +0.000 N 
ATOM     25  C   UNL     1      -0.952  12.724  18.295  0.00  0.00    +0.000 C 
ATOM     26  O   UNL     1      -0.256  13.731  18.233  0.00  0.00    +0.000 OA
ATOM     27  H   UNL     1      -1.334  12.777  16.301  0.00  0.00    +0.000 HD
ATOM     28  H   UNL     1      -2.024  11.383  17.058  0.00  0.00    +0.000 HD
ENDBRANCH   1  25
TORSDOF 3
ENDMDL
MODEL 8
REMARK VINA RESULT:      -7.0      9.086     11.871
REMARK  Name = 
REMARK  3 active torsions:
REMARK  status: ('A' for Active; 'I' for Inactive)
REMARK    1  A    between atoms: C_2  and  C_4
REMARK    2  A    between atoms: C_9  and  N_10
REMARK    3  A    between atoms: N_18  and  C_19
REMARK                            x       y       z     vdW  Elec       q    Type
REMARK                         _______ _______ _______ _____ _____    ______ ____
ROOT
ATOM      1  C   UNL     1      -2.342  10.821  17.624  0.00  0.00    +0.000 A 
ATOM      2  C   UNL     1      -0.982  10.591  17.905  0.00  0.00    +0.000 A 
ATOM      3  C   UNL     1      -0.442  11.118  19.044  0.00  0.00    +0.000 A 
ATOM      4  C   UNL     1      -1.243  11.886  19.863  0.00  0.00    +0.000 A 
ATOM      5  N   UNL     1      -2.574  12.045  19.691  0.00  0.00    +0.000 NA
ATOM      6  C   UNL     1      -3.165  11.483  18.583  0.00  0.00    +0.000 A 
ATOM      7  C   UNL     1      -0.411  12.526  20.944  0.00  0.00    +0.000 C 
ATOM      8  C   UNL     1       1.032  12.206  20.486  0.00  0.00    +0.000 C 
ATOM      9  C   UNL     1       0.955  11.004  19.543  0.00  0.00    +0.000 C 
ENDROOT
BRANCH   6  10
ATOM     10  N   UNL     1      -4.542  11.537  18.551  0.00  0.00    +0.000 N 
ATOM     11  C   UNL     1      -5.282  12.797  18.606  0.00  0.00    +0.000 C 
ATOM     12  C   UNL     1      -6.689  12.409  19.112  0.00  0.00    +0.000 C 
ATOM     13  C   UNL     1      -6.884  11.014  18.545  0.00  0.00    +0.000 C 
ATOM     14  C   UNL     1      -5.473  10.436  18.333  0.00  0.00    +0.000 C 
ATOM     15  O   UNL     1      -7.586  10.280  19.552  0.00  0.00    +0.000 OA
ATOM     16  C   UNL     1      -7.418  10.924  20.745  0.00  0.00    +0.000 C 
ATOM     17  O   UNL     1      -7.743  10.438  21.816  0.00  0.00    +0.000 OA
ATOM     18  N   UNL     1      -6.897  12.181  20.530  0.00  0.00    +0.000 N 
BRANCH  18  19
ATOM     19  C   UNL     1      -6.698  13.153  21.604  0.00  0.00    +0.000 C 
ATOM     20  C   UNL     1      -7.916  13.411  22.490  0.00  0.00    +0.000 C 
ATOM     21  C   UNL     1      -7.349  13.915  23.802  0.00  0.00    +0.000 C 
ATOM     22  C   UNL     1      -6.094  13.087  24.000  0.00  0.00    +0.000 C 
ATOM     23  C   UNL     1      -5.573  12.781  22.596  0.00  0.00    +0.000 C 
ENDBRANCH  18  19
ENDBRANCH   6  10
BRANCH   1  25
ATOM     24  N   UNL     1      -3.252  11.470  15.441  0.00  0.00    +0.000 N 
ATOM     25  C   UNL     1      -2.747  10.473  16.236  0.00  0.00    +0.000 C 
ATOM     26  O   UNL     1      -2.754   9.324  15.809  0.00  0.00    +0.000 OA
ATOM     27  H   UNL     1      -3.642  11.179  14.555  0.00  0.00    +0.000 HD
ATOM     28  H   UNL     1      -3.417  12.419  15.741  0.00  0.00    +0.000 HD
ENDBRANCH   1  25
TORSDOF 3
ENDMDL
MODEL 9
REMARK VINA RESULT:      -6.9      9.505     12.022
REMARK  Name = 
REMARK  3 active torsions:
REMARK  status: ('A' for Active; 'I' for Inactive)
REMARK    1  A    between atoms: C_2  and  C_4
REMARK    2  A    between atoms: C_9  and  N_10
REMARK    3  A    between atoms: N_18  and  C_19
REMARK                            x       y       z     vdW  Elec       q    Type
REMARK                         _______ _______ _______ _____ _____    ______ ____
ROOT
ATOM      1  C   UNL     1      -2.193  11.173  18.229  0.00  0.00    +0.000 A 
ATOM      2  C   UNL     1      -0.849  11.100  18.643  0.00  0.00    +0.000 A 
ATOM      3  C   UNL     1      -0.459  11.789  19.756  0.00  0.00    +0.000 A 
ATOM      4  C   UNL     1      -1.392  12.559  20.419  0.00  0.00    +0.000 A 
ATOM      5  N   UNL     1      -2.711  12.576  20.124  0.00  0.00    +0.000 NA
ATOM      6  C   UNL     1      -3.151  11.851  19.041  0.00  0.00    +0.000 A 
ATOM      7  C   UNL     1      -0.716  13.381  21.487  0.00  0.00    +0.000 C 
ATOM      8  C   UNL     1       0.783  13.149  21.185  0.00  0.00    +0.000 C 
ATOM      9  C   UNL     1       0.892  11.856  20.375  0.00  0.00    +0.000 C 
ENDROOT
BRANCH   6  10
ATOM     10  N   UNL     1      -4.519  11.774  18.892  0.00  0.00    +0.000 N 
ATOM     11  C   UNL     1      -5.409  12.891  19.204  0.00  0.00    +0.000 C 
ATOM     12  C   UNL     1      -6.788  12.241  19.454  0.00  0.00    +0.000 C 
ATOM     13  C   UNL     1      -6.774  11.041  18.525  0.00  0.00    +0.000 C 
ATOM     14  C   UNL     1      -5.292  10.686  18.305  0.00  0.00    +0.000 C 
ATOM     15  O   UNL     1      -7.446   9.995  19.232  0.00  0.00    +0.000 OA
ATOM     16  C   UNL     1      -7.437  10.304  20.562  0.00  0.00    +0.000 C 
ATOM     17  O   UNL     1      -7.770   9.516  21.432  0.00  0.00    +0.000 OA
ATOM     18  N   UNL     1      -7.060  11.618  20.736  0.00  0.00    +0.000 N 
BRANCH  18  19
ATOM     19  C   UNL     1      -7.052  12.277  22.041  0.00  0.00    +0.000 C 
ATOM     20  C   UNL     1      -5.678  12.710  22.549  0.00  0.00    +0.000 C 
ATOM     21  C   UNL     1      -5.956  13.837  23.523  0.00  0.00    +0.000 C 
ATOM     22  C   UNL     1      -7.101  14.599  22.885  0.00  0.00    +0.000 C 
ATOM     23  C   UNL     1      -7.911  13.559  22.111  0.00  0.00    +0.000 C 
ENDBRANCH  18  19
ENDBRANCH   6  10
BRANCH   1  25
ATOM     24  N   UNL     1      -2.543  11.552  15.832  0.00  0.00    +0.000 N 
ATOM     25  C   UNL     1      -2.441  10.650  16.860  0.00  0.00    +0.000 C 
ATOM     26  O   UNL     1      -2.667   9.468  16.626  0.00  0.00    +0.000 OA
ATOM     27  H   UNL     1      -2.844  11.180  14.941  0.00  0.00    +0.000 HD
ATOM     28  H   UNL     1      -2.510  12.554  15.938  0.00  0.00    +0.000 HD
ENDBRANCH   1  25
TORSDOF 3
ENDMDL
