MODEL 1
REMARK VINA RESULT:      -7.0      0.000      0.000
REMARK  Name = 
REMARK  3 active torsions:
REMARK  status: ('A' for Active; 'I' for Inactive)
REMARK    1  A    between atoms: C_2  and  C_5
REMARK    2  A    between atoms: N_3  and  O_4
REMARK    3  A    between atoms: C_8  and  C_9
REMARK                            x       y       z     vdW  Elec       q    Type
REMARK                         _______ _______ _______ _____ _____    ______ ____
ROOT
ATOM      1  C   UNL     1       5.964   5.186  17.074  0.00  0.00    +0.000 A 
ATOM      2  C   UNL     1       5.875   5.654  18.387  0.00  0.00    +0.000 A 
ATOM      3  C   UNL     1       4.874   5.169  19.240  0.00  0.00    +0.000 A 
ATOM      4  C   UNL     1       3.961   4.200  18.797  0.00  0.00    +0.000 A 
ATOM      5  C   UNL     1       4.082   3.720  17.484  0.00  0.00    +0.000 A 
ATOM      6  C   UNL     1       5.074   4.205  16.627  0.00  0.00    +0.000 A 
ENDROOT
BRANCH   4   7
ATOM      7  C   UNL     1       2.885   3.704  19.660  0.00  0.00    +0.000 A 
ATOM      8  C   UNL     1       1.517   3.929  19.607  0.00  0.00    +0.000 A 
ATOM      9  C   UNL     1       0.905   3.240  20.680  0.00  0.00    +0.000 A 
ATOM     10  C   UNL     1       1.905   2.592  21.364  0.00  0.00    +0.000 A 
ATOM     11  N   UNL     1       3.092   2.864  20.735  0.00  0.00    +0.000 N 
ATOM     12  H   UNL     1       3.988   2.492  21.016  0.00  0.00    +0.000 HD
ENDBRANCH   4   7
BRANCH   1  14
ATOM     13  O   UNL     1       7.643   6.746  16.472  0.00  0.00    +0.000 OA
ATOM     14  C   UNL     1       7.019   5.729  16.182  0.00  0.00    +0.000 C 
ATOM     15  N   UNL     1       7.218   5.050  15.000  0.00  0.00    +0.000 N 
ATOM     16  H   UNL     1       6.500   4.463  14.588  0.00  0.00    +0.000 HD
BRANCH  15  17
ATOM     17  O   UNL     1       8.121   5.658  14.098  0.00  0.00    +0.000 OA
ATOM     18  H   UNL     1       8.937   5.730  14.639  0.00  0.00    +0.000 HD
ENDBRANCH  15  17
ENDBRANCH   1  14
TORSDOF 3
ENDMDL
MODEL 2
REMARK VINA RESULT:      -6.9      0.305      1.221
REMARK  Name = 
REMARK  3 active torsions:
REMARK  status: ('A' for Active; 'I' for Inactive)
REMARK    1  A    between atoms: C_2  and  C_5
REMARK    2  A    between atoms: N_3  and  O_4
REMARK    3  A    between atoms: C_8  and  C_9
REMARK                            x       y       z     vdW  Elec       q    Type
REMARK                         _______ _______ _______ _____ _____    ______ ____
ROOT
ATOM      1  C   UNL     1       5.942   5.319  17.104  0.00  0.00    +0.000 A 
ATOM      2  C   UNL     1       4.764   4.828  16.534  0.00  0.00    +0.000 A 
ATOM      3  C   UNL     1       3.742   4.328  17.351  0.00  0.00    +0.000 A 
ATOM      4  C   UNL     1       3.876   4.327  18.748  0.00  0.00    +0.000 A 
ATOM      5  C   UNL     1       5.052   4.850  19.306  0.00  0.00    +0.000 A 
ATOM      6  C   UNL     1       6.079   5.343  18.495  0.00  0.00    +0.000 A 
ENDROOT
BRANCH   4   7
ATOM      7  C   UNL     1       2.835   3.777  19.622  0.00  0.00    +0.000 A 
ATOM      8  C   UNL     1       1.455   3.909  19.565  0.00  0.00    +0.000 A 
ATOM      9  C   UNL     1       0.890   3.202  20.652  0.00  0.00    +0.000 A 
ATOM     10  C   UNL     1       1.930   2.636  21.348  0.00  0.00    +0.000 A 
ATOM     11  N   UNL     1       3.097   2.974  20.713  0.00  0.00    +0.000 N 
ATOM     12  H   UNL     1       4.016   2.669  21.000  0.00  0.00    +0.000 HD
ENDBRANCH   4   7
BRANCH   1  14
ATOM     13  O   UNL     1       7.641   6.849  16.484  0.00  0.00    +0.000 OA
ATOM     14  C   UNL     1       7.019   5.824  16.218  0.00  0.00    +0.000 C 
ATOM     15  N   UNL     1       7.241   5.102  15.066  0.00  0.00    +0.000 N 
ATOM     16  H   UNL     1       6.530   4.502  14.659  0.00  0.00    +0.000 HD
BRANCH  15  17
ATOM     17  O   UNL     1       8.167   5.672  14.163  0.00  0.00    +0.000 OA
ATOM     18  H   UNL     1       8.769   6.161  14.765  0.00  0.00    +0.000 HD
ENDBRANCH  15  17
ENDBRANCH   1  14
TORSDOF 3
ENDMDL
MODEL 3
REMARK VINA RESULT:      -6.8      1.664      1.907
REMARK  Name = 
REMARK  3 active torsions:
REMARK  status: ('A' for Active; 'I' for Inactive)
REMARK    1  A    between atoms: C_2  and  C_5
REMARK    2  A    between atoms: N_3  and  O_4
REMARK    3  A    between atoms: C_8  and  C_9
REMARK                            x       y       z     vdW  Elec       q    Type
REMARK                         _______ _______ _______ _____ _____    ______ ____
ROOT
ATOM      1  C   UNL     1       5.613   4.759  15.605  0.00  0.00    +0.000 A 
ATOM      2  C   UNL     1       5.157   5.959  16.158  0.00  0.00    +0.000 A 
ATOM      3  C   UNL     1       4.267   5.940  17.240  0.00  0.00    +0.000 A 
ATOM      4  C   UNL     1       3.834   4.725  17.793  0.00  0.00    +0.000 A 
ATOM      5  C   UNL     1       4.324   3.530  17.244  0.00  0.00    +0.000 A 
ATOM      6  C   UNL     1       5.206   3.542  16.160  0.00  0.00    +0.000 A 
ENDROOT
BRANCH   4   7
ATOM      7  C   UNL     1       2.877   4.681  18.902  0.00  0.00    +0.000 A 
ATOM      8  C   UNL     1       1.655   4.032  19.007  0.00  0.00    +0.000 A 
ATOM      9  C   UNL     1       1.101   4.317  20.277  0.00  0.00    +0.000 A 
ATOM     10  C   UNL     1       1.999   5.122  20.936  0.00  0.00    +0.000 A 
ATOM     11  N   UNL     1       3.071   5.325  20.107  0.00  0.00    +0.000 N 
ATOM     12  H   UNL     1       3.891   5.861  20.351  0.00  0.00    +0.000 HD
ENDBRANCH   4   7
BRANCH   1  14
ATOM     13  O   UNL     1       6.370   4.088  13.462  0.00  0.00    +0.000 OA
ATOM     14  C   UNL     1       6.539   4.803  14.446  0.00  0.00    +0.000 C 
ATOM     15  N   UNL     1       7.615   5.654  14.566  0.00  0.00    +0.000 N 
ATOM     16  H   UNL     1       7.966   5.958  15.469  0.00  0.00    +0.000 HD
BRANCH  15  17
ATOM     17  O   UNL     1       8.565   5.581  13.521  0.00  0.00    +0.000 OA
ATOM     18  H   UNL     1       8.052   5.147  12.805  0.00  0.00    +0.000 HD
ENDBRANCH  15  17
ENDBRANCH   1  14
TORSDOF 3
ENDMDL
MODEL 4
REMARK VINA RESULT:      -6.8      1.114      1.639
REMARK  Name = 
REMARK  3 active torsions:
REMARK  status: ('A' for Active; 'I' for Inactive)
REMARK    1  A    between atoms: C_2  and  C_5
REMARK    2  A    between atoms: N_3  and  O_4
REMARK    3  A    between atoms: C_8  and  C_9
REMARK                            x       y       z     vdW  Elec       q    Type
REMARK                         _______ _______ _______ _____ _____    ______ ____
ROOT
ATOM      1  C   UNL     1       5.800   5.307  16.608  0.00  0.00    +0.000 A 
ATOM      2  C   UNL     1       5.343   4.004  16.391  0.00  0.00    +0.000 A 
ATOM      3  C   UNL     1       4.220   3.528  17.082  0.00  0.00    +0.000 A 
ATOM      4  C   UNL     1       3.531   4.353  17.984  0.00  0.00    +0.000 A 
ATOM      5  C   UNL     1       3.984   5.668  18.168  0.00  0.00    +0.000 A 
ATOM      6  C   UNL     1       5.109   6.145  17.487  0.00  0.00    +0.000 A 
ENDROOT
BRANCH   4   7
ATOM      7  C   UNL     1       2.374   3.866  18.743  0.00  0.00    +0.000 A 
ATOM      8  C   UNL     1       1.783   4.365  19.895  0.00  0.00    +0.000 A 
ATOM      9  C   UNL     1       0.702   3.523  20.247  0.00  0.00    +0.000 A 
ATOM     10  C   UNL     1       0.639   2.531  19.298  0.00  0.00    +0.000 A 
ATOM     11  N   UNL     1       1.640   2.753  18.388  0.00  0.00    +0.000 N 
ATOM     12  H   UNL     1       1.806   2.186  17.569  0.00  0.00    +0.000 HD
ENDBRANCH   4   7
BRANCH   1  14
ATOM     13  O   UNL     1       7.699   6.694  16.319  0.00  0.00    +0.000 OA
ATOM     14  C   UNL     1       7.003   5.782  15.881  0.00  0.00    +0.000 C 
ATOM     15  N   UNL     1       7.259   5.170  14.673  0.00  0.00    +0.000 N 
ATOM     16  H   UNL     1       6.533   4.703  14.140  0.00  0.00    +0.000 HD
BRANCH  15  17
ATOM     17  O   UNL     1       8.321   5.728  13.926  0.00  0.00    +0.000 OA
ATOM     18  H   UNL     1       7.881   5.956  13.078  0.00  0.00    +0.000 HD
ENDBRANCH  15  17
ENDBRANCH   1  14
TORSDOF 3
ENDMDL
MODEL 5
REMARK VINA RESULT:      -6.8      0.699      1.573
REMARK  Name = 
REMARK  3 active torsions:
REMARK  status: ('A' for Active; 'I' for Inactive)
REMARK    1  A    between atoms: C_2  and  C_5
REMARK    2  A    between atoms: N_3  and  O_4
REMARK    3  A    between atoms: C_8  and  C_9
REMARK                            x       y       z     vdW  Elec       q    Type
REMARK                         _______ _______ _______ _____ _____    ______ ____
ROOT
ATOM      1  C   UNL     1       5.910   5.217  17.034  0.00  0.00    +0.000 A 
ATOM      2  C   UNL     1       5.052   4.216  16.570  0.00  0.00    +0.000 A 
ATOM      3  C   UNL     1       4.040   3.717  17.401  0.00  0.00    +0.000 A 
ATOM      4  C   UNL     1       3.862   4.222  18.697  0.00  0.00    +0.000 A 
ATOM      5  C   UNL     1       4.713   5.247  19.138  0.00  0.00    +0.000 A 
ATOM      6  C   UNL     1       5.730   5.743  18.316  0.00  0.00    +0.000 A 
ENDROOT
BRANCH   4   7
ATOM      7  C   UNL     1       2.832   3.691  19.596  0.00  0.00    +0.000 A 
ATOM      8  C   UNL     1       2.945   2.839  20.685  0.00  0.00    +0.000 A 
ATOM      9  C   UNL     1       1.653   2.608  21.212  0.00  0.00    +0.000 A 
ATOM     10  C   UNL     1       0.771   3.333  20.447  0.00  0.00    +0.000 A 
ATOM     11  N   UNL     1       1.490   3.995  19.486  0.00  0.00    +0.000 N 
ATOM     12  H   UNL     1       1.092   4.622  18.802  0.00  0.00    +0.000 HD
ENDBRANCH   4   7
BRANCH   1  14
ATOM     13  O   UNL     1       7.667   6.694  16.444  0.00  0.00    +0.000 OA
ATOM     14  C   UNL     1       6.988   5.715  16.144  0.00  0.00    +0.000 C 
ATOM     15  N   UNL     1       7.145   5.043  14.952  0.00  0.00    +0.000 N 
ATOM     16  H   UNL     1       6.395   4.500  14.536  0.00  0.00    +0.000 HD
BRANCH  15  17
ATOM     17  O   UNL     1       8.075   5.614  14.053  0.00  0.00    +0.000 OA
ATOM     18  H   UNL     1       7.985   5.034  13.265  0.00  0.00    +0.000 HD
ENDBRANCH  15  17
ENDBRANCH   1  14
TORSDOF 3
ENDMDL
MODEL 6
REMARK VINA RESULT:      -6.8      1.699      2.192
REMARK  Name = 
REMARK  3 active torsions:
REMARK  status: ('A' for Active; 'I' for Inactive)
REMARK    1  A    between atoms: C_2  and  C_5
REMARK    2  A    between atoms: N_3  and  O_4
REMARK    3  A    between atoms: C_8  and  C_9
REMARK                            x       y       z     vdW  Elec       q    Type
REMARK                         _______ _______ _______ _____ _____    ______ ____
ROOT
ATOM      1  C   UNL     1       5.521   4.809  15.627  0.00  0.00    +0.000 A 
ATOM      2  C   UNL     1       5.042   3.588  16.110  0.00  0.00    +0.000 A 
ATOM      3  C   UNL     1       4.138   3.562  17.181  0.00  0.00    +0.000 A 
ATOM      4  C   UNL     1       3.690   4.753  17.772  0.00  0.00    +0.000 A 
ATOM      5  C   UNL     1       4.159   5.971  17.256  0.00  0.00    +0.000 A 
ATOM      6  C   UNL     1       5.066   6.004  16.193  0.00  0.00    +0.000 A 
ENDROOT
BRANCH   4   7
ATOM      7  C   UNL     1       2.772   4.749  18.915  0.00  0.00    +0.000 A 
ATOM      8  C   UNL     1       1.708   3.908  19.207  0.00  0.00    +0.000 A 
ATOM      9  C   UNL     1       1.121   4.330  20.423  0.00  0.00    +0.000 A 
ATOM     10  C   UNL     1       1.844   5.413  20.864  0.00  0.00    +0.000 A 
ATOM     11  N   UNL     1       2.845   5.649  19.958  0.00  0.00    +0.000 N 
ATOM     12  H   UNL     1       3.542   6.374  20.050  0.00  0.00    +0.000 HD
ENDBRANCH   4   7
BRANCH   1  14
ATOM     13  O   UNL     1       6.351   4.078  13.532  0.00  0.00    +0.000 OA
ATOM     14  C   UNL     1       6.493   4.812  14.506  0.00  0.00    +0.000 C 
ATOM     15  N   UNL     1       7.577   5.650  14.650  0.00  0.00    +0.000 N 
ATOM     16  H   UNL     1       7.896   5.968  15.559  0.00  0.00    +0.000 HD
BRANCH  15  17
ATOM     17  O   UNL     1       8.566   5.537  13.646  0.00  0.00    +0.000 OA
ATOM     18  H   UNL     1       8.263   6.195  12.982  0.00  0.00    +0.000 HD
ENDBRANCH  15  17
ENDBRANCH   1  14
TORSDOF 3
ENDMDL
MODEL 7
REMARK VINA RESULT:      -6.7      1.678      1.943
REMARK  Name = 
REMARK  3 active torsions:
REMARK  status: ('A' for Active; 'I' for Inactive)
REMARK    1  A    between atoms: C_2  and  C_5
REMARK    2  A    between atoms: N_3  and  O_4
REMARK    3  A    between atoms: C_8  and  C_9
REMARK                            x       y       z     vdW  Elec       q    Type
REMARK                         _______ _______ _______ _____ _____    ______ ____
ROOT
ATOM      1  C   UNL     1       5.675   4.756  15.592  0.00  0.00    +0.000 A 
ATOM      2  C   UNL     1       5.213   5.972  16.104  0.00  0.00    +0.000 A 
ATOM      3  C   UNL     1       4.314   5.985  17.179  0.00  0.00    +0.000 A 
ATOM      4  C   UNL     1       3.878   4.786  17.764  0.00  0.00    +0.000 A 
ATOM      5  C   UNL     1       4.374   3.576  17.256  0.00  0.00    +0.000 A 
ATOM      6  C   UNL     1       5.265   3.557  16.180  0.00  0.00    +0.000 A 
ENDROOT
BRANCH   4   7
ATOM      7  C   UNL     1       2.911   4.775  18.867  0.00  0.00    +0.000 A 
ATOM      8  C   UNL     1       1.741   4.046  19.025  0.00  0.00    +0.000 A 
ATOM      9  C   UNL     1       1.150   4.407  20.258  0.00  0.00    +0.000 A 
ATOM     10  C   UNL     1       1.973   5.340  20.842  0.00  0.00    +0.000 A 
ATOM     11  N   UNL     1       3.039   5.544  20.005  0.00  0.00    +0.000 N 
ATOM     12  H   UNL     1       3.812   6.164  20.201  0.00  0.00    +0.000 HD
ENDBRANCH   4   7
BRANCH   1  14
ATOM     13  O   UNL     1       7.597   5.498  14.420  0.00  0.00    +0.000 OA
ATOM     14  C   UNL     1       6.611   4.766  14.440  0.00  0.00    +0.000 C 
ATOM     15  N   UNL     1       6.279   3.944  13.386  0.00  0.00    +0.000 N 
ATOM     16  H   UNL     1       5.328   3.630  13.225  0.00  0.00    +0.000 HD
BRANCH  15  17
ATOM     17  O   UNL     1       7.097   4.069  12.240  0.00  0.00    +0.000 OA
ATOM     18  H   UNL     1       6.561   3.616  11.552  0.00  0.00    +0.000 HD
ENDBRANCH  15  17
ENDBRANCH   1  14
TORSDOF 3
ENDMDL
MODEL 8
REMARK VINA RESULT:      -6.7      1.678      2.157
REMARK  Name = 
REMARK  3 active torsions:
REMARK  status: ('A' for Active; 'I' for Inactive)
REMARK    1  A    between atoms: C_2  and  C_5
REMARK    2  A    between atoms: N_3  and  O_4
REMARK    3  A    between atoms: C_8  and  C_9
REMARK                            x       y       z     vdW  Elec       q    Type
REMARK                         _______ _______ _______ _____ _____    ______ ____
ROOT
ATOM      1  C   UNL     1       5.713   4.814  15.524  0.00  0.00    +0.000 A 
ATOM      2  C   UNL     1       5.280   3.592  16.046  0.00  0.00    +0.000 A 
ATOM      3  C   UNL     1       4.378   3.566  17.118  0.00  0.00    +0.000 A 
ATOM      4  C   UNL     1       3.885   4.758  17.670  0.00  0.00    +0.000 A 
ATOM      5  C   UNL     1       4.308   5.976  17.116  0.00  0.00    +0.000 A 
ATOM      6  C   UNL     1       5.214   6.008  16.051  0.00  0.00    +0.000 A 
ENDROOT
BRANCH   4   7
ATOM      7  C   UNL     1       2.968   4.756  18.814  0.00  0.00    +0.000 A 
ATOM      8  C   UNL     1       1.717   4.173  18.960  0.00  0.00    +0.000 A 
ATOM      9  C   UNL     1       1.227   4.475  20.251  0.00  0.00    +0.000 A 
ATOM     10  C   UNL     1       2.191   5.225  20.882  0.00  0.00    +0.000 A 
ATOM     11  N   UNL     1       3.242   5.376  20.016  0.00  0.00    +0.000 N 
ATOM     12  H   UNL     1       4.098   5.865  20.233  0.00  0.00    +0.000 HD
ENDBRANCH   4   7
BRANCH   1  14
ATOM     13  O   UNL     1       7.699   5.508  14.434  0.00  0.00    +0.000 OA
ATOM     14  C   UNL     1       6.685   4.817  14.402  0.00  0.00    +0.000 C 
ATOM     15  N   UNL     1       6.354   4.038  13.315  0.00  0.00    +0.000 N 
ATOM     16  H   UNL     1       5.396   3.767  13.117  0.00  0.00    +0.000 HD
BRANCH  15  17
ATOM     17  O   UNL     1       7.212   4.161  12.199  0.00  0.00    +0.000 OA
ATOM     18  H   UNL     1       7.342   3.225  11.932  0.00  0.00    +0.000 HD
ENDBRANCH  15  17
ENDBRANCH   1  14
TORSDOF 3
ENDMDL
MODEL 9
REMARK VINA RESULT:      -6.7      1.234      1.859
REMARK  Name = 
REMARK  3 active torsions:
REMARK  status: ('A' for Active; 'I' for Inactive)
REMARK    1  A    between atoms: C_2  and  C_5
REMARK    2  A    between atoms: N_3  and  O_4
REMARK    3  A    between atoms: C_8  and  C_9
REMARK                            x       y       z     vdW  Elec       q    Type
REMARK                         _______ _______ _______ _____ _____    ______ ____
ROOT
ATOM      1  C   UNL     1       5.825   4.402  16.165  0.00  0.00    +0.000 A 
ATOM      2  C   UNL     1       4.517   3.923  16.051  0.00  0.00    +0.000 A 
ATOM      3  C   UNL     1       3.741   3.716  17.199  0.00  0.00    +0.000 A 
ATOM      4  C   UNL     1       4.256   4.000  18.473  0.00  0.00    +0.000 A 
ATOM      5  C   UNL     1       5.560   4.507  18.569  0.00  0.00    +0.000 A 
ATOM      6  C   UNL     1       6.342   4.709  17.427  0.00  0.00    +0.000 A 
ENDROOT
BRANCH   4   7
ATOM      7  C   UNL     1       3.474   3.759  19.691  0.00  0.00    +0.000 A 
ATOM      8  C   UNL     1       2.635   4.606  20.400  0.00  0.00    +0.000 A 
ATOM      9  C   UNL     1       2.129   3.905  21.520  0.00  0.00    +0.000 A 
ATOM     10  C   UNL     1       2.655   2.636  21.471  0.00  0.00    +0.000 A 
ATOM     11  N   UNL     1       3.452   2.552  20.358  0.00  0.00    +0.000 N 
ATOM     12  H   UNL     1       3.943   1.719  20.067  0.00  0.00    +0.000 HD
ENDBRANCH   4   7
BRANCH   1  14
ATOM     13  O   UNL     1       6.507   3.857  13.962  0.00  0.00    +0.000 OA
ATOM     14  C   UNL     1       6.635   4.593  14.937  0.00  0.00    +0.000 C 
ATOM     15  N   UNL     1       7.563   5.611  14.978  0.00  0.00    +0.000 N 
ATOM     16  H   UNL     1       7.929   5.971  15.853  0.00  0.00    +0.000 HD
BRANCH  15  17
ATOM     17  O   UNL     1       8.424   5.691  13.860  0.00  0.00    +0.000 OA
ATOM     18  H   UNL     1       8.688   4.753  13.734  0.00  0.00    +0.000 HD
ENDBRANCH  15  17
ENDBRANCH   1  14
TORSDOF 3
ENDMDL
