MODEL 1
REMARK VINA RESULT:      -9.6      0.000      0.000
REMARK  Name = 
REMARK  7 active torsions:
REMARK  status: ('A' for Active; 'I' for Inactive)
REMARK    1  A    between atoms: O_1  and  C_2
REMARK    2  A    between atoms: C_4  and  C_5
REMARK    3  A    between atoms: C_5  and  C_6
REMARK    4  A    between atoms: C_5  and  C_12
REMARK    5  A    between atoms: C_20  and  N_21
REMARK    6  A    between atoms: N_21  and  C_22
REMARK    7  A    between atoms: C_22  and  C_23
REMARK                            x       y       z     vdW  Elec       q    Type
REMARK                         _______ _______ _______ _____ _____    ______ ____
ROOT
ATOM      1  C   UNL     1       6.781   4.728  18.857  0.00  0.00    +0.000 C 
ATOM      2  C   UNL     1       5.253   4.665  18.747  0.00  0.00    +0.000 C 
ATOM      3  C   UNL     1       4.672   6.064  18.456  0.00  0.00    +0.000 C 
ATOM      4  O   UNL     1       5.303   6.587  17.270  0.00  0.00    +0.000 OA
ATOM      5  C   UNL     1       6.704   6.798  17.483  0.00  0.00    +0.000 C 
ATOM      6  C   UNL     1       7.413   5.438  17.632  0.00  0.00    +0.000 C 
ENDROOT
BRANCH   1   7
ATOM      7  O   UNL     1       7.130   5.445  20.051  0.00  0.00    +0.000 OA
ATOM      8  H   UNL     1       7.169   4.799  20.778  0.00  0.00    +0.000 HD
ENDBRANCH   1   7
BRANCH   6   9
ATOM      9  N   UNL     1       7.266   4.582  16.429  0.00  0.00    +0.000 NA
ATOM     10  H   UNL     1       6.323   4.187  16.434  0.00  0.00    +0.000 HD
BRANCH   9  11
ATOM     11  C   UNL     1       7.404   5.333  15.181  0.00  0.00    +0.000 C 
BRANCH  11  12
ATOM     12  C   UNL     1       6.724   4.602  14.050  0.00  0.00    +0.000 A 
ATOM     13  C   UNL     1       5.404   4.137  14.197  0.00  0.00    +0.000 A 
ATOM     14  C   UNL     1       4.786   3.438  13.161  0.00  0.00    +0.000 A 
ATOM     15  C   UNL     1       5.484   3.201  11.984  0.00  0.00    +0.000 A 
ATOM     16  F   UNL     1       4.893   2.522  10.992  0.00  0.00    +0.000 F 
ATOM     17  C   UNL     1       6.790   3.651  11.820  0.00  0.00    +0.000 A 
ATOM     18  C   UNL     1       7.412   4.348  12.857  0.00  0.00    +0.000 A 
ENDBRANCH  11  12
ENDBRANCH   9  11
ENDBRANCH   6   9
BRANCH   3  19
ATOM     19  C   UNL     1       3.121   6.045  18.257  0.00  0.00    +0.000 C 
BRANCH  19  20
ATOM     20  C   UNL     1       2.513   4.877  19.034  0.00  0.00    +0.000 A 
ATOM     21  C   UNL     1       1.705   3.922  18.391  0.00  0.00    +0.000 A 
ATOM     22  C   UNL     1       1.037   2.940  19.122  0.00  0.00    +0.000 A 
ATOM     23  C   UNL     1       1.179   2.887  20.506  0.00  0.00    +0.000 A 
ATOM     24  C   UNL     1       2.003   3.804  21.156  0.00  0.00    +0.000 A 
ATOM     25  C   UNL     1       2.669   4.792  20.426  0.00  0.00    +0.000 A 
ENDBRANCH  19  20
BRANCH  19  26
ATOM     26  C   UNL     1       2.422   7.373  18.582  0.00  0.00    +0.000 A 
ATOM     27  C   UNL     1       1.947   7.606  19.884  0.00  0.00    +0.000 A 
ATOM     28  C   UNL     1       1.305   8.805  20.211  0.00  0.00    +0.000 A 
ATOM     29  C   UNL     1       1.132   9.793  19.245  0.00  0.00    +0.000 A 
ATOM     30  C   UNL     1       1.595   9.580  17.950  0.00  0.00    +0.000 A 
ATOM     31  C   UNL     1       2.236   8.383  17.624  0.00  0.00    +0.000 A 
ENDBRANCH  19  26
ENDBRANCH   3  19
TORSDOF 7
ENDMDL
MODEL 2
REMARK VINA RESULT:      -9.5      0.209      1.285
REMARK  Name = 
REMARK  7 active torsions:
REMARK  status: ('A' for Active; 'I' for Inactive)
REMARK    1  A    between atoms: O_1  and  C_2
REMARK    2  A    between atoms: C_4  and  C_5
REMARK    3  A    between atoms: C_5  and  C_6
REMARK    4  A    between atoms: C_5  and  C_12
REMARK    5  A    between atoms: C_20  and  N_21
REMARK    6  A    between atoms: N_21  and  C_22
REMARK    7  A    between atoms: C_22  and  C_23
REMARK                            x       y       z     vdW  Elec       q    Type
REMARK                         _______ _______ _______ _____ _____    ______ ____
ROOT
ATOM      1  C   UNL     1       6.707   4.760  18.842  0.00  0.00    +0.000 C 
ATOM      2  C   UNL     1       5.180   4.728  18.711  0.00  0.00    +0.000 C 
ATOM      3  C   UNL     1       4.636   6.129  18.363  0.00  0.00    +0.000 C 
ATOM      4  O   UNL     1       5.296   6.597  17.169  0.00  0.00    +0.000 OA
ATOM      5  C   UNL     1       6.698   6.783  17.397  0.00  0.00    +0.000 C 
ATOM      6  C   UNL     1       7.373   5.413  17.603  0.00  0.00    +0.000 C 
ENDROOT
BRANCH   1   7
ATOM      7  O   UNL     1       7.055   5.509  20.016  0.00  0.00    +0.000 OA
ATOM      8  H   UNL     1       7.981   5.794  19.916  0.00  0.00    +0.000 HD
ENDBRANCH   1   7
BRANCH   6   9
ATOM      9  N   UNL     1       7.224   4.520  16.428  0.00  0.00    +0.000 NA
ATOM     10  H   UNL     1       6.260   4.178  16.410  0.00  0.00    +0.000 HD
BRANCH   9  11
ATOM     11  C   UNL     1       7.451   5.213  15.160  0.00  0.00    +0.000 C 
BRANCH  11  12
ATOM     12  C   UNL     1       6.742   4.498  14.036  0.00  0.00    +0.000 A 
ATOM     13  C   UNL     1       7.396   4.282  12.808  0.00  0.00    +0.000 A 
ATOM     14  C   UNL     1       6.731   3.646  11.761  0.00  0.00    +0.000 A 
ATOM     15  C   UNL     1       5.418   3.230  11.937  0.00  0.00    +0.000 A 
ATOM     16  F   UNL     1       4.777   2.625  10.928  0.00  0.00    +0.000 F 
ATOM     17  C   UNL     1       4.754   3.434  13.142  0.00  0.00    +0.000 A 
ATOM     18  C   UNL     1       5.416   4.074  14.191  0.00  0.00    +0.000 A 
ENDBRANCH  11  12
ENDBRANCH   9  11
ENDBRANCH   6   9
BRANCH   3  19
ATOM     19  C   UNL     1       3.087   6.138  18.141  0.00  0.00    +0.000 C 
BRANCH  19  20
ATOM     20  C   UNL     1       2.462   4.906  18.796  0.00  0.00    +0.000 A 
ATOM     21  C   UNL     1       1.827   3.918  18.023  0.00  0.00    +0.000 A 
ATOM     22  C   UNL     1       1.136   2.869  18.628  0.00  0.00    +0.000 A 
ATOM     23  C   UNL     1       1.082   2.782  20.016  0.00  0.00    +0.000 A 
ATOM     24  C   UNL     1       1.734   3.733  20.798  0.00  0.00    +0.000 A 
ATOM     25  C   UNL     1       2.423   4.788  20.194  0.00  0.00    +0.000 A 
ENDBRANCH  19  20
BRANCH  19  26
ATOM     26  C   UNL     1       2.389   7.434  18.579  0.00  0.00    +0.000 A 
ATOM     27  C   UNL     1       2.163   8.452  17.638  0.00  0.00    +0.000 A 
ATOM     28  C   UNL     1       1.531   9.644  18.006  0.00  0.00    +0.000 A 
ATOM     29  C   UNL     1       1.110   9.837  19.320  0.00  0.00    +0.000 A 
ATOM     30  C   UNL     1       1.326   8.840  20.266  0.00  0.00    +0.000 A 
ATOM     31  C   UNL     1       1.957   7.650  19.898  0.00  0.00    +0.000 A 
ENDBRANCH  19  26
ENDBRANCH   3  19
TORSDOF 7
ENDMDL
MODEL 3
REMARK VINA RESULT:      -9.3      0.732      1.709
REMARK  Name = 
REMARK  7 active torsions:
REMARK  status: ('A' for Active; 'I' for Inactive)
REMARK    1  A    between atoms: O_1  and  C_2
REMARK    2  A    between atoms: C_4  and  C_5
REMARK    3  A    between atoms: C_5  and  C_6
REMARK    4  A    between atoms: C_5  and  C_12
REMARK    5  A    between atoms: C_20  and  N_21
REMARK    6  A    between atoms: N_21  and  C_22
REMARK    7  A    between atoms: C_22  and  C_23
REMARK                            x       y       z     vdW  Elec       q    Type
REMARK                         _______ _______ _______ _____ _____    ______ ____
ROOT
ATOM      1  C   UNL     1       6.374   4.513  17.444  0.00  0.00    +0.000 C 
ATOM      2  C   UNL     1       4.842   4.535  17.481  0.00  0.00    +0.000 C 
ATOM      3  C   UNL     1       4.335   5.812  18.182  0.00  0.00    +0.000 C 
ATOM      4  O   UNL     1       4.901   6.959  17.516  0.00  0.00    +0.000 OA
ATOM      5  C   UNL     1       6.326   6.989  17.664  0.00  0.00    +0.000 C 
ATOM      6  C   UNL     1       6.951   5.831  16.863  0.00  0.00    +0.000 C 
ENDROOT
BRANCH   1   7
ATOM      7  O   UNL     1       6.867   4.329  18.779  0.00  0.00    +0.000 OA
ATOM      8  H   UNL     1       6.450   3.525  19.136  0.00  0.00    +0.000 HD
ENDBRANCH   1   7
BRANCH   6   9
ATOM      9  N   UNL     1       6.649   5.911  15.412  0.00  0.00    +0.000 NA
ATOM     10  H   UNL     1       6.843   6.865  15.101  0.00  0.00    +0.000 HD
BRANCH   9  11
ATOM     11  C   UNL     1       7.494   5.025  14.612  0.00  0.00    +0.000 C 
BRANCH  11  12
ATOM     12  C   UNL     1       6.662   4.283  13.594  0.00  0.00    +0.000 A 
ATOM     13  C   UNL     1       7.256   3.785  12.419  0.00  0.00    +0.000 A 
ATOM     14  C   UNL     1       6.480   3.125  11.467  0.00  0.00    +0.000 A 
ATOM     15  C   UNL     1       5.118   2.964  11.685  0.00  0.00    +0.000 A 
ATOM     16  F   UNL     1       4.373   2.336  10.766  0.00  0.00    +0.000 F 
ATOM     17  C   UNL     1       4.513   3.450  12.839  0.00  0.00    +0.000 A 
ATOM     18  C   UNL     1       5.285   4.115  13.793  0.00  0.00    +0.000 A 
ENDBRANCH  11  12
ENDBRANCH   9  11
ENDBRANCH   6   9
BRANCH   3  19
ATOM     19  C   UNL     1       2.774   5.924  18.179  0.00  0.00    +0.000 C 
BRANCH  19  20
ATOM     20  C   UNL     1       2.172   4.795  19.016  0.00  0.00    +0.000 A 
ATOM     21  C   UNL     1       2.511   4.638  20.371  0.00  0.00    +0.000 A 
ATOM     22  C   UNL     1       2.073   3.529  21.094  0.00  0.00    +0.000 A 
ATOM     23  C   UNL     1       1.276   2.568  20.479  0.00  0.00    +0.000 A 
ATOM     24  C   UNL     1       0.902   2.725  19.146  0.00  0.00    +0.000 A 
ATOM     25  C   UNL     1       1.344   3.833  18.417  0.00  0.00    +0.000 A 
ENDBRANCH  19  20
BRANCH  19  26
ATOM     26  C   UNL     1       2.235   7.299  18.600  0.00  0.00    +0.000 A 
ATOM     27  C   UNL     1       2.014   8.286  17.625  0.00  0.00    +0.000 A 
ATOM     28  C   UNL     1       1.525   9.548  17.977  0.00  0.00    +0.000 A 
ATOM     29  C   UNL     1       1.242   9.843  19.309  0.00  0.00    +0.000 A 
ATOM     30  C   UNL     1       1.454   8.878  20.289  0.00  0.00    +0.000 A 
ATOM     31  C   UNL     1       1.943   7.619  19.937  0.00  0.00    +0.000 A 
ENDBRANCH  19  26
ENDBRANCH   3  19
TORSDOF 7
ENDMDL
MODEL 4
REMARK VINA RESULT:      -9.2      0.898      1.275
REMARK  Name = 
REMARK  7 active torsions:
REMARK  status: ('A' for Active; 'I' for Inactive)
REMARK    1  A    between atoms: O_1  and  C_2
REMARK    2  A    between atoms: C_4  and  C_5
REMARK    3  A    between atoms: C_5  and  C_6
REMARK    4  A    between atoms: C_5  and  C_12
REMARK    5  A    between atoms: C_20  and  N_21
REMARK    6  A    between atoms: N_21  and  C_22
REMARK    7  A    between atoms: C_22  and  C_23
REMARK                            x       y       z     vdW  Elec       q    Type
REMARK                         _______ _______ _______ _____ _____    ______ ____
ROOT
ATOM      1  C   UNL     1       6.337   4.457  17.151  0.00  0.00    +0.000 C 
ATOM      2  C   UNL     1       4.815   4.462  17.336  0.00  0.00    +0.000 C 
ATOM      3  C   UNL     1       4.363   5.729  18.090  0.00  0.00    +0.000 C 
ATOM      4  O   UNL     1       4.850   6.886  17.380  0.00  0.00    +0.000 OA
ATOM      5  C   UNL     1       6.282   6.932  17.391  0.00  0.00    +0.000 C 
ATOM      6  C   UNL     1       6.840   5.785  16.527  0.00  0.00    +0.000 C 
ENDROOT
BRANCH   1   7
ATOM      7  O   UNL     1       6.957   4.273  18.433  0.00  0.00    +0.000 OA
ATOM      8  H   UNL     1       6.412   4.739  19.091  0.00  0.00    +0.000 HD
ENDBRANCH   1   7
BRANCH   6   9
ATOM      9  N   UNL     1       6.400   5.868  15.112  0.00  0.00    +0.000 NA
ATOM     10  H   UNL     1       6.317   6.857  14.864  0.00  0.00    +0.000 HD
BRANCH   9  11
ATOM     11  C   UNL     1       7.366   5.279  14.185  0.00  0.00    +0.000 C 
BRANCH  11  12
ATOM     12  C   UNL     1       6.677   4.318  13.248  0.00  0.00    +0.000 A 
ATOM     13  C   UNL     1       5.284   4.128  13.324  0.00  0.00    +0.000 A 
ATOM     14  C   UNL     1       4.652   3.219  12.477  0.00  0.00    +0.000 A 
ATOM     15  C   UNL     1       5.407   2.500  11.560  0.00  0.00    +0.000 A 
ATOM     16  F   UNL     1       4.800   1.621  10.751  0.00  0.00    +0.000 F 
ATOM     17  C   UNL     1       6.784   2.671  11.470  0.00  0.00    +0.000 A 
ATOM     18  C   UNL     1       7.420   3.578  12.320  0.00  0.00    +0.000 A 
ENDBRANCH  11  12
ENDBRANCH   9  11
ENDBRANCH   6   9
BRANCH   3  19
ATOM     19  C   UNL     1       2.808   5.823  18.238  0.00  0.00    +0.000 C 
BRANCH  19  20
ATOM     20  C   UNL     1       2.307   4.712  19.161  0.00  0.00    +0.000 A 
ATOM     21  C   UNL     1       1.362   3.771  18.716  0.00  0.00    +0.000 A 
ATOM     22  C   UNL     1       0.801   2.848  19.598  0.00  0.00    +0.000 A 
ATOM     23  C   UNL     1       1.188   2.840  20.935  0.00  0.00    +0.000 A 
ATOM     24  C   UNL     1       2.148   3.743  21.386  0.00  0.00    +0.000 A 
ATOM     25  C   UNL     1       2.708   4.673  20.506  0.00  0.00    +0.000 A 
ENDBRANCH  19  20
BRANCH  19  26
ATOM     26  C   UNL     1       2.293   7.203  18.671  0.00  0.00    +0.000 A 
ATOM     27  C   UNL     1       2.209   8.240  17.726  0.00  0.00    +0.000 A 
ATOM     28  C   UNL     1       1.745   9.508  18.091  0.00  0.00    +0.000 A 
ATOM     29  C   UNL     1       1.353   9.760  19.403  0.00  0.00    +0.000 A 
ATOM     30  C   UNL     1       1.429   8.746  20.352  0.00  0.00    +0.000 A 
ATOM     31  C   UNL     1       1.893   7.480  19.989  0.00  0.00    +0.000 A 
ENDBRANCH  19  26
ENDBRANCH   3  19
TORSDOF 7
ENDMDL
MODEL 5
REMARK VINA RESULT:      -9.1      4.029      5.845
REMARK  Name = 
REMARK  7 active torsions:
REMARK  status: ('A' for Active; 'I' for Inactive)
REMARK    1  A    between atoms: O_1  and  C_2
REMARK    2  A    between atoms: C_4  and  C_5
REMARK    3  A    between atoms: C_5  and  C_6
REMARK    4  A    between atoms: C_5  and  C_12
REMARK    5  A    between atoms: C_20  and  N_21
REMARK    6  A    between atoms: N_21  and  C_22
REMARK    7  A    between atoms: C_22  and  C_23
REMARK                            x       y       z     vdW  Elec       q    Type
REMARK                         _______ _______ _______ _____ _____    ______ ____
ROOT
ATOM      1  C   UNL     1       7.168   6.172  16.571  0.00  0.00    +0.000 C 
ATOM      2  C   UNL     1       5.643   6.189  16.425  0.00  0.00    +0.000 C 
ATOM      3  C   UNL     1       4.979   5.397  17.570  0.00  0.00    +0.000 C 
ATOM      4  O   UNL     1       5.432   5.938  18.828  0.00  0.00    +0.000 OA
ATOM      5  C   UNL     1       6.840   5.736  18.997  0.00  0.00    +0.000 C 
ATOM      6  C   UNL     1       7.611   6.613  17.991  0.00  0.00    +0.000 C 
ENDROOT
BRANCH   1   7
ATOM      7  O   UNL     1       7.643   4.841  16.320  0.00  0.00    +0.000 OA
ATOM      8  H   UNL     1       7.936   4.470  17.171  0.00  0.00    +0.000 HD
ENDBRANCH   1   7
BRANCH   6   9
ATOM      9  N   UNL     1       7.341   8.061  18.171  0.00  0.00    +0.000 NA
ATOM     10  H   UNL     1       7.460   8.284  19.162  0.00  0.00    +0.000 HD
BRANCH   9  11
ATOM     11  C   UNL     1       8.279   8.905  17.431  0.00  0.00    +0.000 C 
BRANCH  11  12
ATOM     12  C   UNL     1       8.706  10.080  18.276  0.00  0.00    +0.000 A 
ATOM     13  C   UNL     1       8.680  11.383  17.743  0.00  0.00    +0.000 A 
ATOM     14  C   UNL     1       9.102  12.465  18.515  0.00  0.00    +0.000 A 
ATOM     15  C   UNL     1       9.550  12.248  19.811  0.00  0.00    +0.000 A 
ATOM     16  F   UNL     1       9.962  13.287  20.550  0.00  0.00    +0.000 F 
ATOM     17  C   UNL     1       9.585  10.968  20.355  0.00  0.00    +0.000 A 
ATOM     18  C   UNL     1       9.167   9.883  19.584  0.00  0.00    +0.000 A 
ENDBRANCH  11  12
ENDBRANCH   9  11
ENDBRANCH   6   9
BRANCH   3  19
ATOM     19  C   UNL     1       3.416   5.447  17.513  0.00  0.00    +0.000 C 
BRANCH  19  20
ATOM     20  C   UNL     1       2.839   4.096  17.936  0.00  0.00    +0.000 A 
ATOM     21  C   UNL     1       1.451   3.907  18.057  0.00  0.00    +0.000 A 
ATOM     22  C   UNL     1       0.932   2.722  18.577  0.00  0.00    +0.000 A 
ATOM     23  C   UNL     1       1.791   1.700  18.970  0.00  0.00    +0.000 A 
ATOM     24  C   UNL     1       3.168   1.857  18.827  0.00  0.00    +0.000 A 
ATOM     25  C   UNL     1       3.691   3.046  18.310  0.00  0.00    +0.000 A 
ENDBRANCH  19  20
BRANCH  19  26
ATOM     26  C   UNL     1       2.788   6.608  18.297  0.00  0.00    +0.000 A 
ATOM     27  C   UNL     1       2.529   7.826  17.645  0.00  0.00    +0.000 A 
ATOM     28  C   UNL     1       1.960   8.902  18.333  0.00  0.00    +0.000 A 
ATOM     29  C   UNL     1       1.633   8.778  19.681  0.00  0.00    +0.000 A 
ATOM     30  C   UNL     1       1.882   7.580  20.343  0.00  0.00    +0.000 A 
ATOM     31  C   UNL     1       2.451   6.506  19.657  0.00  0.00    +0.000 A 
ENDBRANCH  19  26
ENDBRANCH   3  19
TORSDOF 7
ENDMDL
MODEL 6
REMARK VINA RESULT:      -9.0      4.029      5.843
REMARK  Name = 
REMARK  7 active torsions:
REMARK  status: ('A' for Active; 'I' for Inactive)
REMARK    1  A    between atoms: O_1  and  C_2
REMARK    2  A    between atoms: C_4  and  C_5
REMARK    3  A    between atoms: C_5  and  C_6
REMARK    4  A    between atoms: C_5  and  C_12
REMARK    5  A    between atoms: C_20  and  N_21
REMARK    6  A    between atoms: N_21  and  C_22
REMARK    7  A    between atoms: C_22  and  C_23
REMARK                            x       y       z     vdW  Elec       q    Type
REMARK                         _______ _______ _______ _____ _____    ______ ____
ROOT
ATOM      1  C   UNL     1       7.160   6.199  16.594  0.00  0.00    +0.000 C 
ATOM      2  C   UNL     1       5.633   6.205  16.464  0.00  0.00    +0.000 C 
ATOM      3  C   UNL     1       4.987   5.396  17.607  0.00  0.00    +0.000 C 
ATOM      4  O   UNL     1       5.448   5.928  18.866  0.00  0.00    +0.000 OA
ATOM      5  C   UNL     1       6.860   5.736  19.019  0.00  0.00    +0.000 C 
ATOM      6  C   UNL     1       7.613   6.629  18.014  0.00  0.00    +0.000 C 
ENDROOT
BRANCH   1   7
ATOM      7  O   UNL     1       7.642   4.874  16.325  0.00  0.00    +0.000 OA
ATOM      8  H   UNL     1       7.432   4.324  17.100  0.00  0.00    +0.000 HD
ENDBRANCH   1   7
BRANCH   6   9
ATOM      9  N   UNL     1       7.334   8.073  18.211  0.00  0.00    +0.000 NA
ATOM     10  H   UNL     1       7.502   8.297  19.195  0.00  0.00    +0.000 HD
BRANCH   9  11
ATOM     11  C   UNL     1       8.219   8.931  17.424  0.00  0.00    +0.000 C 
BRANCH  11  12
ATOM     12  C   UNL     1       8.717  10.082  18.263  0.00  0.00    +0.000 A 
ATOM     13  C   UNL     1       9.172   9.859  19.576  0.00  0.00    +0.000 A 
ATOM     14  C   UNL     1       9.605  10.927  20.360  0.00  0.00    +0.000 A 
ATOM     15  C   UNL     1       9.582  12.213  19.837  0.00  0.00    +0.000 A 
ATOM     16  F   UNL     1       9.992  13.241  20.593  0.00  0.00    +0.000 F 
ATOM     17  C   UNL     1       9.136  12.455  18.542  0.00  0.00    +0.000 A 
ATOM     18  C   UNL     1       8.698  11.388  17.756  0.00  0.00    +0.000 A 
ENDBRANCH  11  12
ENDBRANCH   9  11
ENDBRANCH   6   9
BRANCH   3  19
ATOM     19  C   UNL     1       3.423   5.434  17.567  0.00  0.00    +0.000 C 
BRANCH  19  20
ATOM     20  C   UNL     1       2.859   4.118  18.103  0.00  0.00    +0.000 A 
ATOM     21  C   UNL     1       3.702   3.027  18.379  0.00  0.00    +0.000 A 
ATOM     22  C   UNL     1       3.174   1.786  18.732  0.00  0.00    +0.000 A 
ATOM     23  C   UNL     1       1.796   1.619  18.832  0.00  0.00    +0.000 A 
ATOM     24  C   UNL     1       0.946   2.698  18.595  0.00  0.00    +0.000 A 
ATOM     25  C   UNL     1       1.473   3.942  18.236  0.00  0.00    +0.000 A 
ENDBRANCH  19  20
BRANCH  19  26
ATOM     26  C   UNL     1       2.798   6.651  18.264  0.00  0.00    +0.000 A 
ATOM     27  C   UNL     1       2.567   7.827  17.531  0.00  0.00    +0.000 A 
ATOM     28  C   UNL     1       2.001   8.952  18.138  0.00  0.00    +0.000 A 
ATOM     29  C   UNL     1       1.650   8.919  19.486  0.00  0.00    +0.000 A 
ATOM     30  C   UNL     1       1.872   7.764  20.228  0.00  0.00    +0.000 A 
ATOM     31  C   UNL     1       2.438   6.640  19.622  0.00  0.00    +0.000 A 
ENDBRANCH  19  26
ENDBRANCH   3  19
TORSDOF 7
ENDMDL
MODEL 7
REMARK VINA RESULT:      -8.9      3.983      5.675
REMARK  Name = 
REMARK  7 active torsions:
REMARK  status: ('A' for Active; 'I' for Inactive)
REMARK    1  A    between atoms: O_1  and  C_2
REMARK    2  A    between atoms: C_4  and  C_5
REMARK    3  A    between atoms: C_5  and  C_6
REMARK    4  A    between atoms: C_5  and  C_12
REMARK    5  A    between atoms: C_20  and  N_21
REMARK    6  A    between atoms: N_21  and  C_22
REMARK    7  A    between atoms: C_22  and  C_23
REMARK                            x       y       z     vdW  Elec       q    Type
REMARK                         _______ _______ _______ _____ _____    ______ ____
ROOT
ATOM      1  C   UNL     1       7.172   6.070  16.683  0.00  0.00    +0.000 C 
ATOM      2  C   UNL     1       5.646   6.099  16.536  0.00  0.00    +0.000 C 
ATOM      3  C   UNL     1       4.975   5.333  17.695  0.00  0.00    +0.000 C 
ATOM      4  O   UNL     1       5.434   5.892  18.943  0.00  0.00    +0.000 OA
ATOM      5  C   UNL     1       6.840   5.679  19.116  0.00  0.00    +0.000 C 
ATOM      6  C   UNL     1       7.618   6.531  18.095  0.00  0.00    +0.000 C 
ENDROOT
BRANCH   1   7
ATOM      7  O   UNL     1       7.634   4.730  16.455  0.00  0.00    +0.000 OA
ATOM      8  H   UNL     1       8.382   4.573  17.057  0.00  0.00    +0.000 HD
ENDBRANCH   1   7
BRANCH   6   9
ATOM      9  N   UNL     1       7.363   7.985  18.249  0.00  0.00    +0.000 NA
ATOM     10  H   UNL     1       7.513   8.231  19.230  0.00  0.00    +0.000 HD
BRANCH   9  11
ATOM     11  C   UNL     1       8.282   8.806  17.461  0.00  0.00    +0.000 C 
BRANCH  11  12
ATOM     12  C   UNL     1       8.724  10.010  18.256  0.00  0.00    +0.000 A 
ATOM     13  C   UNL     1       9.175   9.858  19.581  0.00  0.00    +0.000 A 
ATOM     14  C   UNL     1       9.557  10.975  20.324  0.00  0.00    +0.000 A 
ATOM     15  C   UNL     1       9.487  12.237  19.748  0.00  0.00    +0.000 A 
ATOM     16  F   UNL     1       9.847  13.309  20.465  0.00  0.00    +0.000 F 
ATOM     17  C   UNL     1       9.042  12.407  18.442  0.00  0.00    +0.000 A 
ATOM     18  C   UNL     1       8.656  11.292  17.697  0.00  0.00    +0.000 A 
ENDBRANCH  11  12
ENDBRANCH   9  11
ENDBRANCH   6   9
BRANCH   3  19
ATOM     19  C   UNL     1       3.413   5.397  17.637  0.00  0.00    +0.000 C 
BRANCH  19  20
ATOM     20  C   UNL     1       2.819   4.134  18.262  0.00  0.00    +0.000 A 
ATOM     21  C   UNL     1       1.502   3.735  17.977  0.00  0.00    +0.000 A 
ATOM     22  C   UNL     1       0.915   2.667  18.653  0.00  0.00    +0.000 A 
ATOM     23  C   UNL     1       1.641   1.969  19.614  0.00  0.00    +0.000 A 
ATOM     24  C   UNL     1       2.959   2.328  19.885  0.00  0.00    +0.000 A 
ATOM     25  C   UNL     1       3.548   3.403  19.213  0.00  0.00    +0.000 A 
ENDBRANCH  19  20
BRANCH  19  26
ATOM     26  C   UNL     1       2.806   6.672  18.239  0.00  0.00    +0.000 A 
ATOM     27  C   UNL     1       2.406   6.681  19.586  0.00  0.00    +0.000 A 
ATOM     28  C   UNL     1       1.848   7.826  20.163  0.00  0.00    +0.000 A 
ATOM     29  C   UNL     1       1.687   8.984  19.405  0.00  0.00    +0.000 A 
ATOM     30  C   UNL     1       2.077   8.995  18.070  0.00  0.00    +0.000 A 
ATOM     31  C   UNL     1       2.633   7.851  17.494  0.00  0.00    +0.000 A 
ENDBRANCH  19  26
ENDBRANCH   3  19
TORSDOF 7
ENDMDL
MODEL 8
REMARK VINA RESULT:      -8.8      2.844      7.247
REMARK  Name = 
REMARK  7 active torsions:
REMARK  status: ('A' for Active; 'I' for Inactive)
REMARK    1  A    between atoms: O_1  and  C_2
REMARK    2  A    between atoms: C_4  and  C_5
REMARK    3  A    between atoms: C_5  and  C_6
REMARK    4  A    between atoms: C_5  and  C_12
REMARK    5  A    between atoms: C_20  and  N_21
REMARK    6  A    between atoms: N_21  and  C_22
REMARK    7  A    between atoms: C_22  and  C_23
REMARK                            x       y       z     vdW  Elec       q    Type
REMARK                         _______ _______ _______ _____ _____    ______ ____
ROOT
ATOM      1  C   UNL     1       4.155   3.195  19.528  0.00  0.00    +0.000 C 
ATOM      2  C   UNL     1       4.811   4.308  18.704  0.00  0.00    +0.000 C 
ATOM      3  C   UNL     1       4.734   3.985  17.197  0.00  0.00    +0.000 C 
ATOM      4  O   UNL     1       3.354   3.759  16.844  0.00  0.00    +0.000 OA
ATOM      5  C   UNL     1       2.839   2.597  17.504  0.00  0.00    +0.000 C 
ATOM      6  C   UNL     1       2.726   2.872  19.016  0.00  0.00    +0.000 C 
ENDROOT
BRANCH   1   7
ATOM      7  O   UNL     1       4.966   2.014  19.439  0.00  0.00    +0.000 OA
ATOM      8  H   UNL     1       4.775   1.469  20.223  0.00  0.00    +0.000 HD
ENDBRANCH   1   7
BRANCH   6   9
ATOM      9  N   UNL     1       1.818   4.004  19.326  0.00  0.00    +0.000 NA
ATOM     10  H   UNL     1       0.978   3.624  19.769  0.00  0.00    +0.000 HD
BRANCH   9  11
ATOM     11  C   UNL     1       2.402   4.953  20.273  0.00  0.00    +0.000 C 
BRANCH  11  12
ATOM     12  C   UNL     1       2.125   6.370  19.835  0.00  0.00    +0.000 A 
ATOM     13  C   UNL     1       2.511   6.806  18.553  0.00  0.00    +0.000 A 
ATOM     14  C   UNL     1       2.279   8.123  18.161  0.00  0.00    +0.000 A 
ATOM     15  C   UNL     1       1.667   9.003  19.044  0.00  0.00    +0.000 A 
ATOM     16  F   UNL     1       1.451  10.271  18.669  0.00  0.00    +0.000 F 
ATOM     17  C   UNL     1       1.280   8.593  20.315  0.00  0.00    +0.000 A 
ATOM     18  C   UNL     1       1.514   7.276  20.713  0.00  0.00    +0.000 A 
ENDBRANCH  11  12
ENDBRANCH   9  11
ENDBRANCH   6   9
BRANCH   3  19
ATOM     19  C   UNL     1       5.321   5.128  16.304  0.00  0.00    +0.000 C 
BRANCH  19  20
ATOM     20  C   UNL     1       6.420   5.869  17.065  0.00  0.00    +0.000 A 
ATOM     21  C   UNL     1       7.216   5.207  18.017  0.00  0.00    +0.000 A 
ATOM     22  C   UNL     1       8.119   5.912  18.810  0.00  0.00    +0.000 A 
ATOM     23  C   UNL     1       8.255   7.289  18.654  0.00  0.00    +0.000 A 
ATOM     24  C   UNL     1       7.499   7.957  17.693  0.00  0.00    +0.000 A 
ATOM     25  C   UNL     1       6.588   7.253  16.900  0.00  0.00    +0.000 A 
ENDBRANCH  19  20
BRANCH  19  26
ATOM     26  C   UNL     1       5.796   4.670  14.917  0.00  0.00    +0.000 A 
ATOM     27  C   UNL     1       7.074   5.040  14.464  0.00  0.00    +0.000 A 
ATOM     28  C   UNL     1       7.533   4.639  13.206  0.00  0.00    +0.000 A 
ATOM     29  C   UNL     1       6.727   3.858  12.381  0.00  0.00    +0.000 A 
ATOM     30  C   UNL     1       5.459   3.482  12.812  0.00  0.00    +0.000 A 
ATOM     31  C   UNL     1       5.000   3.882  14.068  0.00  0.00    +0.000 A 
ENDBRANCH  19  26
ENDBRANCH   3  19
TORSDOF 7
ENDMDL
MODEL 9
REMARK VINA RESULT:      -8.7      2.872      7.188
REMARK  Name = 
REMARK  7 active torsions:
REMARK  status: ('A' for Active; 'I' for Inactive)
REMARK    1  A    between atoms: O_1  and  C_2
REMARK    2  A    between atoms: C_4  and  C_5
REMARK    3  A    between atoms: C_5  and  C_6
REMARK    4  A    between atoms: C_5  and  C_12
REMARK    5  A    between atoms: C_20  and  N_21
REMARK    6  A    between atoms: N_21  and  C_22
REMARK    7  A    between atoms: C_22  and  C_23
REMARK                            x       y       z     vdW  Elec       q    Type
REMARK                         _______ _______ _______ _____ _____    ______ ____
ROOT
ATOM      1  C   UNL     1       4.072   3.168  19.642  0.00  0.00    +0.000 C 
ATOM      2  C   UNL     1       4.700   4.309  18.835  0.00  0.00    +0.000 C 
ATOM      3  C   UNL     1       4.639   4.002  17.324  0.00  0.00    +0.000 C 
ATOM      4  O   UNL     1       3.268   3.741  16.962  0.00  0.00    +0.000 OA
ATOM      5  C   UNL     1       2.782   2.557  17.606  0.00  0.00    +0.000 C 
ATOM      6  C   UNL     1       2.656   2.811  19.121  0.00  0.00    +0.000 C 
ENDROOT
BRANCH   1   7
ATOM      7  O   UNL     1       4.917   2.011  19.544  0.00  0.00    +0.000 OA
ATOM      8  H   UNL     1       5.278   1.989  18.640  0.00  0.00    +0.000 HD
ENDBRANCH   1   7
BRANCH   6   9
ATOM      9  N   UNL     1       1.715   3.914  19.440  0.00  0.00    +0.000 NA
ATOM     10  H   UNL     1       0.863   3.501  19.827  0.00  0.00    +0.000 HD
BRANCH   9  11
ATOM     11  C   UNL     1       2.241   4.828  20.453  0.00  0.00    +0.000 C 
BRANCH  11  12
ATOM     12  C   UNL     1       2.052   6.260  20.016  0.00  0.00    +0.000 A 
ATOM     13  C   UNL     1       1.489   7.203  20.897  0.00  0.00    +0.000 A 
ATOM     14  C   UNL     1       1.289   8.519  20.483  0.00  0.00    +0.000 A 
ATOM     15  C   UNL     1       1.648   8.893  19.195  0.00  0.00    +0.000 A 
ATOM     16  F   UNL     1       1.449  10.156  18.795  0.00  0.00    +0.000 F 
ATOM     17  C   UNL     1       2.205   7.976  18.309  0.00  0.00    +0.000 A 
ATOM     18  C   UNL     1       2.402   6.657  18.719  0.00  0.00    +0.000 A 
ENDBRANCH  11  12
ENDBRANCH   9  11
ENDBRANCH   6   9
BRANCH   3  19
ATOM     19  C   UNL     1       5.198   5.170  16.447  0.00  0.00    +0.000 C 
BRANCH  19  20
ATOM     20  C   UNL     1       6.214   5.982  17.250  0.00  0.00    +0.000 A 
ATOM     21  C   UNL     1       6.374   7.362  17.033  0.00  0.00    +0.000 A 
ATOM     22  C   UNL     1       7.395   8.073  17.663  0.00  0.00    +0.000 A 
ATOM     23  C   UNL     1       8.263   7.419  18.533  0.00  0.00    +0.000 A 
ATOM     24  C   UNL     1       8.099   6.059  18.786  0.00  0.00    +0.000 A 
ATOM     25  C   UNL     1       7.080   5.343  18.152  0.00  0.00    +0.000 A 
ENDBRANCH  19  20
BRANCH  19  26
ATOM     26  C   UNL     1       5.763   4.731  15.088  0.00  0.00    +0.000 A 
ATOM     27  C   UNL     1       4.959   3.981  14.213  0.00  0.00    +0.000 A 
ATOM     28  C   UNL     1       5.446   3.565  12.969  0.00  0.00    +0.000 A 
ATOM     29  C   UNL     1       6.741   3.897  12.577  0.00  0.00    +0.000 A 
ATOM     30  C   UNL     1       7.551   4.640  13.430  0.00  0.00    +0.000 A 
ATOM     31  C   UNL     1       7.065   5.054  14.672  0.00  0.00    +0.000 A 
ENDBRANCH  19  26
ENDBRANCH   3  19
TORSDOF 7
ENDMDL
