MODEL 1
REMARK VINA RESULT:      -7.8      0.000      0.000
REMARK  Name = 
REMARK  6 active torsions:
REMARK  status: ('A' for Active; 'I' for Inactive)
REMARK    1  A    between atoms: C_2  and  O_3
REMARK    2  A    between atoms: C_2  and  C_4
REMARK    3  A    between atoms: C_9  and  C_10
REMARK    4  A    between atoms: C_10  and  C_12
REMARK    5  A    between atoms: C_13  and  C_14
REMARK    6  A    between atoms: C_22  and  O_23
REMARK                            x       y       z     vdW  Elec       q    Type
REMARK                         _______ _______ _______ _____ _____    ______ ____
ROOT
ATOM      1  C   UNL     1       6.532   4.751  16.645  0.00  0.00    +0.000 A 
ATOM      2  C   UNL     1       7.506   5.226  17.530  0.00  0.00    +0.000 A 
ATOM      3  C   UNL     1       7.168   5.444  18.859  0.00  0.00    +0.000 A 
ATOM      4  F   UNL     1       8.101   5.907  19.699  0.00  0.00    +0.000 F 
ATOM      5  C   UNL     1       5.883   5.203  19.329  0.00  0.00    +0.000 A 
ATOM      6  C   UNL     1       4.893   4.735  18.454  0.00  0.00    +0.000 A 
ATOM      7  C   UNL     1       5.214   4.533  17.101  0.00  0.00    +0.000 A 
ENDROOT
BRANCH   1   9
ATOM      8  O   UNL     1       7.511   5.356  14.591  0.00  0.00    +0.000 OA
ATOM      9  C   UNL     1       6.847   4.541  15.213  0.00  0.00    +0.000 C 
BRANCH   9  10
ATOM     10  O   UNL     1       6.305   3.444  14.653  0.00  0.00    +0.000 OA
ATOM     11  H   UNL     1       5.723   2.903  15.218  0.00  0.00    +0.000 HD
ENDBRANCH   9  10
ENDBRANCH   1   9
BRANCH   6  12
ATOM     12  C   UNL     1       3.525   4.562  19.018  0.00  0.00    +0.000 C 
ATOM     13  O   UNL     1       2.913   3.518  18.812  0.00  0.00    +0.000 OA
BRANCH  12  14
ATOM     14  C   UNL     1       2.906   5.696  19.751  0.00  0.00    +0.000 C 
ATOM     15  C   UNL     1       2.442   6.759  19.077  0.00  0.00    +0.000 C 
BRANCH  15  16
ATOM     16  C   UNL     1       1.798   7.870  19.786  0.00  0.00    +0.000 A 
ATOM     17  C   UNL     1       1.433   7.673  21.127  0.00  0.00    +0.000 A 
ATOM     18  C   UNL     1       0.773   8.679  21.836  0.00  0.00    +0.000 A 
ATOM     19  C   UNL     1       0.474   9.887  21.209  0.00  0.00    +0.000 A 
ATOM     20 CL   UNL     1      -0.356  11.116  22.080  0.00  0.00    +0.000 Cl
ATOM     21  C   UNL     1       0.836  10.104  19.882  0.00  0.00    +0.000 A 
ATOM     22  C   UNL     1       1.496   9.098  19.172  0.00  0.00    +0.000 A 
ATOM     23 CL   UNL     1       1.921   9.422  17.526  0.00  0.00    +0.000 Cl
ENDBRANCH  15  16
ENDBRANCH  12  14
ENDBRANCH   6  12
BRANCH   7  24
ATOM     24  O   UNL     1       4.223   4.159  16.230  0.00  0.00    +0.000 OA
ATOM     25  H   UNL     1       3.620   3.511  16.664  0.00  0.00    +0.000 HD
ENDBRANCH   7  24
TORSDOF 6
ENDMDL
MODEL 2
REMARK VINA RESULT:      -7.6      3.262      4.355
REMARK  Name = 
REMARK  6 active torsions:
REMARK  status: ('A' for Active; 'I' for Inactive)
REMARK    1  A    between atoms: C_2  and  O_3
REMARK    2  A    between atoms: C_2  and  C_4
REMARK    3  A    between atoms: C_9  and  C_10
REMARK    4  A    between atoms: C_10  and  C_12
REMARK    5  A    between atoms: C_13  and  C_14
REMARK    6  A    between atoms: C_22  and  O_23
REMARK                            x       y       z     vdW  Elec       q    Type
REMARK                         _______ _______ _______ _____ _____    ______ ____
ROOT
ATOM      1  C   UNL     1       3.675   2.460  19.386  0.00  0.00    +0.000 A 
ATOM      2  C   UNL     1       2.343   2.083  19.188  0.00  0.00    +0.000 A 
ATOM      3  C   UNL     1       1.462   2.983  18.602  0.00  0.00    +0.000 A 
ATOM      4  F   UNL     1       0.186   2.620  18.424  0.00  0.00    +0.000 F 
ATOM      5  C   UNL     1       1.875   4.249  18.210  0.00  0.00    +0.000 A 
ATOM      6  C   UNL     1       3.204   4.646  18.410  0.00  0.00    +0.000 A 
ATOM      7  C   UNL     1       4.101   3.756  19.023  0.00  0.00    +0.000 A 
ENDROOT
BRANCH   1   9
ATOM      8  O   UNL     1       5.172   1.842  21.095  0.00  0.00    +0.000 OA
ATOM      9  C   UNL     1       4.634   1.540  20.041  0.00  0.00    +0.000 C 
BRANCH   9  10
ATOM     10  O   UNL     1       4.905   0.407  19.369  0.00  0.00    +0.000 OA
ATOM     11  H   UNL     1       4.229   0.096  18.738  0.00  0.00    +0.000 HD
ENDBRANCH   9  10
ENDBRANCH   1   9
BRANCH   6  12
ATOM     12  C   UNL     1       3.554   6.042  18.022  0.00  0.00    +0.000 C 
ATOM     13  O   UNL     1       4.712   6.314  17.718  0.00  0.00    +0.000 OA
BRANCH  12  14
ATOM     14  C   UNL     1       2.501   7.088  18.092  0.00  0.00    +0.000 C 
ATOM     15  C   UNL     1       2.303   7.767  19.232  0.00  0.00    +0.000 C 
BRANCH  15  16
ATOM     16  C   UNL     1       1.290   8.825  19.304  0.00  0.00    +0.000 A 
ATOM     17  C   UNL     1       0.811   9.362  18.099  0.00  0.00    +0.000 A 
ATOM     18  C   UNL     1      -0.117  10.405  18.109  0.00  0.00    +0.000 A 
ATOM     19  C   UNL     1      -0.572  10.918  19.323  0.00  0.00    +0.000 A 
ATOM     20 CL   UNL     1      -1.701  12.215  19.330  0.00  0.00    +0.000 Cl
ATOM     21  C   UNL     1      -0.116  10.391  20.528  0.00  0.00    +0.000 A 
ATOM     22  C   UNL     1       0.813   9.348  20.520  0.00  0.00    +0.000 A 
ATOM     23 CL   UNL     1       1.347   8.733  22.046  0.00  0.00    +0.000 Cl
ENDBRANCH  15  16
ENDBRANCH  12  14
ENDBRANCH   6  12
BRANCH   7  24
ATOM     24  O   UNL     1       5.377   4.177  19.295  0.00  0.00    +0.000 OA
ATOM     25  H   UNL     1       5.378   5.143  19.494  0.00  0.00    +0.000 HD
ENDBRANCH   7  24
TORSDOF 6
ENDMDL
MODEL 3
REMARK VINA RESULT:      -7.4      2.053      2.413
REMARK  Name = 
REMARK  6 active torsions:
REMARK  status: ('A' for Active; 'I' for Inactive)
REMARK    1  A    between atoms: C_2  and  O_3
REMARK    2  A    between atoms: C_2  and  C_4
REMARK    3  A    between atoms: C_9  and  C_10
REMARK    4  A    between atoms: C_10  and  C_12
REMARK    5  A    between atoms: C_13  and  C_14
REMARK    6  A    between atoms: C_22  and  O_23
REMARK                            x       y       z     vdW  Elec       q    Type
REMARK                         _______ _______ _______ _____ _____    ______ ____
ROOT
ATOM      1  C   UNL     1       6.323   5.344  17.932  0.00  0.00    +0.000 A 
ATOM      2  C   UNL     1       6.101   6.127  16.795  0.00  0.00    +0.000 A 
ATOM      3  C   UNL     1       4.817   6.578  16.521  0.00  0.00    +0.000 A 
ATOM      4  F   UNL     1       4.609   7.319  15.426  0.00  0.00    +0.000 F 
ATOM      5  C   UNL     1       3.747   6.267  17.350  0.00  0.00    +0.000 A 
ATOM      6  C   UNL     1       3.950   5.476  18.489  0.00  0.00    +0.000 A 
ATOM      7  C   UNL     1       5.240   4.992  18.766  0.00  0.00    +0.000 A 
ENDROOT
BRANCH   1   9
ATOM      8  O   UNL     1       8.234   5.099  19.286  0.00  0.00    +0.000 OA
ATOM      9  C   UNL     1       7.673   4.815  18.238  0.00  0.00    +0.000 C 
BRANCH   9  10
ATOM     10  O   UNL     1       8.240   4.072  17.271  0.00  0.00    +0.000 OA
ATOM     11  H   UNL     1       8.040   3.118  17.274  0.00  0.00    +0.000 HD
ENDBRANCH   9  10
ENDBRANCH   1   9
BRANCH   6  12
ATOM     12  C   UNL     1       2.743   5.132  19.292  0.00  0.00    +0.000 C 
ATOM     13  O   UNL     1       2.287   3.994  19.243  0.00  0.00    +0.000 OA
BRANCH  12  14
ATOM     14  C   UNL     1       2.075   6.206  20.072  0.00  0.00    +0.000 C 
ATOM     15  C   UNL     1       2.070   7.467  19.613  0.00  0.00    +0.000 C 
BRANCH  15  16
ATOM     16  C   UNL     1       1.385   8.529  20.357  0.00  0.00    +0.000 A 
ATOM     17  C   UNL     1       1.183   8.345  21.733  0.00  0.00    +0.000 A 
ATOM     18  C   UNL     1       0.493   9.302  22.481  0.00  0.00    +0.000 A 
ATOM     19  C   UNL     1       0.001  10.447  21.858  0.00  0.00    +0.000 A 
ATOM     20 CL   UNL     1      -0.864  11.613  22.780  0.00  0.00    +0.000 Cl
ATOM     21  C   UNL     1       0.201  10.652  20.496  0.00  0.00    +0.000 A 
ATOM     22  C   UNL     1       0.890   9.695  19.746  0.00  0.00    +0.000 A 
ATOM     23 CL   UNL     1       1.107  10.000  18.057  0.00  0.00    +0.000 Cl
ENDBRANCH  15  16
ENDBRANCH  12  14
ENDBRANCH   6  12
BRANCH   7  24
ATOM     24  O   UNL     1       5.419   4.148  19.832  0.00  0.00    +0.000 OA
ATOM     25  H   UNL     1       4.564   4.015  20.305  0.00  0.00    +0.000 HD
ENDBRANCH   7  24
TORSDOF 6
ENDMDL
MODEL 4
REMARK VINA RESULT:      -7.3      1.222      1.812
REMARK  Name = 
REMARK  6 active torsions:
REMARK  status: ('A' for Active; 'I' for Inactive)
REMARK    1  A    between atoms: C_2  and  O_3
REMARK    2  A    between atoms: C_2  and  C_4
REMARK    3  A    between atoms: C_9  and  C_10
REMARK    4  A    between atoms: C_10  and  C_12
REMARK    5  A    between atoms: C_13  and  C_14
REMARK    6  A    between atoms: C_22  and  O_23
REMARK                            x       y       z     vdW  Elec       q    Type
REMARK                         _______ _______ _______ _____ _____    ______ ____
ROOT
ATOM      1  C   UNL     1       6.547   4.731  16.615  0.00  0.00    +0.000 A 
ATOM      2  C   UNL     1       7.512   5.107  17.555  0.00  0.00    +0.000 A 
ATOM      3  C   UNL     1       7.125   5.340  18.869  0.00  0.00    +0.000 A 
ATOM      4  F   UNL     1       8.050   5.710  19.762  0.00  0.00    +0.000 F 
ATOM      5  C   UNL     1       5.802   5.208  19.269  0.00  0.00    +0.000 A 
ATOM      6  C   UNL     1       4.821   4.840  18.337  0.00  0.00    +0.000 A 
ATOM      7  C   UNL     1       5.193   4.625  16.999  0.00  0.00    +0.000 A 
ENDROOT
BRANCH   1   9
ATOM      8  O   UNL     1       7.619   5.310  14.601  0.00  0.00    +0.000 OA
ATOM      9  C   UNL     1       6.916   4.509  15.197  0.00  0.00    +0.000 C 
BRANCH   9  10
ATOM     10  O   UNL     1       6.379   3.420  14.620  0.00  0.00    +0.000 OA
ATOM     11  H   UNL     1       5.435   3.248  14.795  0.00  0.00    +0.000 HD
ENDBRANCH   9  10
ENDBRANCH   1   9
BRANCH   6  12
ATOM     12  C   UNL     1       3.416   4.782  18.828  0.00  0.00    +0.000 C 
ATOM     13  O   UNL     1       2.989   3.741  19.320  0.00  0.00    +0.000 OA
BRANCH  12  14
ATOM     14  C   UNL     1       2.542   5.968  18.635  0.00  0.00    +0.000 C 
ATOM     15  C   UNL     1       2.643   7.020  19.462  0.00  0.00    +0.000 C 
BRANCH  15  16
ATOM     16  C   UNL     1       1.809   8.210  19.261  0.00  0.00    +0.000 A 
ATOM     17  C   UNL     1       1.722   8.742  17.966  0.00  0.00    +0.000 A 
ATOM     18  C   UNL     1       0.982   9.902  17.726  0.00  0.00    +0.000 A 
ATOM     19  C   UNL     1       0.326  10.537  18.779  0.00  0.00    +0.000 A 
ATOM     20 CL   UNL     1      -0.567  11.976  18.483  0.00  0.00    +0.000 Cl
ATOM     21  C   UNL     1       0.394  10.019  20.070  0.00  0.00    +0.000 A 
ATOM     22  C   UNL     1       1.134   8.858  20.311  0.00  0.00    +0.000 A 
ATOM     23 CL   UNL     1       1.185   8.259  21.933  0.00  0.00    +0.000 Cl
ENDBRANCH  15  16
ENDBRANCH  12  14
ENDBRANCH   6  12
BRANCH   7  24
ATOM     24  O   UNL     1       4.220   4.349  16.073  0.00  0.00    +0.000 OA
ATOM     25  H   UNL     1       3.395   4.057  16.528  0.00  0.00    +0.000 HD
ENDBRANCH   7  24
TORSDOF 6
ENDMDL
MODEL 5
REMARK VINA RESULT:      -7.2      2.956      3.968
REMARK  Name = 
REMARK  6 active torsions:
REMARK  status: ('A' for Active; 'I' for Inactive)
REMARK    1  A    between atoms: C_2  and  O_3
REMARK    2  A    between atoms: C_2  and  C_4
REMARK    3  A    between atoms: C_9  and  C_10
REMARK    4  A    between atoms: C_10  and  C_12
REMARK    5  A    between atoms: C_13  and  C_14
REMARK    6  A    between atoms: C_22  and  O_23
REMARK                            x       y       z     vdW  Elec       q    Type
REMARK                         _______ _______ _______ _____ _____    ______ ____
ROOT
ATOM      1  C   UNL     1       3.617   2.392  19.206  0.00  0.00    +0.000 A 
ATOM      2  C   UNL     1       2.272   2.031  19.077  0.00  0.00    +0.000 A 
ATOM      3  C   UNL     1       1.376   2.937  18.525  0.00  0.00    +0.000 A 
ATOM      4  F   UNL     1       0.088   2.590  18.413  0.00  0.00    +0.000 F 
ATOM      5  C   UNL     1       1.785   4.193  18.098  0.00  0.00    +0.000 A 
ATOM      6  C   UNL     1       3.128   4.573  18.228  0.00  0.00    +0.000 A 
ATOM      7  C   UNL     1       4.042   3.677  18.808  0.00  0.00    +0.000 A 
ENDROOT
BRANCH   1   9
ATOM      8  O   UNL     1       5.199   1.778  20.838  0.00  0.00    +0.000 OA
ATOM      9  C   UNL     1       4.595   1.465  19.824  0.00  0.00    +0.000 C 
BRANCH   9  10
ATOM     10  O   UNL     1       4.804   0.314  19.162  0.00  0.00    +0.000 OA
ATOM     11  H   UNL     1       5.205   0.381  18.275  0.00  0.00    +0.000 HD
ENDBRANCH   9  10
ENDBRANCH   1   9
BRANCH   6  12
ATOM     12  C   UNL     1       3.477   5.959  17.807  0.00  0.00    +0.000 C 
ATOM     13  O   UNL     1       4.439   6.143  17.067  0.00  0.00    +0.000 OA
BRANCH  12  14
ATOM     14  C   UNL     1       2.695   7.094  18.363  0.00  0.00    +0.000 C 
ATOM     15  C   UNL     1       2.343   7.097  19.657  0.00  0.00    +0.000 C 
BRANCH  15  16
ATOM     16  C   UNL     1       1.599   8.226  20.226  0.00  0.00    +0.000 A 
ATOM     17  C   UNL     1       1.278   8.184  21.591  0.00  0.00    +0.000 A 
ATOM     18  C   UNL     1       0.529   9.208  22.174  0.00  0.00    +0.000 A 
ATOM     19  C   UNL     1       0.096  10.280  21.396  0.00  0.00    +0.000 A 
ATOM     20 CL   UNL     1      -0.842  11.530  22.114  0.00  0.00    +0.000 Cl
ATOM     21  C   UNL     1       0.412  10.344  20.042  0.00  0.00    +0.000 A 
ATOM     22  C   UNL     1       1.162   9.320  19.457  0.00  0.00    +0.000 A 
ATOM     23 CL   UNL     1       1.525   9.450  17.771  0.00  0.00    +0.000 Cl
ENDBRANCH  15  16
ENDBRANCH  12  14
ENDBRANCH   6  12
BRANCH   7  24
ATOM     24  O   UNL     1       5.336   4.084  19.012  0.00  0.00    +0.000 OA
ATOM     25  H   UNL     1       5.715   3.620  19.795  0.00  0.00    +0.000 HD
ENDBRANCH   7  24
TORSDOF 6
ENDMDL
MODEL 6
REMARK VINA RESULT:      -7.1      2.434      3.231
REMARK  Name = 
REMARK  6 active torsions:
REMARK  status: ('A' for Active; 'I' for Inactive)
REMARK    1  A    between atoms: C_2  and  O_3
REMARK    2  A    between atoms: C_2  and  C_4
REMARK    3  A    between atoms: C_9  and  C_10
REMARK    4  A    between atoms: C_10  and  C_12
REMARK    5  A    between atoms: C_13  and  C_14
REMARK    6  A    between atoms: C_22  and  O_23
REMARK                            x       y       z     vdW  Elec       q    Type
REMARK                         _______ _______ _______ _____ _____    ______ ____
ROOT
ATOM      1  C   UNL     1       6.405   5.555  17.699  0.00  0.00    +0.000 A 
ATOM      2  C   UNL     1       6.189   6.068  16.416  0.00  0.00    +0.000 A 
ATOM      3  C   UNL     1       4.973   6.670  16.122  0.00  0.00    +0.000 A 
ATOM      4  F   UNL     1       4.767   7.151  14.890  0.00  0.00    +0.000 F 
ATOM      5  C   UNL     1       3.966   6.773  17.073  0.00  0.00    +0.000 A 
ATOM      6  C   UNL     1       4.164   6.256  18.361  0.00  0.00    +0.000 A 
ATOM      7  C   UNL     1       5.380   5.622  18.666  0.00  0.00    +0.000 A 
ENDROOT
BRANCH   1   9
ATOM      8  O   UNL     1       8.203   4.101  17.252  0.00  0.00    +0.000 OA
ATOM      9  C   UNL     1       7.677   4.874  18.038  0.00  0.00    +0.000 C 
BRANCH   9  10
ATOM     10  O   UNL     1       8.157   5.118  19.270  0.00  0.00    +0.000 OA
ATOM     11  H   UNL     1       8.217   6.053  19.543  0.00  0.00    +0.000 HD
ENDBRANCH   9  10
ENDBRANCH   1   9
BRANCH   6  12
ATOM     12  C   UNL     1       3.015   6.348  19.305  0.00  0.00    +0.000 C 
ATOM     13  O   UNL     1       2.801   5.428  20.090  0.00  0.00    +0.000 OA
BRANCH  12  14
ATOM     14  C   UNL     1       2.107   7.521  19.215  0.00  0.00    +0.000 C 
ATOM     15  C   UNL     1       1.656   8.109  20.333  0.00  0.00    +0.000 C 
BRANCH  15  16
ATOM     16  C   UNL     1       0.787   9.288  20.257  0.00  0.00    +0.000 A 
ATOM     17  C   UNL     1       0.533   9.839  18.992  0.00  0.00    +0.000 A 
ATOM     18  C   UNL     1      -0.247  10.991  18.865  0.00  0.00    +0.000 A 
ATOM     19  C   UNL     1      -0.778  11.597  20.002  0.00  0.00    +0.000 A 
ATOM     20 CL   UNL     1      -1.723  13.025  19.843  0.00  0.00    +0.000 Cl
ATOM     21  C   UNL     1      -0.545  11.060  21.265  0.00  0.00    +0.000 A 
ATOM     22  C   UNL     1       0.236   9.908  21.393  0.00  0.00    +0.000 A 
ATOM     23 CL   UNL     1       0.495   9.284  22.986  0.00  0.00    +0.000 Cl
ENDBRANCH  15  16
ENDBRANCH  12  14
ENDBRANCH   6  12
BRANCH   7  24
ATOM     24  O   UNL     1       5.538   5.042  19.899  0.00  0.00    +0.000 OA
ATOM     25  H   UNL     1       4.742   4.505  20.123  0.00  0.00    +0.000 HD
ENDBRANCH   7  24
TORSDOF 6
ENDMDL
MODEL 7
REMARK VINA RESULT:      -7.1      4.642      6.416
REMARK  Name = 
REMARK  6 active torsions:
REMARK  status: ('A' for Active; 'I' for Inactive)
REMARK    1  A    between atoms: C_2  and  O_3
REMARK    2  A    between atoms: C_2  and  C_4
REMARK    3  A    between atoms: C_9  and  C_10
REMARK    4  A    between atoms: C_10  and  C_12
REMARK    5  A    between atoms: C_13  and  C_14
REMARK    6  A    between atoms: C_22  and  O_23
REMARK                            x       y       z     vdW  Elec       q    Type
REMARK                         _______ _______ _______ _____ _____    ______ ____
ROOT
ATOM      1  C   UNL     1       4.265   4.929  18.477  0.00  0.00    +0.000 A 
ATOM      2  C   UNL     1       3.223   5.844  18.297  0.00  0.00    +0.000 A 
ATOM      3  C   UNL     1       3.499   7.090  17.750  0.00  0.00    +0.000 A 
ATOM      4  F   UNL     1       2.500   7.965  17.590  0.00  0.00    +0.000 F 
ATOM      5  C   UNL     1       4.788   7.448  17.378  0.00  0.00    +0.000 A 
ATOM      6  C   UNL     1       5.846   6.546  17.559  0.00  0.00    +0.000 A 
ATOM      7  C   UNL     1       5.586   5.291  18.134  0.00  0.00    +0.000 A 
ENDROOT
BRANCH   1   9
ATOM      8  O   UNL     1       3.458   3.511  20.174  0.00  0.00    +0.000 OA
ATOM      9  C   UNL     1       4.014   3.604  19.090  0.00  0.00    +0.000 C 
BRANCH   9  10
ATOM     10  O   UNL     1       4.490   2.547  18.408  0.00  0.00    +0.000 OA
ATOM     11  H   UNL     1       5.113   2.736  17.682  0.00  0.00    +0.000 HD
ENDBRANCH   9  10
ENDBRANCH   1   9
BRANCH   6  12
ATOM     12  C   UNL     1       7.209   7.027  17.195  0.00  0.00    +0.000 C 
ATOM     13  O   UNL     1       7.798   6.515  16.248  0.00  0.00    +0.000 OA
BRANCH  12  14
ATOM     14  C   UNL     1       7.851   8.063  18.044  0.00  0.00    +0.000 C 
ATOM     15  C   UNL     1       8.054   9.297  17.561  0.00  0.00    +0.000 C 
BRANCH  15  16
ATOM     16  C   UNL     1       8.657  10.338  18.400  0.00  0.00    +0.000 A 
ATOM     17  C   UNL     1       9.403   9.934  19.517  0.00  0.00    +0.000 A 
ATOM     18  C   UNL     1       9.958  10.882  20.379  0.00  0.00    +0.000 A 
ATOM     19  C   UNL     1       9.770  12.241  20.129  0.00  0.00    +0.000 A 
ATOM     20 CL   UNL     1      10.439  13.405  21.203  0.00  0.00    +0.000 Cl
ATOM     21  C   UNL     1       9.040  12.661  19.021  0.00  0.00    +0.000 A 
ATOM     22  C   UNL     1       8.484  11.713  18.158  0.00  0.00    +0.000 A 
ATOM     23 CL   UNL     1       7.586  12.292  16.797  0.00  0.00    +0.000 Cl
ENDBRANCH  15  16
ENDBRANCH  12  14
ENDBRANCH   6  12
BRANCH   7  24
ATOM     24  O   UNL     1       6.634   4.444  18.389  0.00  0.00    +0.000 OA
ATOM     25  H   UNL     1       6.541   3.621  17.854  0.00  0.00    +0.000 HD
ENDBRANCH   7  24
TORSDOF 6
ENDMDL
MODEL 8
REMARK VINA RESULT:      -7.1      2.971      4.307
REMARK  Name = 
REMARK  6 active torsions:
REMARK  status: ('A' for Active; 'I' for Inactive)
REMARK    1  A    between atoms: C_2  and  O_3
REMARK    2  A    between atoms: C_2  and  C_4
REMARK    3  A    between atoms: C_9  and  C_10
REMARK    4  A    between atoms: C_10  and  C_12
REMARK    5  A    between atoms: C_13  and  C_14
REMARK    6  A    between atoms: C_22  and  O_23
REMARK                            x       y       z     vdW  Elec       q    Type
REMARK                         _______ _______ _______ _____ _____    ______ ____
ROOT
ATOM      1  C   UNL     1       3.983   2.473  20.222  0.00  0.00    +0.000 A 
ATOM      2  C   UNL     1       2.741   2.572  20.857  0.00  0.00    +0.000 A 
ATOM      3  C   UNL     1       1.884   3.610  20.515  0.00  0.00    +0.000 A 
ATOM      4  F   UNL     1       0.701   3.706  21.134  0.00  0.00    +0.000 F 
ATOM      5  C   UNL     1       2.234   4.553  19.558  0.00  0.00    +0.000 A 
ATOM      6  C   UNL     1       3.478   4.473  18.918  0.00  0.00    +0.000 A 
ATOM      7  C   UNL     1       4.366   3.443  19.270  0.00  0.00    +0.000 A 
ENDROOT
BRANCH   1   9
ATOM      8  O   UNL     1       5.541   1.432  21.647  0.00  0.00    +0.000 OA
ATOM      9  C   UNL     1       4.938   1.400  20.585  0.00  0.00    +0.000 C 
BRANCH   9  10
ATOM     10  O   UNL     1       5.130   0.451  19.653  0.00  0.00    +0.000 OA
ATOM     11  H   UNL     1       5.696   0.685  18.894  0.00  0.00    +0.000 HD
ENDBRANCH   9  10
ENDBRANCH   1   9
BRANCH   6  12
ATOM     12  C   UNL     1       3.806   5.557  17.949  0.00  0.00    +0.000 C 
ATOM     13  O   UNL     1       4.428   5.287  16.926  0.00  0.00    +0.000 OA
BRANCH  12  14
ATOM     14  C   UNL     1       3.440   6.956  18.292  0.00  0.00    +0.000 C 
ATOM     15  C   UNL     1       2.149   7.311  18.377  0.00  0.00    +0.000 C 
BRANCH  15  16
ATOM     16  C   UNL     1       1.774   8.680  18.747  0.00  0.00    +0.000 A 
ATOM     17  C   UNL     1       2.037   9.706  17.827  0.00  0.00    +0.000 A 
ATOM     18  C   UNL     1       1.746  11.035  18.146  0.00  0.00    +0.000 A 
ATOM     19  C   UNL     1       1.192  11.344  19.387  0.00  0.00    +0.000 A 
ATOM     20 CL   UNL     1       0.853  12.983  19.783  0.00  0.00    +0.000 Cl
ATOM     21  C   UNL     1       0.916  10.339  20.309  0.00  0.00    +0.000 A 
ATOM     22  C   UNL     1       1.207   9.009  19.991  0.00  0.00    +0.000 A 
ATOM     23 CL   UNL     1       0.844   7.801  21.175  0.00  0.00    +0.000 Cl
ENDBRANCH  15  16
ENDBRANCH  12  14
ENDBRANCH   6  12
BRANCH   7  24
ATOM     24  O   UNL     1       5.616   3.418  18.705  0.00  0.00    +0.000 OA
ATOM     25  H   UNL     1       5.890   4.330  18.452  0.00  0.00    +0.000 HD
ENDBRANCH   7  24
TORSDOF 6
ENDMDL
MODEL 9
REMARK VINA RESULT:      -7.1      4.971      8.353
REMARK  Name = 
REMARK  6 active torsions:
REMARK  status: ('A' for Active; 'I' for Inactive)
REMARK    1  A    between atoms: C_2  and  O_3
REMARK    2  A    between atoms: C_2  and  C_4
REMARK    3  A    between atoms: C_9  and  C_10
REMARK    4  A    between atoms: C_10  and  C_12
REMARK    5  A    between atoms: C_13  and  C_14
REMARK    6  A    between atoms: C_22  and  O_23
REMARK                            x       y       z     vdW  Elec       q    Type
REMARK                         _______ _______ _______ _____ _____    ______ ____
ROOT
ATOM      1  C   UNL     1      -0.937  11.454  20.165  0.00  0.00    +0.000 A 
ATOM      2  C   UNL     1      -0.810  10.879  21.433  0.00  0.00    +0.000 A 
ATOM      3  C   UNL     1       0.129   9.874  21.632  0.00  0.00    +0.000 A 
ATOM      4  F   UNL     1       0.239   9.319  22.845  0.00  0.00    +0.000 F 
ATOM      5  C   UNL     1       0.942   9.428  20.599  0.00  0.00    +0.000 A 
ATOM      6  C   UNL     1       0.822   9.989  19.320  0.00  0.00    +0.000 A 
ATOM      7  C   UNL     1      -0.140  10.989  19.097  0.00  0.00    +0.000 A 
ENDROOT
BRANCH   1   9
ATOM      8  O   UNL     1      -2.036  13.484  20.630  0.00  0.00    +0.000 OA
ATOM      9  C   UNL     1      -1.951  12.503  19.907  0.00  0.00    +0.000 C 
BRANCH   9  10
ATOM     10  O   UNL     1      -2.787  12.264  18.881  0.00  0.00    +0.000 OA
ATOM     11  H   UNL     1      -2.465  12.488  17.988  0.00  0.00    +0.000 HD
ENDBRANCH   9  10
ENDBRANCH   1   9
BRANCH   6  12
ATOM     12  C   UNL     1       1.684   9.413  18.250  0.00  0.00    +0.000 C 
ATOM     13  O   UNL     1       2.207  10.159  17.427  0.00  0.00    +0.000 OA
BRANCH  12  14
ATOM     14  C   UNL     1       1.823   7.937  18.161  0.00  0.00    +0.000 C 
ATOM     15  C   UNL     1       3.036   7.384  18.008  0.00  0.00    +0.000 C 
BRANCH  15  16
ATOM     16  C   UNL     1       3.190   5.926  17.952  0.00  0.00    +0.000 A 
ATOM     17  C   UNL     1       2.363   5.144  18.773  0.00  0.00    +0.000 A 
ATOM     18  C   UNL     1       2.500   3.755  18.797  0.00  0.00    +0.000 A 
ATOM     19  C   UNL     1       3.464   3.139  18.002  0.00  0.00    +0.000 A 
ATOM     20 CL   UNL     1       3.642   1.429  18.049  0.00  0.00    +0.000 Cl
ATOM     21  C   UNL     1       4.288   3.897  17.175  0.00  0.00    +0.000 A 
ATOM     22  C   UNL     1       4.152   5.288  17.150  0.00  0.00    +0.000 A 
ATOM     23 CL   UNL     1       5.203   6.180  16.105  0.00  0.00    +0.000 Cl
ENDBRANCH  15  16
ENDBRANCH  12  14
ENDBRANCH   6  12
BRANCH   7  24
ATOM     24  O   UNL     1      -0.315  11.474  17.827  0.00  0.00    +0.000 OA
ATOM     25  H   UNL     1      -1.070  12.108  17.809  0.00  0.00    +0.000 HD
ENDBRANCH   7  24
TORSDOF 6
ENDMDL
