MODEL 1
REMARK VINA RESULT:      -7.9      0.000      0.000
REMARK  Name = 
REMARK  6 active torsions:
REMARK  status: ('A' for Active; 'I' for Inactive)
REMARK    1  A    between atoms: C_1  and  O_2
REMARK    2  A    between atoms: O_2  and  C_3
REMARK    3  A    between atoms: C_6  and  C_7
REMARK    4  A    between atoms: C_8  and  N_9
REMARK    5  A    between atoms: C_8  and  C_18
REMARK    6  A    between atoms: C_10  and  C_12
REMARK                            x       y       z     vdW  Elec       q    Type
REMARK                         _______ _______ _______ _____ _____    ______ ____
ROOT
ATOM      1  C   UNL     1       3.892   7.047  18.628  0.00  0.00    +0.000 C 
ATOM      2  C   UNL     1       2.714   6.624  19.123  0.00  0.00    +0.000 C 
ENDROOT
BRANCH   2   3
ATOM      3  C   UNL     1       2.110   5.274  18.762  0.00  0.00    +0.000 C 
ATOM      4  O   UNL     1       1.660   5.041  17.644  0.00  0.00    +0.000 OA
ATOM      5  N   UNL     1       1.964   4.371  19.814  0.00  0.00    +0.000 N 
ATOM      6  C   UNL     1       1.193   3.161  19.615  0.00  0.00    +0.000 C 
ATOM      7  C   UNL     1       1.028   2.628  21.025  0.00  0.00    +0.000 C 
ATOM      8  C   UNL     1       2.369   2.948  21.678  0.00  0.00    +0.000 C 
ATOM      9  C   UNL     1       2.903   4.163  20.915  0.00  0.00    +0.000 C 
ENDBRANCH   2   3
BRANCH   1  13
ATOM     10  C   UNL     1       6.699   5.164  16.011  0.00  0.00    +0.000 A 
ATOM     11  C   UNL     1       5.631   5.899  15.492  0.00  0.00    +0.000 A 
ATOM     12  C   UNL     1       4.700   6.500  16.343  0.00  0.00    +0.000 A 
ATOM     13  C   UNL     1       4.818   6.354  17.729  0.00  0.00    +0.000 A 
ATOM     14  C   UNL     1       5.883   5.614  18.249  0.00  0.00    +0.000 A 
ATOM     15  C   UNL     1       6.819   5.018  17.393  0.00  0.00    +0.000 A 
BRANCH  10  17
ATOM     16  C   UNL     1       7.141   4.766  13.716  0.00  0.00    +0.000 C 
ATOM     17  O   UNL     1       7.538   4.627  15.073  0.00  0.00    +0.000 OA
ENDBRANCH  10  17
ENDBRANCH   1  13
BRANCH   2  18
ATOM     18  N   UNL     1       1.910   7.438  19.917  0.00  0.00    +0.000 N 
ATOM     19  C   UNL     1       1.357   8.655  19.560  0.00  0.00    +0.000 C 
ATOM     20  O   UNL     1       1.493   9.208  18.476  0.00  0.00    +0.000 OA
ATOM     21  H   UNL     1       1.932   7.199  20.901  0.00  0.00    +0.000 HD
BRANCH  19  22
ATOM     22  C   UNL     1       0.646   9.383  20.650  0.00  0.00    +0.000 A 
ATOM     23  C   UNL     1       0.689   8.836  21.941  0.00  0.00    +0.000 A 
ATOM     24  C   UNL     1       0.047   9.479  22.998  0.00  0.00    +0.000 A 
ATOM     25  C   UNL     1      -0.639  10.672  22.773  0.00  0.00    +0.000 A 
ATOM     26  C   UNL     1      -0.677  11.225  21.494  0.00  0.00    +0.000 A 
ATOM     27  C   UNL     1      -0.038  10.585  20.429  0.00  0.00    +0.000 A 
ENDBRANCH  19  22
ENDBRANCH   2  18
TORSDOF 5
ENDMDL
MODEL 2
REMARK VINA RESULT:      -7.8      0.786      1.139
REMARK  Name = 
REMARK  6 active torsions:
REMARK  status: ('A' for Active; 'I' for Inactive)
REMARK    1  A    between atoms: C_1  and  O_2
REMARK    2  A    between atoms: O_2  and  C_3
REMARK    3  A    between atoms: C_6  and  C_7
REMARK    4  A    between atoms: C_8  and  N_9
REMARK    5  A    between atoms: C_8  and  C_18
REMARK    6  A    between atoms: C_10  and  C_12
REMARK                            x       y       z     vdW  Elec       q    Type
REMARK                         _______ _______ _______ _____ _____    ______ ____
ROOT
ATOM      1  C   UNL     1       3.723   6.803  18.104  0.00  0.00    +0.000 C 
ATOM      2  C   UNL     1       2.606   6.433  18.757  0.00  0.00    +0.000 C 
ENDROOT
BRANCH   2   3
ATOM      3  C   UNL     1       1.950   5.074  18.555  0.00  0.00    +0.000 C 
ATOM      4  O   UNL     1       1.366   4.782  17.516  0.00  0.00    +0.000 OA
ATOM      5  N   UNL     1       1.924   4.238  19.670  0.00  0.00    +0.000 N 
ATOM      6  C   UNL     1       1.123   3.030  19.640  0.00  0.00    +0.000 C 
ATOM      7  C   UNL     1       1.125   2.586  21.089  0.00  0.00    +0.000 C 
ATOM      8  C   UNL     1       2.537   2.922  21.556  0.00  0.00    +0.000 C 
ATOM      9  C   UNL     1       2.986   4.080  20.662  0.00  0.00    +0.000 C 
ENDBRANCH   2   3
BRANCH   1  13
ATOM     10  C   UNL     1       5.928   4.527  15.235  0.00  0.00    +0.000 A 
ATOM     11  C   UNL     1       5.554   3.957  16.453  0.00  0.00    +0.000 A 
ATOM     12  C   UNL     1       4.850   4.703  17.402  0.00  0.00    +0.000 A 
ATOM     13  C   UNL     1       4.529   6.040  17.148  0.00  0.00    +0.000 A 
ATOM     14  C   UNL     1       4.907   6.614  15.931  0.00  0.00    +0.000 A 
ATOM     15  C   UNL     1       5.608   5.861  14.978  0.00  0.00    +0.000 A 
BRANCH  10  17
ATOM     16  C   UNL     1       6.178   3.662  13.041  0.00  0.00    +0.000 C 
ATOM     17  O   UNL     1       6.612   3.692  14.394  0.00  0.00    +0.000 OA
ENDBRANCH  10  17
ENDBRANCH   1  13
BRANCH   2  18
ATOM     18  N   UNL     1       1.909   7.308  19.586  0.00  0.00    +0.000 N 
ATOM     19  C   UNL     1       1.461   8.575  19.261  0.00  0.00    +0.000 C 
ATOM     20  O   UNL     1       1.613   9.127  18.178  0.00  0.00    +0.000 OA
ATOM     21  H   UNL     1       1.941   7.054  20.567  0.00  0.00    +0.000 HD
BRANCH  19  22
ATOM     22  C   UNL     1       0.858   9.353  20.381  0.00  0.00    +0.000 A 
ATOM     23  C   UNL     1       0.811   8.749  21.647  0.00  0.00    +0.000 A 
ATOM     24  C   UNL     1       0.263   9.434  22.732  0.00  0.00    +0.000 A 
ATOM     25  C   UNL     1      -0.236  10.723  22.559  0.00  0.00    +0.000 A 
ATOM     26  C   UNL     1      -0.183  11.332  21.306  0.00  0.00    +0.000 A 
ATOM     27  C   UNL     1       0.361  10.651  20.214  0.00  0.00    +0.000 A 
ENDBRANCH  19  22
ENDBRANCH   2  18
TORSDOF 5
ENDMDL
MODEL 3
REMARK VINA RESULT:      -7.8      0.432      1.387
REMARK  Name = 
REMARK  6 active torsions:
REMARK  status: ('A' for Active; 'I' for Inactive)
REMARK    1  A    between atoms: C_1  and  O_2
REMARK    2  A    between atoms: O_2  and  C_3
REMARK    3  A    between atoms: C_6  and  C_7
REMARK    4  A    between atoms: C_8  and  N_9
REMARK    5  A    between atoms: C_8  and  C_18
REMARK    6  A    between atoms: C_10  and  C_12
REMARK                            x       y       z     vdW  Elec       q    Type
REMARK                         _______ _______ _______ _____ _____    ______ ____
ROOT
ATOM      1  C   UNL     1       3.790   6.960  18.435  0.00  0.00    +0.000 C 
ATOM      2  C   UNL     1       2.645   6.541  19.005  0.00  0.00    +0.000 C 
ENDROOT
BRANCH   2   3
ATOM      3  C   UNL     1       2.012   5.195  18.682  0.00  0.00    +0.000 C 
ATOM      4  O   UNL     1       1.488   4.967  17.595  0.00  0.00    +0.000 OA
ATOM      5  N   UNL     1       1.931   4.289  19.738  0.00  0.00    +0.000 N 
ATOM      6  C   UNL     1       1.143   3.083  19.587  0.00  0.00    +0.000 C 
ATOM      7  C   UNL     1       1.069   2.547  21.003  0.00  0.00    +0.000 C 
ATOM      8  C   UNL     1       2.451   2.859  21.567  0.00  0.00    +0.000 C 
ATOM      9  C   UNL     1       2.939   4.074  20.775  0.00  0.00    +0.000 C 
ENDBRANCH   2   3
BRANCH   1  13
ATOM     10  C   UNL     1       6.164   4.833  15.586  0.00  0.00    +0.000 A 
ATOM     11  C   UNL     1       6.131   4.428  16.921  0.00  0.00    +0.000 A 
ATOM     12  C   UNL     1       5.372   5.132  17.860  0.00  0.00    +0.000 A 
ATOM     13  C   UNL     1       4.651   6.265  17.474  0.00  0.00    +0.000 A 
ATOM     14  C   UNL     1       4.687   6.675  16.139  0.00  0.00    +0.000 A 
ATOM     15  C   UNL     1       5.444   5.964  15.197  0.00  0.00    +0.000 A 
BRANCH  10  17
ATOM     16  C   UNL     1       6.514   3.933  13.420  0.00  0.00    +0.000 C 
ATOM     17  O   UNL     1       6.944   4.061  14.769  0.00  0.00    +0.000 OA
ENDBRANCH  10  17
ENDBRANCH   1  13
BRANCH   2  18
ATOM     18  N   UNL     1       1.900   7.356  19.853  0.00  0.00    +0.000 N 
ATOM     19  C   UNL     1       1.385   8.605  19.557  0.00  0.00    +0.000 C 
ATOM     20  O   UNL     1       1.511   9.193  18.490  0.00  0.00    +0.000 OA
ATOM     21  H   UNL     1       1.942   7.080  20.827  0.00  0.00    +0.000 HD
BRANCH  19  22
ATOM     22  C   UNL     1       0.738   9.321  20.695  0.00  0.00    +0.000 A 
ATOM     23  C   UNL     1       0.023  10.494  20.410  0.00  0.00    +0.000 A 
ATOM     24  C   UNL     1      -0.607  11.199  21.434  0.00  0.00    +0.000 A 
ATOM     25  C   UNL     1      -0.531  10.735  22.746  0.00  0.00    +0.000 A 
ATOM     26  C   UNL     1       0.169   9.564  23.034  0.00  0.00    +0.000 A 
ATOM     27  C   UNL     1       0.806   8.854  22.013  0.00  0.00    +0.000 A 
ENDBRANCH  19  22
ENDBRANCH   2  18
TORSDOF 5
ENDMDL
MODEL 4
REMARK VINA RESULT:      -7.8      1.870      7.640
REMARK  Name = 
REMARK  6 active torsions:
REMARK  status: ('A' for Active; 'I' for Inactive)
REMARK    1  A    between atoms: C_1  and  O_2
REMARK    2  A    between atoms: O_2  and  C_3
REMARK    3  A    between atoms: C_6  and  C_7
REMARK    4  A    between atoms: C_8  and  N_9
REMARK    5  A    between atoms: C_8  and  C_18
REMARK    6  A    between atoms: C_10  and  C_12
REMARK                            x       y       z     vdW  Elec       q    Type
REMARK                         _______ _______ _______ _____ _____    ______ ____
ROOT
ATOM      1  C   UNL     1       3.211   7.103  17.354  0.00  0.00    +0.000 C 
ATOM      2  C   UNL     1       3.795   5.892  17.406  0.00  0.00    +0.000 C 
ENDROOT
BRANCH   2   3
ATOM      3  C   UNL     1       3.832   5.052  18.676  0.00  0.00    +0.000 C 
ATOM      4  O   UNL     1       4.694   5.210  19.535  0.00  0.00    +0.000 OA
ATOM      5  N   UNL     1       2.921   3.998  18.736  0.00  0.00    +0.000 N 
ATOM      6  C   UNL     1       3.038   3.013  19.792  0.00  0.00    +0.000 C 
ATOM      7  C   UNL     1       2.090   1.918  19.340  0.00  0.00    +0.000 C 
ATOM      8  C   UNL     1       0.931   2.694  18.722  0.00  0.00    +0.000 C 
ATOM      9  C   UNL     1       1.543   4.014  18.248  0.00  0.00    +0.000 C 
ENDBRANCH   2   3
BRANCH   1  13
ATOM     10  C   UNL     1       0.978   9.136  20.380  0.00  0.00    +0.000 A 
ATOM     11  C   UNL     1       1.149   9.713  19.120  0.00  0.00    +0.000 A 
ATOM     12  C   UNL     1       1.895   9.061  18.134  0.00  0.00    +0.000 A 
ATOM     13  C   UNL     1       2.496   7.828  18.407  0.00  0.00    +0.000 A 
ATOM     14  C   UNL     1       2.331   7.253  19.670  0.00  0.00    +0.000 A 
ATOM     15  C   UNL     1       1.577   7.906  20.655  0.00  0.00    +0.000 A 
BRANCH  10  17
ATOM     16  C   UNL     1      -0.256   9.194  22.404  0.00  0.00    +0.000 C 
ATOM     17  O   UNL     1       0.229   9.875  21.255  0.00  0.00    +0.000 OA
ENDBRANCH  10  17
ENDBRANCH   1  13
BRANCH   2  18
ATOM     18  N   UNL     1       4.504   5.366  16.329  0.00  0.00    +0.000 N 
ATOM     19  C   UNL     1       5.768   5.739  15.910  0.00  0.00    +0.000 C 
ATOM     20  O   UNL     1       6.465   6.602  16.429  0.00  0.00    +0.000 OA
ATOM     21  H   UNL     1       3.934   4.824  15.690  0.00  0.00    +0.000 HD
BRANCH  19  22
ATOM     22  C   UNL     1       6.240   5.107  14.644  0.00  0.00    +0.000 A 
ATOM     23  C   UNL     1       5.426   4.124  14.059  0.00  0.00    +0.000 A 
ATOM     24  C   UNL     1       5.815   3.505  12.872  0.00  0.00    +0.000 A 
ATOM     25  C   UNL     1       7.015   3.865  12.262  0.00  0.00    +0.000 A 
ATOM     26  C   UNL     1       7.823   4.848  12.833  0.00  0.00    +0.000 A 
ATOM     27  C   UNL     1       7.441   5.470  14.023  0.00  0.00    +0.000 A 
ENDBRANCH  19  22
ENDBRANCH   2  18
TORSDOF 5
ENDMDL
MODEL 5
REMARK VINA RESULT:      -7.5      1.909      7.688
REMARK  Name = 
REMARK  6 active torsions:
REMARK  status: ('A' for Active; 'I' for Inactive)
REMARK    1  A    between atoms: C_1  and  O_2
REMARK    2  A    between atoms: O_2  and  C_3
REMARK    3  A    between atoms: C_6  and  C_7
REMARK    4  A    between atoms: C_8  and  N_9
REMARK    5  A    between atoms: C_8  and  C_18
REMARK    6  A    between atoms: C_10  and  C_12
REMARK                            x       y       z     vdW  Elec       q    Type
REMARK                         _______ _______ _______ _____ _____    ______ ____
ROOT
ATOM      1  C   UNL     1       3.116   6.992  17.361  0.00  0.00    +0.000 C 
ATOM      2  C   UNL     1       3.742   5.802  17.413  0.00  0.00    +0.000 C 
ENDROOT
BRANCH   2   3
ATOM      3  C   UNL     1       3.823   4.972  18.687  0.00  0.00    +0.000 C 
ATOM      4  O   UNL     1       4.719   5.132  19.510  0.00  0.00    +0.000 OA
ATOM      5  N   UNL     1       2.909   3.925  18.791  0.00  0.00    +0.000 N 
ATOM      6  C   UNL     1       3.061   2.947  19.850  0.00  0.00    +0.000 C 
ATOM      7  C   UNL     1       2.091   1.855  19.444  0.00  0.00    +0.000 C 
ATOM      8  C   UNL     1       0.913   2.632  18.865  0.00  0.00    +0.000 C 
ATOM      9  C   UNL     1       1.514   3.945  18.357  0.00  0.00    +0.000 C 
ENDBRANCH   2   3
BRANCH   1  13
ATOM     10  C   UNL     1       1.148   9.143  20.488  0.00  0.00    +0.000 A 
ATOM     11  C   UNL     1       1.703   7.887  20.735  0.00  0.00    +0.000 A 
ATOM     12  C   UNL     1       2.330   7.171  19.712  0.00  0.00    +0.000 A 
ATOM     13  C   UNL     1       2.390   7.701  18.419  0.00  0.00    +0.000 A 
ATOM     14  C   UNL     1       1.831   8.956  18.169  0.00  0.00    +0.000 A 
ATOM     15  C   UNL     1       1.208   9.674  19.199  0.00  0.00    +0.000 A 
BRANCH  10  17
ATOM     16  C   UNL     1      -0.455   8.996  22.229  0.00  0.00    +0.000 C 
ATOM     17  O   UNL     1       0.564   9.739  21.572  0.00  0.00    +0.000 OA
ENDBRANCH  10  17
ENDBRANCH   1  13
BRANCH   2  18
ATOM     18  N   UNL     1       4.455   5.294  16.330  0.00  0.00    +0.000 N 
ATOM     19  C   UNL     1       5.710   5.691  15.906  0.00  0.00    +0.000 C 
ATOM     20  O   UNL     1       6.393   6.564  16.426  0.00  0.00    +0.000 OA
ATOM     21  H   UNL     1       3.891   4.745  15.692  0.00  0.00    +0.000 HD
BRANCH  19  22
ATOM     22  C   UNL     1       6.186   5.073  14.635  0.00  0.00    +0.000 A 
ATOM     23  C   UNL     1       7.391   5.540  14.090  0.00  0.00    +0.000 A 
ATOM     24  C   UNL     1       7.886   4.992  12.906  0.00  0.00    +0.000 A 
ATOM     25  C   UNL     1       7.182   3.975  12.264  0.00  0.00    +0.000 A 
ATOM     26  C   UNL     1       5.989   3.500  12.807  0.00  0.00    +0.000 A 
ATOM     27  C   UNL     1       5.486   4.046  13.990  0.00  0.00    +0.000 A 
ENDBRANCH  19  22
ENDBRANCH   2  18
TORSDOF 5
ENDMDL
MODEL 6
REMARK VINA RESULT:      -7.5      1.893      7.662
REMARK  Name = 
REMARK  6 active torsions:
REMARK  status: ('A' for Active; 'I' for Inactive)
REMARK    1  A    between atoms: C_1  and  O_2
REMARK    2  A    between atoms: O_2  and  C_3
REMARK    3  A    between atoms: C_6  and  C_7
REMARK    4  A    between atoms: C_8  and  N_9
REMARK    5  A    between atoms: C_8  and  C_18
REMARK    6  A    between atoms: C_10  and  C_12
REMARK                            x       y       z     vdW  Elec       q    Type
REMARK                         _______ _______ _______ _____ _____    ______ ____
ROOT
ATOM      1  C   UNL     1       3.099   7.051  17.370  0.00  0.00    +0.000 C 
ATOM      2  C   UNL     1       3.729   5.864  17.439  0.00  0.00    +0.000 C 
ENDROOT
BRANCH   2   3
ATOM      3  C   UNL     1       3.783   5.036  18.715  0.00  0.00    +0.000 C 
ATOM      4  O   UNL     1       4.645   5.216  19.571  0.00  0.00    +0.000 OA
ATOM      5  N   UNL     1       2.891   3.967  18.787  0.00  0.00    +0.000 N 
ATOM      6  C   UNL     1       3.027   2.993  19.851  0.00  0.00    +0.000 C 
ATOM      7  C   UNL     1       2.098   1.879  19.411  0.00  0.00    +0.000 C 
ATOM      8  C   UNL     1       0.924   2.628  18.789  0.00  0.00    +0.000 C 
ATOM      9  C   UNL     1       1.512   3.955  18.302  0.00  0.00    +0.000 C 
ENDBRANCH   2   3
BRANCH   1  13
ATOM     10  C   UNL     1       1.046   9.201  20.442  0.00  0.00    +0.000 A 
ATOM     11  C   UNL     1       1.632   7.964  20.716  0.00  0.00    +0.000 A 
ATOM     12  C   UNL     1       2.287   7.248  19.710  0.00  0.00    +0.000 A 
ATOM     13  C   UNL     1       2.346   7.757  18.410  0.00  0.00    +0.000 A 
ATOM     14  C   UNL     1       1.755   8.993  18.133  0.00  0.00    +0.000 A 
ATOM     15  C   UNL     1       1.104   9.712  19.145  0.00  0.00    +0.000 A 
BRANCH  10  17
ATOM     16  C   UNL     1       0.220  11.200  21.414  0.00  0.00    +0.000 C 
ATOM     17  O   UNL     1       0.436   9.799  21.511  0.00  0.00    +0.000 OA
ENDBRANCH  10  17
ENDBRANCH   1  13
BRANCH   2  18
ATOM     18  N   UNL     1       4.470   5.357  16.374  0.00  0.00    +0.000 N 
ATOM     19  C   UNL     1       5.727   5.770  15.971  0.00  0.00    +0.000 C 
ATOM     20  O   UNL     1       6.388   6.657  16.496  0.00  0.00    +0.000 OA
ATOM     21  H   UNL     1       3.926   4.795  15.730  0.00  0.00    +0.000 HD
BRANCH  19  22
ATOM     22  C   UNL     1       6.236   5.148  14.714  0.00  0.00    +0.000 A 
ATOM     23  C   UNL     1       5.460   4.142  14.119  0.00  0.00    +0.000 A 
ATOM     24  C   UNL     1       5.886   3.531  12.940  0.00  0.00    +0.000 A 
ATOM     25  C   UNL     1       7.085   3.924  12.348  0.00  0.00    +0.000 A 
ATOM     26  C   UNL     1       7.856   4.930  12.930  0.00  0.00    +0.000 A 
ATOM     27  C   UNL     1       7.437   5.544  14.112  0.00  0.00    +0.000 A 
ENDBRANCH  19  22
ENDBRANCH   2  18
TORSDOF 5
ENDMDL
MODEL 7
REMARK VINA RESULT:      -7.1      1.348      1.784
REMARK  Name = 
REMARK  6 active torsions:
REMARK  status: ('A' for Active; 'I' for Inactive)
REMARK    1  A    between atoms: C_1  and  O_2
REMARK    2  A    between atoms: O_2  and  C_3
REMARK    3  A    between atoms: C_6  and  C_7
REMARK    4  A    between atoms: C_8  and  N_9
REMARK    5  A    between atoms: C_8  and  C_18
REMARK    6  A    between atoms: C_10  and  C_12
REMARK                            x       y       z     vdW  Elec       q    Type
REMARK                         _______ _______ _______ _____ _____    ______ ____
ROOT
ATOM      1  C   UNL     1       3.450   6.798  17.867  0.00  0.00    +0.000 C 
ATOM      2  C   UNL     1       3.153   6.469  19.138  0.00  0.00    +0.000 C 
ENDROOT
BRANCH   2   3
ATOM      3  C   UNL     1       3.601   5.160  19.773  0.00  0.00    +0.000 C 
ATOM      4  O   UNL     1       4.754   4.984  20.155  0.00  0.00    +0.000 OA
ATOM      5  N   UNL     1       2.667   4.125  19.760  0.00  0.00    +0.000 N 
ATOM      6  C   UNL     1       3.080   2.786  20.129  0.00  0.00    +0.000 C 
ATOM      7  C   UNL     1       1.896   1.938  19.706  0.00  0.00    +0.000 C 
ATOM      8  C   UNL     1       0.698   2.820  20.043  0.00  0.00    +0.000 C 
ATOM      9  C   UNL     1       1.226   4.255  19.968  0.00  0.00    +0.000 C 
ENDBRANCH   2   3
BRANCH   1  13
ATOM     10  C   UNL     1       5.873   4.598  15.118  0.00  0.00    +0.000 A 
ATOM     11  C   UNL     1       6.011   5.982  15.230  0.00  0.00    +0.000 A 
ATOM     12  C   UNL     1       5.207   6.708  16.113  0.00  0.00    +0.000 A 
ATOM     13  C   UNL     1       4.240   6.055  16.882  0.00  0.00    +0.000 A 
ATOM     14  C   UNL     1       4.097   4.670  16.766  0.00  0.00    +0.000 A 
ATOM     15  C   UNL     1       4.909   3.943  15.884  0.00  0.00    +0.000 A 
BRANCH  10  17
ATOM     16  C   UNL     1       6.152   3.631  12.970  0.00  0.00    +0.000 C 
ATOM     17  O   UNL     1       6.719   4.006  14.219  0.00  0.00    +0.000 OA
ENDBRANCH  10  17
ENDBRANCH   1  13
BRANCH   2  18
ATOM     18  N   UNL     1       2.322   7.256  19.931  0.00  0.00    +0.000 N 
ATOM     19  C   UNL     1       1.650   8.400  19.542  0.00  0.00    +0.000 C 
ATOM     20  O   UNL     1       1.685   8.902  18.425  0.00  0.00    +0.000 OA
ATOM     21  H   UNL     1       2.413   7.074  20.924  0.00  0.00    +0.000 HD
BRANCH  19  22
ATOM     22  C   UNL     1       0.933   9.127  20.630  0.00  0.00    +0.000 A 
ATOM     23  C   UNL     1       0.128  10.219  20.269  0.00  0.00    +0.000 A 
ATOM     24  C   UNL     1      -0.569  10.929  21.245  0.00  0.00    +0.000 A 
ATOM     25  C   UNL     1      -0.471  10.552  22.583  0.00  0.00    +0.000 A 
ATOM     26  C   UNL     1       0.319   9.462  22.946  0.00  0.00    +0.000 A 
ATOM     27  C   UNL     1       1.023   8.747  21.975  0.00  0.00    +0.000 A 
ENDBRANCH  19  22
ENDBRANCH   2  18
TORSDOF 5
ENDMDL
MODEL 8
REMARK VINA RESULT:      -7.1      1.376      1.897
REMARK  Name = 
REMARK  6 active torsions:
REMARK  status: ('A' for Active; 'I' for Inactive)
REMARK    1  A    between atoms: C_1  and  O_2
REMARK    2  A    between atoms: O_2  and  C_3
REMARK    3  A    between atoms: C_6  and  C_7
REMARK    4  A    between atoms: C_8  and  N_9
REMARK    5  A    between atoms: C_8  and  C_18
REMARK    6  A    between atoms: C_10  and  C_12
REMARK                            x       y       z     vdW  Elec       q    Type
REMARK                         _______ _______ _______ _____ _____    ______ ____
ROOT
ATOM      1  C   UNL     1       3.934   6.692  17.867  0.00  0.00    +0.000 C 
ATOM      2  C   UNL     1       3.450   6.273  19.050  0.00  0.00    +0.000 C 
ENDROOT
BRANCH   2   3
ATOM      3  C   UNL     1       3.722   4.880  19.602  0.00  0.00    +0.000 C 
ATOM      4  O   UNL     1       4.778   4.598  20.160  0.00  0.00    +0.000 OA
ATOM      5  N   UNL     1       2.766   3.910  19.306  0.00  0.00    +0.000 N 
ATOM      6  C   UNL     1       3.052   2.517  19.587  0.00  0.00    +0.000 C 
ATOM      7  C   UNL     1       1.932   1.790  18.867  0.00  0.00    +0.000 C 
ATOM      8  C   UNL     1       0.728   2.701  19.084  0.00  0.00    +0.000 C 
ATOM      9  C   UNL     1       1.318   4.102  19.268  0.00  0.00    +0.000 C 
ENDBRANCH   2   3
BRANCH   1  13
ATOM     10  C   UNL     1       6.399   4.732  14.976  0.00  0.00    +0.000 A 
ATOM     11  C   UNL     1       5.111   4.264  15.241  0.00  0.00    +0.000 A 
ATOM     12  C   UNL     1       4.309   4.889  16.199  0.00  0.00    +0.000 A 
ATOM     13  C   UNL     1       4.798   5.983  16.919  0.00  0.00    +0.000 A 
ATOM     14  C   UNL     1       6.088   6.450  16.660  0.00  0.00    +0.000 A 
ATOM     15  C   UNL     1       6.889   5.824  15.693  0.00  0.00    +0.000 A 
BRANCH  10  17
ATOM     16  C   UNL     1       6.334   3.628  12.879  0.00  0.00    +0.000 C 
ATOM     17  O   UNL     1       7.081   4.033  14.018  0.00  0.00    +0.000 OA
ENDBRANCH  10  17
ENDBRANCH   1  13
BRANCH   2  18
ATOM     18  N   UNL     1       2.574   7.047  19.807  0.00  0.00    +0.000 N 
ATOM     19  C   UNL     1       1.838   8.132  19.367  0.00  0.00    +0.000 C 
ATOM     20  O   UNL     1       1.846   8.584  18.229  0.00  0.00    +0.000 OA
ATOM     21  H   UNL     1       2.673   6.916  20.807  0.00  0.00    +0.000 HD
BRANCH  19  22
ATOM     22  C   UNL     1       1.079   8.866  20.421  0.00  0.00    +0.000 A 
ATOM     23  C   UNL     1       0.235   9.910  20.014  0.00  0.00    +0.000 A 
ATOM     24  C   UNL     1      -0.503  10.625  20.957  0.00  0.00    +0.000 A 
ATOM     25  C   UNL     1      -0.405  10.298  22.309  0.00  0.00    +0.000 A 
ATOM     26  C   UNL     1       0.425   9.255  22.718  0.00  0.00    +0.000 A 
ATOM     27  C   UNL     1       1.169   8.537  21.780  0.00  0.00    +0.000 A 
ENDBRANCH  19  22
ENDBRANCH   2  18
TORSDOF 5
ENDMDL
MODEL 9
REMARK VINA RESULT:      -6.9      1.238      1.654
REMARK  Name = 
REMARK  6 active torsions:
REMARK  status: ('A' for Active; 'I' for Inactive)
REMARK    1  A    between atoms: C_1  and  O_2
REMARK    2  A    between atoms: O_2  and  C_3
REMARK    3  A    between atoms: C_6  and  C_7
REMARK    4  A    between atoms: C_8  and  N_9
REMARK    5  A    between atoms: C_8  and  C_18
REMARK    6  A    between atoms: C_10  and  C_12
REMARK                            x       y       z     vdW  Elec       q    Type
REMARK                         _______ _______ _______ _____ _____    ______ ____
ROOT
ATOM      1  C   UNL     1       3.607   6.989  18.977  0.00  0.00    +0.000 C 
ATOM      2  C   UNL     1       2.731   6.542  19.895  0.00  0.00    +0.000 C 
ENDROOT
BRANCH   2   3
ATOM      3  C   UNL     1       2.556   5.063  20.210  0.00  0.00    +0.000 C 
ATOM      4  O   UNL     1       2.589   4.635  21.360  0.00  0.00    +0.000 OA
ATOM      5  N   UNL     1       2.503   4.208  19.111  0.00  0.00    +0.000 N 
ATOM      6  C   UNL     1       2.570   2.775  19.316  0.00  0.00    +0.000 C 
ATOM      7  C   UNL     1       2.782   2.241  17.913  0.00  0.00    +0.000 C 
ATOM      8  C   UNL     1       1.918   3.160  17.056  0.00  0.00    +0.000 C 
ATOM      9  C   UNL     1       1.844   4.476  17.834  0.00  0.00    +0.000 C 
ENDBRANCH   2   3
BRANCH   1  13
ATOM     10  C   UNL     1       6.468   4.906  16.579  0.00  0.00    +0.000 A 
ATOM     11  C   UNL     1       5.446   5.643  15.979  0.00  0.00    +0.000 A 
ATOM     12  C   UNL     1       4.497   6.310  16.758  0.00  0.00    +0.000 A 
ATOM     13  C   UNL     1       4.550   6.228  18.153  0.00  0.00    +0.000 A 
ATOM     14  C   UNL     1       5.570   5.486  18.755  0.00  0.00    +0.000 A 
ATOM     15  C   UNL     1       6.524   4.824  17.971  0.00  0.00    +0.000 A 
BRANCH  10  17
ATOM     16  C   UNL     1       7.168   4.623  14.331  0.00  0.00    +0.000 C 
ATOM     17  O   UNL     1       7.331   4.301  15.706  0.00  0.00    +0.000 OA
ENDBRANCH  10  17
ENDBRANCH   1  13
BRANCH   2  18
ATOM     18  N   UNL     1       1.845   7.394  20.548  0.00  0.00    +0.000 N 
ATOM     19  C   UNL     1       1.297   8.560  20.046  0.00  0.00    +0.000 C 
ATOM     20  O   UNL     1       1.513   9.027  18.934  0.00  0.00    +0.000 OA
ATOM     21  H   UNL     1       1.788   7.237  21.548  0.00  0.00    +0.000 HD
BRANCH  19  22
ATOM     22  C   UNL     1       0.479   9.354  21.008  0.00  0.00    +0.000 A 
ATOM     23  C   UNL     1       0.461   8.942  22.349  0.00  0.00    +0.000 A 
ATOM     24  C   UNL     1      -0.282   9.652  23.292  0.00  0.00    +0.000 A 
ATOM     25  C   UNL     1      -1.007  10.777  22.901  0.00  0.00    +0.000 A 
ATOM     26  C   UNL     1      -0.984  11.197  21.572  0.00  0.00    +0.000 A 
ATOM     27  C   UNL     1      -0.245  10.489  20.622  0.00  0.00    +0.000 A 
ENDBRANCH  19  22
ENDBRANCH   2  18
TORSDOF 5
ENDMDL
