MODEL 1
REMARK VINA RESULT:      -8.8      0.000      0.000
REMARK  Name = 
REMARK  3 active torsions:
REMARK  status: ('A' for Active; 'I' for Inactive)
REMARK    1  A    between atoms: C_2  and  C_3
REMARK    2  A    between atoms: C_3  and  C_4
REMARK    3  A    between atoms: C_20  and  C_21
REMARK                            x       y       z     vdW  Elec       q    Type
REMARK                         _______ _______ _______ _____ _____    ______ ____
ROOT
ATOM      1  O   UNL     1      -0.798  16.736  21.694  0.00  0.00    +0.000 OA
ATOM      2  C   UNL     1      -0.752  16.017  20.692  0.00  0.00    +0.000 C 
ATOM      3  N   UNL     1      -0.331  14.691  20.761  0.00  0.00    +0.000 N 
ATOM      4  C   UNL     1      -0.050  14.096  22.068  0.00  0.00    +0.000 C 
ATOM      5  C   UNL     1      -1.147  13.170  22.600  0.00  0.00    +0.000 C 
ATOM      6  C   UNL     1      -1.702  12.104  21.655  0.00  0.00    +0.000 C 
ATOM      7  N   UNL     1      -0.802  11.748  20.562  0.00  0.00    +0.000 N 
ATOM      8  C   UNL     1       0.016  10.617  20.542  0.00  0.00    +0.000 A 
ATOM      9  C   UNL     1       0.356   9.913  21.839  0.00  0.00    +0.000 A 
ATOM     10  C   UNL     1       1.103   8.807  21.766  0.00  0.00    +0.000 A 
ATOM     11  N   UNL     1       1.530   8.373  20.528  0.00  0.00    +0.000 N 
ATOM     12  C   UNL     1       2.288   7.281  20.206  0.00  0.00    +0.000 A 
ATOM     13  C   UNL     1       2.430   7.328  18.839  0.00  0.00    +0.000 A 
ATOM     14  N   UNL     1       1.791   8.435  18.327  0.00  0.00    +0.000 NA
ATOM     15  C   UNL     1       1.240   9.055  19.357  0.00  0.00    +0.000 A 
ATOM     16  N   UNL     1       0.484  10.192  19.386  0.00  0.00    +0.000 NA
ATOM     17  C   UNL     1      -0.882  12.645  19.396  0.00  0.00    +0.000 C 
ATOM     18  C   UNL     1       0.024  13.867  19.590  0.00  0.00    +0.000 C 
ENDROOT
BRANCH  13  19
ATOM     19  C   UNL     1       3.200   6.378  18.056  0.00  0.00    +0.000 A 
ATOM     20  C   UNL     1       4.291   6.798  17.274  0.00  0.00    +0.000 A 
ATOM     21  C   UNL     1       4.979   5.891  16.466  0.00  0.00    +0.000 A 
ATOM     22  C   UNL     1       4.583   4.561  16.442  0.00  0.00    +0.000 A 
ATOM     23  F   UNL     1       5.229   3.696  15.650  0.00  0.00    +0.000 F 
ATOM     24  C   UNL     1       3.523   4.117  17.226  0.00  0.00    +0.000 A 
ATOM     25  C   UNL     1       2.837   5.024  18.039  0.00  0.00    +0.000 A 
ENDBRANCH  13  19
BRANCH   2  26
ATOM     26  C   UNL     1      -1.233  16.555  19.354  0.00  0.00    +0.000 C 
BRANCH  26  27
ATOM     27  C   UNL     1      -0.205  17.138  18.408  0.00  0.00    +0.000 A 
ATOM     28  C   UNL     1       1.170  16.887  18.493  0.00  0.00    +0.000 A 
ATOM     29  C   UNL     1       2.055  17.461  17.573  0.00  0.00    +0.000 A 
ATOM     30  C   UNL     1       1.581  18.297  16.563  0.00  0.00    +0.000 A 
ATOM     31  C   UNL     1       0.218  18.559  16.468  0.00  0.00    +0.000 A 
ATOM     32  C   UNL     1      -0.666  17.984  17.382  0.00  0.00    +0.000 A 
ENDBRANCH  26  27
ENDBRANCH   2  26
TORSDOF 3
ENDMDL
MODEL 2
REMARK VINA RESULT:      -8.7      0.679      1.092
REMARK  Name = 
REMARK  3 active torsions:
REMARK  status: ('A' for Active; 'I' for Inactive)
REMARK    1  A    between atoms: C_2  and  C_3
REMARK    2  A    between atoms: C_3  and  C_4
REMARK    3  A    between atoms: C_20  and  C_21
REMARK                            x       y       z     vdW  Elec       q    Type
REMARK                         _______ _______ _______ _____ _____    ______ ____
ROOT
ATOM      1  O   UNL     1      -0.883  16.056  21.628  0.00  0.00    +0.000 OA
ATOM      2  C   UNL     1      -0.777  15.392  20.592  0.00  0.00    +0.000 C 
ATOM      3  N   UNL     1      -0.292  14.087  20.606  0.00  0.00    +0.000 N 
ATOM      4  C   UNL     1      -0.014  13.438  21.888  0.00  0.00    +0.000 C 
ATOM      5  C   UNL     1      -1.077  12.435  22.342  0.00  0.00    +0.000 C 
ATOM      6  C   UNL     1      -1.556  11.394  21.330  0.00  0.00    +0.000 C 
ATOM      7  N   UNL     1      -0.613  11.138  20.245  0.00  0.00    +0.000 N 
ATOM      8  C   UNL     1       0.260  10.050  20.190  0.00  0.00    +0.000 A 
ATOM      9  C   UNL     1       0.603   9.297  21.459  0.00  0.00    +0.000 A 
ATOM     10  C   UNL     1       1.405   8.234  21.350  0.00  0.00    +0.000 A 
ATOM     11  N   UNL     1       1.883   7.886  20.104  0.00  0.00    +0.000 N 
ATOM     12  C   UNL     1       2.701   6.850  19.748  0.00  0.00    +0.000 A 
ATOM     13  C   UNL     1       2.875   6.974  18.389  0.00  0.00    +0.000 A 
ATOM     14  N   UNL     1       2.194   8.074  17.916  0.00  0.00    +0.000 NA
ATOM     15  C   UNL     1       1.588   8.612  18.961  0.00  0.00    +0.000 A 
ATOM     16  N   UNL     1       0.776   9.709  19.027  0.00  0.00    +0.000 NA
ATOM     17  C   UNL     1      -0.708  12.090  19.125  0.00  0.00    +0.000 C 
ATOM     18  C   UNL     1       0.131  13.342  19.404  0.00  0.00    +0.000 C 
ENDROOT
BRANCH  13  19
ATOM     19  C   UNL     1       3.710   6.104  17.580  0.00  0.00    +0.000 A 
ATOM     20  C   UNL     1       4.589   6.632  16.618  0.00  0.00    +0.000 A 
ATOM     21  C   UNL     1       5.333   5.786  15.792  0.00  0.00    +0.000 A 
ATOM     22  C   UNL     1       5.204   4.410  15.931  0.00  0.00    +0.000 A 
ATOM     23  F   UNL     1       5.900   3.600  15.124  0.00  0.00    +0.000 F 
ATOM     24  C   UNL     1       4.359   3.865  16.892  0.00  0.00    +0.000 A 
ATOM     25  C   UNL     1       3.618   4.712  17.722  0.00  0.00    +0.000 A 
ENDBRANCH  13  19
BRANCH   2  26
ATOM     26  C   UNL     1      -1.251  15.976  19.270  0.00  0.00    +0.000 C 
BRANCH  26  27
ATOM     27  C   UNL     1      -0.256  16.756  18.437  0.00  0.00    +0.000 A 
ATOM     28  C   UNL     1      -0.613  17.752  17.520  0.00  0.00    +0.000 A 
ATOM     29  C   UNL     1       0.370  18.432  16.792  0.00  0.00    +0.000 A 
ATOM     30  C   UNL     1       1.719  18.122  16.964  0.00  0.00    +0.000 A 
ATOM     31  C   UNL     1       2.088  17.132  17.869  0.00  0.00    +0.000 A 
ATOM     32  C   UNL     1       1.109  16.456  18.599  0.00  0.00    +0.000 A 
ENDBRANCH  26  27
ENDBRANCH   2  26
TORSDOF 3
ENDMDL
MODEL 3
REMARK VINA RESULT:      -8.2      2.770      5.251
REMARK  Name = 
REMARK  3 active torsions:
REMARK  status: ('A' for Active; 'I' for Inactive)
REMARK    1  A    between atoms: C_2  and  C_3
REMARK    2  A    between atoms: C_3  and  C_4
REMARK    3  A    between atoms: C_20  and  C_21
REMARK                            x       y       z     vdW  Elec       q    Type
REMARK                         _______ _______ _______ _____ _____    ______ ____
ROOT
ATOM      1  O   UNL     1      -3.382  14.615  20.528  0.00  0.00    +0.000 OA
ATOM      2  C   UNL     1      -2.976  13.613  21.122  0.00  0.00    +0.000 C 
ATOM      3  N   UNL     1      -2.046  12.748  20.550  0.00  0.00    +0.000 N 
ATOM      4  C   UNL     1      -1.441  13.096  19.263  0.00  0.00    +0.000 C 
ATOM      5  C   UNL     1      -0.016  13.644  19.353  0.00  0.00    +0.000 C 
ATOM      6  C   UNL     1       0.993  12.875  20.206  0.00  0.00    +0.000 C 
ATOM      7  N   UNL     1       0.651  11.471  20.415  0.00  0.00    +0.000 N 
ATOM      8  C   UNL     1       1.203  10.404  19.704  0.00  0.00    +0.000 A 
ATOM      9  C   UNL     1       1.869  10.656  18.367  0.00  0.00    +0.000 A 
ATOM     10  C   UNL     1       2.425   9.612  17.746  0.00  0.00    +0.000 A 
ATOM     11  N   UNL     1       2.356   8.370  18.340  0.00  0.00    +0.000 N 
ATOM     12  C   UNL     1       2.850   7.171  17.905  0.00  0.00    +0.000 A 
ATOM     13  C   UNL     1       2.491   6.259  18.869  0.00  0.00    +0.000 A 
ATOM     14  N   UNL     1       1.774   6.874  19.871  0.00  0.00    +0.000 NA
ATOM     15  C   UNL     1       1.709   8.154  19.547  0.00  0.00    +0.000 A 
ATOM     16  N   UNL     1       1.122   9.192  20.214  0.00  0.00    +0.000 NA
ATOM     17  C   UNL     1      -0.283  11.236  21.529  0.00  0.00    +0.000 C 
ATOM     18  C   UNL     1      -1.734  11.400  21.063  0.00  0.00    +0.000 C 
ENDROOT
BRANCH  13  19
ATOM     19  C   UNL     1       2.774   4.836  18.804  0.00  0.00    +0.000 A 
ATOM     20  C   UNL     1       3.739   4.250  19.643  0.00  0.00    +0.000 A 
ATOM     21  C   UNL     1       4.059   2.895  19.523  0.00  0.00    +0.000 A 
ATOM     22  C   UNL     1       3.411   2.123  18.569  0.00  0.00    +0.000 A 
ATOM     23  F   UNL     1       3.734   0.830  18.439  0.00  0.00    +0.000 F 
ATOM     24  C   UNL     1       2.436   2.675  17.745  0.00  0.00    +0.000 A 
ATOM     25  C   UNL     1       2.111   4.029  17.868  0.00  0.00    +0.000 A 
ENDBRANCH  13  19
BRANCH   2  26
ATOM     26  C   UNL     1      -3.438  13.340  22.545  0.00  0.00    +0.000 C 
BRANCH  26  27
ATOM     27  C   UNL     1      -4.893  12.984  22.767  0.00  0.00    +0.000 A 
ATOM     28  C   UNL     1      -5.513  12.966  24.022  0.00  0.00    +0.000 A 
ATOM     29  C   UNL     1      -6.867  12.631  24.140  0.00  0.00    +0.000 A 
ATOM     30  C   UNL     1      -7.616  12.302  23.011  0.00  0.00    +0.000 A 
ATOM     31  C   UNL     1      -7.011  12.310  21.758  0.00  0.00    +0.000 A 
ATOM     32  C   UNL     1      -5.663  12.649  21.637  0.00  0.00    +0.000 A 
ENDBRANCH  26  27
ENDBRANCH   2  26
TORSDOF 3
ENDMDL
MODEL 4
REMARK VINA RESULT:      -8.1      2.988      4.674
REMARK  Name = 
REMARK  3 active torsions:
REMARK  status: ('A' for Active; 'I' for Inactive)
REMARK    1  A    between atoms: C_2  and  C_3
REMARK    2  A    between atoms: C_3  and  C_4
REMARK    3  A    between atoms: C_20  and  C_21
REMARK                            x       y       z     vdW  Elec       q    Type
REMARK                         _______ _______ _______ _____ _____    ______ ____
ROOT
ATOM      1  O   UNL     1      -4.199  14.261  21.461  0.00  0.00    +0.000 OA
ATOM      2  C   UNL     1      -3.457  13.487  22.072  0.00  0.00    +0.000 C 
ATOM      3  N   UNL     1      -2.565  12.650  21.407  0.00  0.00    +0.000 N 
ATOM      4  C   UNL     1      -2.412  12.773  19.956  0.00  0.00    +0.000 C 
ATOM      5  C   UNL     1      -1.153  13.517  19.506  0.00  0.00    +0.000 C 
ATOM      6  C   UNL     1       0.180  13.110  20.132  0.00  0.00    +0.000 C 
ATOM      7  N   UNL     1       0.193  11.758  20.683  0.00  0.00    +0.000 N 
ATOM      8  C   UNL     1       0.733  10.642  20.041  0.00  0.00    +0.000 A 
ATOM      9  C   UNL     1       0.948  10.670  18.541  0.00  0.00    +0.000 A 
ATOM     10  C   UNL     1       1.511   9.598  17.978  0.00  0.00    +0.000 A 
ATOM     11  N   UNL     1       1.853   8.527  18.777  0.00  0.00    +0.000 N 
ATOM     12  C   UNL     1       2.439   7.340  18.433  0.00  0.00    +0.000 A 
ATOM     13  C   UNL     1       2.542   6.633  19.607  0.00  0.00    +0.000 A 
ATOM     14  N   UNL     1       2.016   7.357  20.654  0.00  0.00    +0.000 NA
ATOM     15  C   UNL     1       1.612   8.507  20.142  0.00  0.00    +0.000 A 
ATOM     16  N   UNL     1       1.034   9.581  20.759  0.00  0.00    +0.000 NA
ATOM     17  C   UNL     1      -0.339  11.659  22.053  0.00  0.00    +0.000 C 
ATOM     18  C   UNL     1      -1.865  11.511  22.032  0.00  0.00    +0.000 C 
ENDROOT
BRANCH  13  19
ATOM     19  C   UNL     1       3.074   5.286  19.715  0.00  0.00    +0.000 A 
ATOM     20  C   UNL     1       4.351   4.968  19.218  0.00  0.00    +0.000 A 
ATOM     21  C   UNL     1       4.823   3.654  19.258  0.00  0.00    +0.000 A 
ATOM     22  C   UNL     1       4.024   2.657  19.800  0.00  0.00    +0.000 A 
ATOM     23  F   UNL     1       4.469   1.394  19.818  0.00  0.00    +0.000 F 
ATOM     24  C   UNL     1       2.768   2.951  20.320  0.00  0.00    +0.000 A 
ATOM     25  C   UNL     1       2.296   4.267  20.285  0.00  0.00    +0.000 A 
ENDBRANCH  13  19
BRANCH   2  26
ATOM     26  C   UNL     1      -3.454  13.487  23.593  0.00  0.00    +0.000 C 
BRANCH  26  27
ATOM     27  C   UNL     1      -2.956  14.726  24.305  0.00  0.00    +0.000 A 
ATOM     28  C   UNL     1      -3.774  15.801  24.674  0.00  0.00    +0.000 A 
ATOM     29  C   UNL     1      -3.235  16.909  25.338  0.00  0.00    +0.000 A 
ATOM     30  C   UNL     1      -1.874  16.963  25.634  0.00  0.00    +0.000 A 
ATOM     31  C   UNL     1      -1.047  15.905  25.270  0.00  0.00    +0.000 A 
ATOM     32  C   UNL     1      -1.584  14.797  24.613  0.00  0.00    +0.000 A 
ENDBRANCH  26  27
ENDBRANCH   2  26
TORSDOF 3
ENDMDL
MODEL 5
REMARK VINA RESULT:      -8.1      2.952      4.570
REMARK  Name = 
REMARK  3 active torsions:
REMARK  status: ('A' for Active; 'I' for Inactive)
REMARK    1  A    between atoms: C_2  and  C_3
REMARK    2  A    between atoms: C_3  and  C_4
REMARK    3  A    between atoms: C_20  and  C_21
REMARK                            x       y       z     vdW  Elec       q    Type
REMARK                         _______ _______ _______ _____ _____    ______ ____
ROOT
ATOM      1  O   UNL     1      -4.062  14.392  21.509  0.00  0.00    +0.000 OA
ATOM      2  C   UNL     1      -3.309  13.618  22.106  0.00  0.00    +0.000 C 
ATOM      3  N   UNL     1      -2.452  12.758  21.424  0.00  0.00    +0.000 N 
ATOM      4  C   UNL     1      -2.350  12.855  19.967  0.00  0.00    +0.000 C 
ATOM      5  C   UNL     1      -1.098  13.575  19.459  0.00  0.00    +0.000 C 
ATOM      6  C   UNL     1       0.251  13.160  20.045  0.00  0.00    +0.000 C 
ATOM      7  N   UNL     1       0.267  11.817  20.618  0.00  0.00    +0.000 N 
ATOM      8  C   UNL     1       0.769  10.684  19.976  0.00  0.00    +0.000 A 
ATOM      9  C   UNL     1       0.931  10.684  18.470  0.00  0.00    +0.000 A 
ATOM     10  C   UNL     1       1.459   9.595  17.904  0.00  0.00    +0.000 A 
ATOM     11  N   UNL     1       1.816   8.534  18.709  0.00  0.00    +0.000 N 
ATOM     12  C   UNL     1       2.373   7.333  18.364  0.00  0.00    +0.000 A 
ATOM     13  C   UNL     1       2.509   6.644  19.546  0.00  0.00    +0.000 A 
ATOM     14  N   UNL     1       2.030   7.392  20.598  0.00  0.00    +0.000 NA
ATOM     15  C   UNL     1       1.623   8.539  20.081  0.00  0.00    +0.000 A 
ATOM     16  N   UNL     1       1.082   9.630  20.701  0.00  0.00    +0.000 NA
ATOM     17  C   UNL     1      -0.218  11.747  22.007  0.00  0.00    +0.000 C 
ATOM     18  C   UNL     1      -1.745  11.620  22.043  0.00  0.00    +0.000 C 
ENDROOT
BRANCH  13  19
ATOM     19  C   UNL     1       3.027   5.291  19.658  0.00  0.00    +0.000 A 
ATOM     20  C   UNL     1       2.305   4.292  20.334  0.00  0.00    +0.000 A 
ATOM     21  C   UNL     1       2.843   3.014  20.503  0.00  0.00    +0.000 A 
ATOM     22  C   UNL     1       4.102   2.731  19.990  0.00  0.00    +0.000 A 
ATOM     23  F   UNL     1       4.627   1.513  20.171  0.00  0.00    +0.000 F 
ATOM     24  C   UNL     1       4.824   3.696  19.296  0.00  0.00    +0.000 A 
ATOM     25  C   UNL     1       4.283   4.974  19.123  0.00  0.00    +0.000 A 
ENDBRANCH  13  19
BRANCH   2  26
ATOM     26  C   UNL     1      -3.252  13.643  23.625  0.00  0.00    +0.000 C 
BRANCH  26  27
ATOM     27  C   UNL     1      -2.326  14.640  24.289  0.00  0.00    +0.000 A 
ATOM     28  C   UNL     1      -2.428  15.033  25.628  0.00  0.00    +0.000 A 
ATOM     29  C   UNL     1      -1.526  15.958  26.167  0.00  0.00    +0.000 A 
ATOM     30  C   UNL     1      -0.518  16.507  25.376  0.00  0.00    +0.000 A 
ATOM     31  C   UNL     1      -0.407  16.129  24.042  0.00  0.00    +0.000 A 
ATOM     32  C   UNL     1      -1.303  15.204  23.503  0.00  0.00    +0.000 A 
ENDBRANCH  26  27
ENDBRANCH   2  26
TORSDOF 3
ENDMDL
MODEL 6
REMARK VINA RESULT:      -8.0      4.280     10.246
REMARK  Name = 
REMARK  3 active torsions:
REMARK  status: ('A' for Active; 'I' for Inactive)
REMARK    1  A    between atoms: C_2  and  C_3
REMARK    2  A    between atoms: C_3  and  C_4
REMARK    3  A    between atoms: C_20  and  C_21
REMARK                            x       y       z     vdW  Elec       q    Type
REMARK                         _______ _______ _______ _____ _____    ______ ____
ROOT
ATOM      1  O   UNL     1       2.157   2.158  17.888  0.00  0.00    +0.000 OA
ATOM      2  C   UNL     1       2.564   3.301  17.655  0.00  0.00    +0.000 C 
ATOM      3  N   UNL     1       2.030   4.413  18.300  0.00  0.00    +0.000 N 
ATOM      4  C   UNL     1       1.047   4.220  19.367  0.00  0.00    +0.000 C 
ATOM      5  C   UNL     1       1.600   4.384  20.784  0.00  0.00    +0.000 C 
ATOM      6  C   UNL     1       2.448   5.621  21.082  0.00  0.00    +0.000 C 
ATOM      7  N   UNL     1       2.218   6.736  20.169  0.00  0.00    +0.000 N 
ATOM      8  C   UNL     1       1.415   7.843  20.452  0.00  0.00    +0.000 A 
ATOM      9  C   UNL     1       0.376   7.756  21.550  0.00  0.00    +0.000 A 
ATOM     10  C   UNL     1      -0.336   8.854  21.817  0.00  0.00    +0.000 A 
ATOM     11  N   UNL     1      -0.100   9.996  21.081  0.00  0.00    +0.000 N 
ATOM     12  C   UNL     1      -0.690  11.226  21.174  0.00  0.00    +0.000 A 
ATOM     13  C   UNL     1      -0.093  11.991  20.200  0.00  0.00    +0.000 A 
ATOM     14  N   UNL     1       0.834  11.246  19.504  0.00  0.00    +0.000 NA
ATOM     15  C   UNL     1       0.830  10.043  20.054  0.00  0.00    +0.000 A 
ATOM     16  N   UNL     1       1.576   8.941  19.743  0.00  0.00    +0.000 NA
ATOM     17  C   UNL     1       2.989   6.661  18.916  0.00  0.00    +0.000 C 
ATOM     18  C   UNL     1       2.252   5.809  17.876  0.00  0.00    +0.000 C 
ENDROOT
BRANCH  13  19
ATOM     19  C   UNL     1      -0.438  13.370  19.905  0.00  0.00    +0.000 A 
ATOM     20  C   UNL     1       0.226  14.084  18.892  0.00  0.00    +0.000 A 
ATOM     21  C   UNL     1      -0.059  15.432  18.665  0.00  0.00    +0.000 A 
ATOM     22  C   UNL     1      -1.014  16.068  19.447  0.00  0.00    +0.000 A 
ATOM     23  F   UNL     1      -1.271  17.366  19.245  0.00  0.00    +0.000 F 
ATOM     24  C   UNL     1      -1.702  15.376  20.439  0.00  0.00    +0.000 A 
ATOM     25  C   UNL     1      -1.420  14.025  20.662  0.00  0.00    +0.000 A 
ENDBRANCH  13  19
BRANCH   2  26
ATOM     26  C   UNL     1       3.726   3.507  16.697  0.00  0.00    +0.000 C 
BRANCH  26  27
ATOM     27  C   UNL     1       4.962   4.212  17.215  0.00  0.00    +0.000 A 
ATOM     28  C   UNL     1       5.425   4.115  18.533  0.00  0.00    +0.000 A 
ATOM     29  C   UNL     1       6.583   4.794  18.930  0.00  0.00    +0.000 A 
ATOM     30  C   UNL     1       7.287   5.584  18.022  0.00  0.00    +0.000 A 
ATOM     31  C   UNL     1       6.836   5.693  16.711  0.00  0.00    +0.000 A 
ATOM     32  C   UNL     1       5.685   5.013  16.311  0.00  0.00    +0.000 A 
ENDBRANCH  26  27
ENDBRANCH   2  26
TORSDOF 3
ENDMDL
MODEL 7
REMARK VINA RESULT:      -7.9      2.866      5.211
REMARK  Name = 
REMARK  3 active torsions:
REMARK  status: ('A' for Active; 'I' for Inactive)
REMARK    1  A    between atoms: C_2  and  C_3
REMARK    2  A    between atoms: C_3  and  C_4
REMARK    3  A    between atoms: C_20  and  C_21
REMARK                            x       y       z     vdW  Elec       q    Type
REMARK                         _______ _______ _______ _____ _____    ______ ____
ROOT
ATOM      1  O   UNL     1      -3.519  14.671  20.955  0.00  0.00    +0.000 OA
ATOM      2  C   UNL     1      -3.079  13.669  21.525  0.00  0.00    +0.000 C 
ATOM      3  N   UNL     1      -2.166  12.818  20.908  0.00  0.00    +0.000 N 
ATOM      4  C   UNL     1      -1.619  13.180  19.600  0.00  0.00    +0.000 C 
ATOM      5  C   UNL     1      -0.196  13.741  19.634  0.00  0.00    +0.000 C 
ATOM      6  C   UNL     1       0.855  12.977  20.439  0.00  0.00    +0.000 C 
ATOM      7  N   UNL     1       0.535  11.568  20.651  0.00  0.00    +0.000 N 
ATOM      8  C   UNL     1       1.067  10.511  19.911  0.00  0.00    +0.000 A 
ATOM      9  C   UNL     1       1.674  10.779  18.549  0.00  0.00    +0.000 A 
ATOM     10  C   UNL     1       2.214   9.745  17.898  0.00  0.00    +0.000 A 
ATOM     11  N   UNL     1       2.182   8.498  18.485  0.00  0.00    +0.000 N 
ATOM     12  C   UNL     1       2.669   7.307  18.021  0.00  0.00    +0.000 A 
ATOM     13  C   UNL     1       2.359   6.384  18.992  0.00  0.00    +0.000 A 
ATOM     14  N   UNL     1       1.678   6.985  20.028  0.00  0.00    +0.000 NA
ATOM     15  C   UNL     1       1.587   8.267  19.716  0.00  0.00    +0.000 A 
ATOM     16  N   UNL     1       1.019   9.295  20.414  0.00  0.00    +0.000 NA
ATOM     17  C   UNL     1      -0.350  11.316  21.801  0.00  0.00    +0.000 C 
ATOM     18  C   UNL     1      -1.821  11.469  21.397  0.00  0.00    +0.000 C 
ENDROOT
BRANCH  13  19
ATOM     19  C   UNL     1       2.652   4.965  18.906  0.00  0.00    +0.000 A 
ATOM     20  C   UNL     1       3.234   4.277  19.987  0.00  0.00    +0.000 A 
ATOM     21  C   UNL     1       3.582   2.930  19.869  0.00  0.00    +0.000 A 
ATOM     22  C   UNL     1       3.345   2.265  18.673  0.00  0.00    +0.000 A 
ATOM     23  F   UNL     1       3.700   0.980  18.554  0.00  0.00    +0.000 F 
ATOM     24  C   UNL     1       2.749   2.917  17.599  0.00  0.00    +0.000 A 
ATOM     25  C   UNL     1       2.395   4.265  17.718  0.00  0.00    +0.000 A 
ENDBRANCH  13  19
BRANCH   2  26
ATOM     26  C   UNL     1      -3.480  13.382  22.963  0.00  0.00    +0.000 C 
BRANCH  26  27
ATOM     27  C   UNL     1      -4.914  13.646  23.371  0.00  0.00    +0.000 A 
ATOM     28  C   UNL     1      -5.866  12.642  23.584  0.00  0.00    +0.000 A 
ATOM     29  C   UNL     1      -7.171  12.972  23.967  0.00  0.00    +0.000 A 
ATOM     30  C   UNL     1      -7.544  14.304  24.135  0.00  0.00    +0.000 A 
ATOM     31  C   UNL     1      -6.610  15.313  23.922  0.00  0.00    +0.000 A 
ATOM     32  C   UNL     1      -5.307  14.987  23.545  0.00  0.00    +0.000 A 
ENDBRANCH  26  27
ENDBRANCH   2  26
TORSDOF 3
ENDMDL
MODEL 8
REMARK VINA RESULT:      -7.9      2.814      5.130
REMARK  Name = 
REMARK  3 active torsions:
REMARK  status: ('A' for Active; 'I' for Inactive)
REMARK    1  A    between atoms: C_2  and  C_3
REMARK    2  A    between atoms: C_3  and  C_4
REMARK    3  A    between atoms: C_20  and  C_21
REMARK                            x       y       z     vdW  Elec       q    Type
REMARK                         _______ _______ _______ _____ _____    ______ ____
ROOT
ATOM      1  O   UNL     1      -3.299  15.581  21.409  0.00  0.00    +0.000 OA
ATOM      2  C   UNL     1      -2.924  14.503  21.879  0.00  0.00    +0.000 C 
ATOM      3  N   UNL     1      -2.043  13.672  21.193  0.00  0.00    +0.000 N 
ATOM      4  C   UNL     1      -1.451  14.135  19.937  0.00  0.00    +0.000 C 
ATOM      5  C   UNL     1      -0.002  14.613  20.051  0.00  0.00    +0.000 C 
ATOM      6  C   UNL     1       0.991  13.715  20.789  0.00  0.00    +0.000 C 
ATOM      7  N   UNL     1       0.594  12.311  20.851  0.00  0.00    +0.000 N 
ATOM      8  C   UNL     1       1.087  11.308  20.014  0.00  0.00    +0.000 A 
ATOM      9  C   UNL     1       1.735  11.680  18.697  0.00  0.00    +0.000 A 
ATOM     10  C   UNL     1       2.233  10.690  17.951  0.00  0.00    +0.000 A 
ATOM     11  N   UNL     1       2.125   9.393  18.408  0.00  0.00    +0.000 N 
ATOM     12  C   UNL     1       2.559   8.231  17.831  0.00  0.00    +0.000 A 
ATOM     13  C   UNL     1       2.181   7.233  18.698  0.00  0.00    +0.000 A 
ATOM     14  N   UNL     1       1.511   7.761  19.779  0.00  0.00    +0.000 NA
ATOM     15  C   UNL     1       1.493   9.071  19.599  0.00  0.00    +0.000 A 
ATOM     16  N   UNL     1       0.964  10.052  20.390  0.00  0.00    +0.000 NA
ATOM     17  C   UNL     1      -0.326  11.991  21.956  0.00  0.00    +0.000 C 
ATOM     18  C   UNL     1      -1.778  12.264  21.547  0.00  0.00    +0.000 C 
ENDROOT
BRANCH  13  19
ATOM     19  C   UNL     1       2.402   5.815  18.471  0.00  0.00    +0.000 A 
ATOM     20  C   UNL     1       3.408   5.370  17.594  0.00  0.00    +0.000 A 
ATOM     21  C   UNL     1       3.564   4.008  17.323  0.00  0.00    +0.000 A 
ATOM     22  C   UNL     1       2.721   3.090  17.933  0.00  0.00    +0.000 A 
ATOM     23  F   UNL     1       2.858   1.787  17.656  0.00  0.00    +0.000 F 
ATOM     24  C   UNL     1       1.736   3.505  18.823  0.00  0.00    +0.000 A 
ATOM     25  C   UNL     1       1.582   4.867  19.098  0.00  0.00    +0.000 A 
ENDBRANCH  13  19
BRANCH   2  26
ATOM     26  C   UNL     1      -3.369  14.094  23.275  0.00  0.00    +0.000 C 
BRANCH  26  27
ATOM     27  C   UNL     1      -4.854  14.044  23.565  0.00  0.00    +0.000 A 
ATOM     28  C   UNL     1      -5.674  15.176  23.645  0.00  0.00    +0.000 A 
ATOM     29  C   UNL     1      -7.042  15.043  23.912  0.00  0.00    +0.000 A 
ATOM     30  C   UNL     1      -7.606  13.783  24.108  0.00  0.00    +0.000 A 
ATOM     31  C   UNL     1      -6.802  12.650  24.035  0.00  0.00    +0.000 A 
ATOM     32  C   UNL     1      -5.439  12.780  23.765  0.00  0.00    +0.000 A 
ENDBRANCH  26  27
ENDBRANCH   2  26
TORSDOF 3
ENDMDL
MODEL 9
REMARK VINA RESULT:      -7.7      2.594      4.526
REMARK  Name = 
REMARK  3 active torsions:
REMARK  status: ('A' for Active; 'I' for Inactive)
REMARK    1  A    between atoms: C_2  and  C_3
REMARK    2  A    between atoms: C_3  and  C_4
REMARK    3  A    between atoms: C_20  and  C_21
REMARK                            x       y       z     vdW  Elec       q    Type
REMARK                         _______ _______ _______ _____ _____    ______ ____
ROOT
ATOM      1  O   UNL     1      -3.550  15.197  21.184  0.00  0.00    +0.000 OA
ATOM      2  C   UNL     1      -3.038  14.245  21.781  0.00  0.00    +0.000 C 
ATOM      3  N   UNL     1      -2.180  13.355  21.141  0.00  0.00    +0.000 N 
ATOM      4  C   UNL     1      -1.776  13.618  19.759  0.00  0.00    +0.000 C 
ATOM      5  C   UNL     1      -0.366  14.191  19.602  0.00  0.00    +0.000 C 
ATOM      6  C   UNL     1       0.774  13.500  20.351  0.00  0.00    +0.000 C 
ATOM      7  N   UNL     1       0.500  12.110  20.703  0.00  0.00    +0.000 N 
ATOM      8  C   UNL     1       0.970  11.002  19.996  0.00  0.00    +0.000 A 
ATOM      9  C   UNL     1       1.430  11.167  18.562  0.00  0.00    +0.000 A 
ATOM     10  C   UNL     1       1.916  10.089  17.940  0.00  0.00    +0.000 A 
ATOM     11  N   UNL     1       1.964   8.892  18.623  0.00  0.00    +0.000 N 
ATOM     12  C   UNL     1       2.419   7.672  18.204  0.00  0.00    +0.000 A 
ATOM     13  C   UNL     1       2.225   6.826  19.271  0.00  0.00    +0.000 A 
ATOM     14  N   UNL     1       1.645   7.502  20.322  0.00  0.00    +0.000 NA
ATOM     15  C   UNL     1       1.502   8.754  19.923  0.00  0.00    +0.000 A 
ATOM     16  N   UNL     1       0.993   9.829  20.594  0.00  0.00    +0.000 NA
ATOM     17  C   UNL     1      -0.258  11.942  21.955  0.00  0.00    +0.000 C 
ATOM     18  C   UNL     1      -1.765  12.052  21.695  0.00  0.00    +0.000 C 
ENDROOT
BRANCH  13  19
ATOM     19  C   UNL     1       2.531   5.406  19.265  0.00  0.00    +0.000 A 
ATOM     20  C   UNL     1       2.566   4.667  20.461  0.00  0.00    +0.000 A 
ATOM     21  C   UNL     1       2.935   3.320  20.454  0.00  0.00    +0.000 A 
ATOM     22  C   UNL     1       3.262   2.707  19.252  0.00  0.00    +0.000 A 
ATOM     23  F   UNL     1       3.637   1.422  19.250  0.00  0.00    +0.000 F 
ATOM     24  C   UNL     1       3.210   3.411  18.054  0.00  0.00    +0.000 A 
ATOM     25  C   UNL     1       2.837   4.759  18.059  0.00  0.00    +0.000 A 
ENDBRANCH  13  19
BRANCH   2  26
ATOM     26  C   UNL     1      -3.284  14.069  23.272  0.00  0.00    +0.000 C 
BRANCH  26  27
ATOM     27  C   UNL     1      -2.687  15.088  24.219  0.00  0.00    +0.000 A 
ATOM     28  C   UNL     1      -1.417  14.970  24.796  0.00  0.00    +0.000 A 
ATOM     29  C   UNL     1      -0.935  15.962  25.659  0.00  0.00    +0.000 A 
ATOM     30  C   UNL     1      -1.715  17.077  25.961  0.00  0.00    +0.000 A 
ATOM     31  C   UNL     1      -2.981  17.204  25.399  0.00  0.00    +0.000 A 
ATOM     32  C   UNL     1      -3.462  16.220  24.535  0.00  0.00    +0.000 A 
ENDBRANCH  26  27
ENDBRANCH   2  26
TORSDOF 3
ENDMDL
