MODEL 1
REMARK VINA RESULT:      -8.3      0.000      0.000
REMARK  Name = 
REMARK  6 active torsions:
REMARK  status: ('A' for Active; 'I' for Inactive)
REMARK    1  A    between atoms: C_1  and  C_2
REMARK    2  A    between atoms: C_2  and  C_3
REMARK    3  A    between atoms: C_7  and  C_8
REMARK    4  A    between atoms: C_8  and  N_9
REMARK    5  A    between atoms: N_9  and  C_10
REMARK    6  A    between atoms: C_22  and  O_23
REMARK                            x       y       z     vdW  Elec       q    Type
REMARK                         _______ _______ _______ _____ _____    ______ ____
ROOT
ATOM      1  N   UNL     1       1.833   8.096  19.700  0.00  0.00    +0.000 N 
ATOM      2  H   UNL     1       1.507   8.237  18.734  0.00  0.00    +0.000 HD
ENDROOT
BRANCH   1   3
ATOM      3  C   UNL     1       1.094   8.914  20.554  0.00  0.00    +0.000 C 
ATOM      4  C   UNL     1       1.135   8.875  21.890  0.00  0.00    +0.000 C 
ATOM      5  C   UNL     1       0.296   9.718  22.753  0.00  0.00    +0.000 C 
ATOM      6  O   UNL     1       0.313   9.565  23.967  0.00  0.00    +0.000 OA
ATOM      7  C   UNL     1      -0.555  10.729  22.109  0.00  0.00    +0.000 A 
ATOM      8  C   UNL     1      -1.294  11.613  22.906  0.00  0.00    +0.000 A 
ATOM      9  C   UNL     1      -2.101  12.580  22.306  0.00  0.00    +0.000 A 
ATOM     10  C   UNL     1      -2.182  12.656  20.917  0.00  0.00    +0.000 A 
ATOM     11  C   UNL     1      -1.449  11.771  20.122  0.00  0.00    +0.000 A 
ATOM     12  C   UNL     1      -0.626  10.809  20.722  0.00  0.00    +0.000 A 
ATOM     13  C   UNL     1       0.164   9.891  19.878  0.00  0.00    +0.000 C 
ATOM     14  O   UNL     1       0.066   9.916  18.653  0.00  0.00    +0.000 OA
ENDBRANCH   1   3
BRANCH   1  15
ATOM     15  C   UNL     1       2.176   6.699  19.972  0.00  0.00    +0.000 C 
BRANCH  15  22
ATOM     16  C   UNL     1       7.313   4.532  16.747  0.00  0.00    +0.000 C 
ATOM     17  C   UNL     1       6.502   5.572  17.518  0.00  0.00    +0.000 C 
ATOM     18  C   UNL     1       7.258   6.891  17.610  0.00  0.00    +0.000 C 
ATOM     19  O   UNL     1       6.253   5.075  18.829  0.00  0.00    +0.000 OA
ATOM     20  C   UNL     1       4.924   4.573  18.825  0.00  0.00    +0.000 C 
ATOM     21  O   UNL     1       4.125   5.224  19.822  0.00  0.00    +0.000 OA
ATOM     22  C   UNL     1       3.380   6.252  19.134  0.00  0.00    +0.000 C 
ATOM     23  C   UNL     1       3.031   5.608  17.795  0.00  0.00    +0.000 C 
ATOM     24  C   UNL     1       4.332   4.903  17.461  0.00  0.00    +0.000 C 
ATOM     25  O   UNL     1       5.261   5.799  16.848  0.00  0.00    +0.000 OA
BRANCH  23  26
ATOM     26  O   UNL     1       1.969   4.657  17.918  0.00  0.00    +0.000 OA
ATOM     27  H   UNL     1       1.929   4.356  18.845  0.00  0.00    +0.000 HD
ENDBRANCH  23  26
ENDBRANCH  15  22
ENDBRANCH   1  15
TORSDOF 4
ENDMDL
MODEL 2
REMARK VINA RESULT:      -8.0      1.963      3.763
REMARK  Name = 
REMARK  6 active torsions:
REMARK  status: ('A' for Active; 'I' for Inactive)
REMARK    1  A    between atoms: C_1  and  C_2
REMARK    2  A    between atoms: C_2  and  C_3
REMARK    3  A    between atoms: C_7  and  C_8
REMARK    4  A    between atoms: C_8  and  N_9
REMARK    5  A    between atoms: N_9  and  C_10
REMARK    6  A    between atoms: C_22  and  O_23
REMARK                            x       y       z     vdW  Elec       q    Type
REMARK                         _______ _______ _______ _____ _____    ______ ____
ROOT
ATOM      1  N   UNL     1       2.836   5.555  18.876  0.00  0.00    +0.000 N 
ATOM      2  H   UNL     1       2.162   4.879  19.261  0.00  0.00    +0.000 HD
ENDROOT
BRANCH   1   3
ATOM      3  C   UNL     1       2.316   6.843  19.011  0.00  0.00    +0.000 C 
ATOM      4  C   UNL     1       2.364   7.797  18.076  0.00  0.00    +0.000 C 
ATOM      5  C   UNL     1       1.853   9.160  18.281  0.00  0.00    +0.000 C 
ATOM      6  O   UNL     1       2.014  10.014  17.419  0.00  0.00    +0.000 OA
ATOM      7  C   UNL     1       1.162   9.453  19.545  0.00  0.00    +0.000 A 
ATOM      8  C   UNL     1       0.579  10.713  19.733  0.00  0.00    +0.000 A 
ATOM      9  C   UNL     1      -0.084  11.000  20.926  0.00  0.00    +0.000 A 
ATOM     10  C   UNL     1      -0.154  10.039  21.934  0.00  0.00    +0.000 A 
ATOM     11  C   UNL     1       0.431   8.784  21.748  0.00  0.00    +0.000 A 
ATOM     12  C   UNL     1       1.085   8.488  20.544  0.00  0.00    +0.000 A 
ATOM     13  C   UNL     1       1.682   7.153  20.344  0.00  0.00    +0.000 C 
ATOM     14  O   UNL     1       1.669   6.313  21.241  0.00  0.00    +0.000 OA
ENDBRANCH   1   3
BRANCH   1  15
ATOM     15  C   UNL     1       4.222   5.180  19.159  0.00  0.00    +0.000 C 
BRANCH  15  22
ATOM     16  C   UNL     1       7.630   5.005  13.696  0.00  0.00    +0.000 C 
ATOM     17  C   UNL     1       6.402   4.748  14.569  0.00  0.00    +0.000 C 
ATOM     18  C   UNL     1       5.319   4.022  13.783  0.00  0.00    +0.000 C 
ATOM     19  O   UNL     1       5.899   6.000  15.027  0.00  0.00    +0.000 OA
ATOM     20  C   UNL     1       6.365   6.159  16.360  0.00  0.00    +0.000 C 
ATOM     21  O   UNL     1       5.269   6.331  17.269  0.00  0.00    +0.000 OA
ATOM     22  C   UNL     1       5.032   5.038  17.865  0.00  0.00    +0.000 C 
ATOM     23  C   UNL     1       6.433   4.460  18.040  0.00  0.00    +0.000 C 
ATOM     24  C   UNL     1       7.085   4.871  16.733  0.00  0.00    +0.000 C 
ATOM     25  O   UNL     1       6.775   3.944  15.689  0.00  0.00    +0.000 OA
BRANCH  23  26
ATOM     26  O   UNL     1       7.123   5.052  19.145  0.00  0.00    +0.000 OA
ATOM     27  H   UNL     1       8.082   4.989  18.981  0.00  0.00    +0.000 HD
ENDBRANCH  23  26
ENDBRANCH  15  22
ENDBRANCH   1  15
TORSDOF 4
ENDMDL
MODEL 3
REMARK VINA RESULT:      -7.9      1.023      1.072
REMARK  Name = 
REMARK  6 active torsions:
REMARK  status: ('A' for Active; 'I' for Inactive)
REMARK    1  A    between atoms: C_1  and  C_2
REMARK    2  A    between atoms: C_2  and  C_3
REMARK    3  A    between atoms: C_7  and  C_8
REMARK    4  A    between atoms: C_8  and  N_9
REMARK    5  A    between atoms: N_9  and  C_10
REMARK    6  A    between atoms: C_22  and  O_23
REMARK                            x       y       z     vdW  Elec       q    Type
REMARK                         _______ _______ _______ _____ _____    ______ ____
ROOT
ATOM      1  N   UNL     1       1.837   7.915  19.765  0.00  0.00    +0.000 N 
ATOM      2  H   UNL     1       1.437   7.932  18.816  0.00  0.00    +0.000 HD
ENDROOT
BRANCH   1   3
ATOM      3  C   UNL     1       1.126   8.799  20.575  0.00  0.00    +0.000 C 
ATOM      4  C   UNL     1       1.137   8.801  21.912  0.00  0.00    +0.000 C 
ATOM      5  C   UNL     1       0.327   9.716  22.728  0.00  0.00    +0.000 C 
ATOM      6  O   UNL     1       0.311   9.603  23.948  0.00  0.00    +0.000 OA
ATOM      7  C   UNL     1      -0.455  10.748  22.034  0.00  0.00    +0.000 A 
ATOM      8  C   UNL     1      -1.161  11.696  22.786  0.00  0.00    +0.000 A 
ATOM      9  C   UNL     1      -1.904  12.684  22.137  0.00  0.00    +0.000 A 
ATOM     10  C   UNL     1      -1.952  12.717  20.745  0.00  0.00    +0.000 A 
ATOM     11  C   UNL     1      -1.252  11.770  19.995  0.00  0.00    +0.000 A 
ATOM     12  C   UNL     1      -0.493  10.786  20.644  0.00  0.00    +0.000 A 
ATOM     13  C   UNL     1       0.264   9.800  19.848  0.00  0.00    +0.000 C 
ATOM     14  O   UNL     1       0.192   9.789  18.621  0.00  0.00    +0.000 OA
ENDBRANCH   1   3
BRANCH   1  15
ATOM     15  C   UNL     1       2.260   6.571  20.164  0.00  0.00    +0.000 C 
BRANCH  15  22
ATOM     16  C   UNL     1       6.063   3.717  15.818  0.00  0.00    +0.000 C 
ATOM     17  C   UNL     1       5.259   4.878  16.402  0.00  0.00    +0.000 C 
ATOM     18  C   UNL     1       5.323   6.096  15.491  0.00  0.00    +0.000 C 
ATOM     19  O   UNL     1       5.800   5.210  17.678  0.00  0.00    +0.000 OA
ATOM     20  C   UNL     1       4.950   4.610  18.646  0.00  0.00    +0.000 C 
ATOM     21  O   UNL     1       4.417   5.594  19.543  0.00  0.00    +0.000 OA
ATOM     22  C   UNL     1       3.091   5.903  19.062  0.00  0.00    +0.000 C 
ATOM     23  C   UNL     1       2.561   4.555  18.581  0.00  0.00    +0.000 C 
ATOM     24  C   UNL     1       3.785   3.990  17.886  0.00  0.00    +0.000 C 
ATOM     25  O   UNL     1       3.894   4.484  16.550  0.00  0.00    +0.000 OA
BRANCH  23  26
ATOM     26  O   UNL     1       2.175   3.711  19.669  0.00  0.00    +0.000 OA
ATOM     27  H   UNL     1       2.445   2.797  19.463  0.00  0.00    +0.000 HD
ENDBRANCH  23  26
ENDBRANCH  15  22
ENDBRANCH   1  15
TORSDOF 4
ENDMDL
MODEL 4
REMARK VINA RESULT:      -7.9      1.193      2.434
REMARK  Name = 
REMARK  6 active torsions:
REMARK  status: ('A' for Active; 'I' for Inactive)
REMARK    1  A    between atoms: C_1  and  C_2
REMARK    2  A    between atoms: C_2  and  C_3
REMARK    3  A    between atoms: C_7  and  C_8
REMARK    4  A    between atoms: C_8  and  N_9
REMARK    5  A    between atoms: N_9  and  C_10
REMARK    6  A    between atoms: C_22  and  O_23
REMARK                            x       y       z     vdW  Elec       q    Type
REMARK                         _______ _______ _______ _____ _____    ______ ____
ROOT
ATOM      1  N   UNL     1       2.031   6.835  20.907  0.00  0.00    +0.000 N 
ATOM      2  H   UNL     1       2.894   7.021  21.436  0.00  0.00    +0.000 HD
ENDROOT
BRANCH   1   3
ATOM      3  C   UNL     1       1.606   8.017  20.300  0.00  0.00    +0.000 C 
ATOM      4  C   UNL     1       1.925   8.408  19.062  0.00  0.00    +0.000 C 
ATOM      5  C   UNL     1       1.501   9.690  18.482  0.00  0.00    +0.000 C 
ATOM      6  O   UNL     1       1.906  10.030  17.378  0.00  0.00    +0.000 OA
ATOM      7  C   UNL     1       0.593  10.536  19.270  0.00  0.00    +0.000 A 
ATOM      8  C   UNL     1       0.093  11.717  18.707  0.00  0.00    +0.000 A 
ATOM      9  C   UNL     1      -0.773  12.525  19.445  0.00  0.00    +0.000 A 
ATOM     10  C   UNL     1      -1.128  12.163  20.743  0.00  0.00    +0.000 A 
ATOM     11  C   UNL     1      -0.627  10.987  21.305  0.00  0.00    +0.000 A 
ATOM     12  C   UNL     1       0.231  10.166  20.562  0.00  0.00    +0.000 A 
ATOM     13  C   UNL     1       0.742   8.913  21.152  0.00  0.00    +0.000 C 
ATOM     14  O   UNL     1       0.474   8.605  22.311  0.00  0.00    +0.000 OA
ENDBRANCH   1   3
BRANCH   1  15
ATOM     15  C   UNL     1       2.048   5.523  20.258  0.00  0.00    +0.000 C 
BRANCH  15  22
ATOM     16  C   UNL     1       7.365   4.424  16.792  0.00  0.00    +0.000 C 
ATOM     17  C   UNL     1       6.519   5.157  17.832  0.00  0.00    +0.000 C 
ATOM     18  C   UNL     1       7.289   6.325  18.433  0.00  0.00    +0.000 C 
ATOM     19  O   UNL     1       6.167   4.239  18.863  0.00  0.00    +0.000 OA
ATOM     20  C   UNL     1       4.833   3.827  18.599  0.00  0.00    +0.000 C 
ATOM     21  O   UNL     1       3.976   4.117  19.712  0.00  0.00    +0.000 OA
ATOM     22  C   UNL     1       3.301   5.352  19.391  0.00  0.00    +0.000 C 
ATOM     23  C   UNL     1       3.037   5.238  17.892  0.00  0.00    +0.000 C 
ATOM     24  C   UNL     1       4.347   4.643  17.409  0.00  0.00    +0.000 C 
ATOM     25  O   UNL     1       5.333   5.658  17.213  0.00  0.00    +0.000 OA
BRANCH  23  26
ATOM     26  O   UNL     1       1.953   4.351  17.604  0.00  0.00    +0.000 OA
ATOM     27  H   UNL     1       1.545   4.624  16.761  0.00  0.00    +0.000 HD
ENDBRANCH  23  26
ENDBRANCH  15  22
ENDBRANCH   1  15
TORSDOF 4
ENDMDL
MODEL 5
REMARK VINA RESULT:      -7.9      0.888      1.182
REMARK  Name = 
REMARK  6 active torsions:
REMARK  status: ('A' for Active; 'I' for Inactive)
REMARK    1  A    between atoms: C_1  and  C_2
REMARK    2  A    between atoms: C_2  and  C_3
REMARK    3  A    between atoms: C_7  and  C_8
REMARK    4  A    between atoms: C_8  and  N_9
REMARK    5  A    between atoms: N_9  and  C_10
REMARK    6  A    between atoms: C_22  and  O_23
REMARK                            x       y       z     vdW  Elec       q    Type
REMARK                         _______ _______ _______ _____ _____    ______ ____
ROOT
ATOM      1  N   UNL     1       2.212   7.579  20.835  0.00  0.00    +0.000 N 
ATOM      2  H   UNL     1       3.134   7.988  20.628  0.00  0.00    +0.000 HD
ENDROOT
BRANCH   1   3
ATOM      3  C   UNL     1       1.274   8.605  20.950  0.00  0.00    +0.000 C 
ATOM      4  C   UNL     1       0.622   8.933  22.070  0.00  0.00    +0.000 C 
ATOM      5  C   UNL     1      -0.402   9.986  22.134  0.00  0.00    +0.000 C 
ATOM      6  O   UNL     1      -1.030  10.172  23.168  0.00  0.00    +0.000 OA
ATOM      7  C   UNL     1      -0.642  10.786  20.924  0.00  0.00    +0.000 A 
ATOM      8  C   UNL     1      -1.541  11.859  20.978  0.00  0.00    +0.000 A 
ATOM      9  C   UNL     1      -1.774  12.628  19.838  0.00  0.00    +0.000 A 
ATOM     10  C   UNL     1      -1.123  12.320  18.644  0.00  0.00    +0.000 A 
ATOM     11  C   UNL     1      -0.230  11.247  18.589  0.00  0.00    +0.000 A 
ATOM     12  C   UNL     1       0.017  10.482  19.737  0.00  0.00    +0.000 A 
ATOM     13  C   UNL     1       0.978   9.363  19.680  0.00  0.00    +0.000 C 
ATOM     14  O   UNL     1       1.523   9.051  18.624  0.00  0.00    +0.000 OA
ENDBRANCH   1   3
BRANCH   1  15
ATOM     15  C   UNL     1       1.991   6.321  20.119  0.00  0.00    +0.000 C 
BRANCH  15  22
ATOM     16  C   UNL     1       7.179   4.395  16.824  0.00  0.00    +0.000 C 
ATOM     17  C   UNL     1       6.380   5.347  17.712  0.00  0.00    +0.000 C 
ATOM     18  C   UNL     1       7.193   6.591  18.044  0.00  0.00    +0.000 C 
ATOM     19  O   UNL     1       6.038   4.668  18.917  0.00  0.00    +0.000 OA
ATOM     20  C   UNL     1       4.689   4.248  18.774  0.00  0.00    +0.000 C 
ATOM     21  O   UNL     1       3.871   4.781  19.825  0.00  0.00    +0.000 OA
ATOM     22  C   UNL     1       3.214   5.943  19.275  0.00  0.00    +0.000 C 
ATOM     23  C   UNL     1       2.905   5.534  17.837  0.00  0.00    +0.000 C 
ATOM     24  C   UNL     1       4.186   4.817  17.455  0.00  0.00    +0.000 C 
ATOM     25  O   UNL     1       5.189   5.744  17.032  0.00  0.00    +0.000 OA
BRANCH  23  26
ATOM     26  O   UNL     1       1.793   4.637  17.762  0.00  0.00    +0.000 OA
ATOM     27  H   UNL     1       1.784   4.229  16.876  0.00  0.00    +0.000 HD
ENDBRANCH  23  26
ENDBRANCH  15  22
ENDBRANCH   1  15
TORSDOF 4
ENDMDL
MODEL 6
REMARK VINA RESULT:      -7.8      2.066      7.994
REMARK  Name = 
REMARK  6 active torsions:
REMARK  status: ('A' for Active; 'I' for Inactive)
REMARK    1  A    between atoms: C_1  and  C_2
REMARK    2  A    between atoms: C_2  and  C_3
REMARK    3  A    between atoms: C_7  and  C_8
REMARK    4  A    between atoms: C_8  and  N_9
REMARK    5  A    between atoms: N_9  and  C_10
REMARK    6  A    between atoms: C_22  and  O_23
REMARK                            x       y       z     vdW  Elec       q    Type
REMARK                         _______ _______ _______ _____ _____    ______ ____
ROOT
ATOM      1  N   UNL     1       2.648   8.590  18.286  0.00  0.00    +0.000 N 
ATOM      2  H   UNL     1       3.090   9.078  19.078  0.00  0.00    +0.000 HD
ENDROOT
BRANCH   1   3
ATOM      3  C   UNL     1       2.857   7.218  18.423  0.00  0.00    +0.000 C 
ATOM      4  C   UNL     1       3.441   6.431  17.513  0.00  0.00    +0.000 C 
ATOM      5  C   UNL     1       3.590   4.978  17.674  0.00  0.00    +0.000 C 
ATOM      6  O   UNL     1       4.048   4.302  16.762  0.00  0.00    +0.000 OA
ATOM      7  C   UNL     1       3.166   4.380  18.948  0.00  0.00    +0.000 A 
ATOM      8  C   UNL     1       3.383   3.014  19.170  0.00  0.00    +0.000 A 
ATOM      9  C   UNL     1       2.990   2.436  20.378  0.00  0.00    +0.000 A 
ATOM     10  C   UNL     1       2.369   3.214  21.353  0.00  0.00    +0.000 A 
ATOM     11  C   UNL     1       2.149   4.575  21.130  0.00  0.00    +0.000 A 
ATOM     12  C   UNL     1       2.557   5.161  19.924  0.00  0.00    +0.000 A 
ATOM     13  C   UNL     1       2.343   6.605  19.701  0.00  0.00    +0.000 C 
ATOM     14  O   UNL     1       1.755   7.293  20.533  0.00  0.00    +0.000 OA
ENDBRANCH   1   3
BRANCH   1  15
ATOM     15  C   UNL     1       1.380   9.208  17.892  0.00  0.00    +0.000 C 
BRANCH  15  22
ATOM     16  C   UNL     1      -1.214  12.284  22.922  0.00  0.00    +0.000 C 
ATOM     17  C   UNL     1      -0.537  11.108  22.219  0.00  0.00    +0.000 C 
ATOM     18  C   UNL     1      -0.337   9.943  23.179  0.00  0.00    +0.000 C 
ATOM     19  O   UNL     1       0.728  11.539  21.726  0.00  0.00    +0.000 OA
ATOM     20  C   UNL     1       0.554  11.799  20.340  0.00  0.00    +0.000 C 
ATOM     21  O   UNL     1       1.453  11.005  19.552  0.00  0.00    +0.000 OA
ATOM     22  C   UNL     1       0.691   9.869  19.091  0.00  0.00    +0.000 C 
ATOM     23  C   UNL     1      -0.688  10.455  18.801  0.00  0.00    +0.000 C 
ATOM     24  C   UNL     1      -0.867  11.383  19.988  0.00  0.00    +0.000 C 
ATOM     25  O   UNL     1      -1.351  10.672  21.130  0.00  0.00    +0.000 OA
BRANCH  23  26
ATOM     26  O   UNL     1      -0.707  11.202  17.581  0.00  0.00    +0.000 OA
ATOM     27  H   UNL     1       0.153  11.651  17.480  0.00  0.00    +0.000 HD
ENDBRANCH  23  26
ENDBRANCH  15  22
ENDBRANCH   1  15
TORSDOF 4
ENDMDL
MODEL 7
REMARK VINA RESULT:      -7.8      1.518      2.695
REMARK  Name = 
REMARK  6 active torsions:
REMARK  status: ('A' for Active; 'I' for Inactive)
REMARK    1  A    between atoms: C_1  and  C_2
REMARK    2  A    between atoms: C_2  and  C_3
REMARK    3  A    between atoms: C_7  and  C_8
REMARK    4  A    between atoms: C_8  and  N_9
REMARK    5  A    between atoms: N_9  and  C_10
REMARK    6  A    between atoms: C_22  and  O_23
REMARK                            x       y       z     vdW  Elec       q    Type
REMARK                         _______ _______ _______ _____ _____    ______ ____
ROOT
ATOM      1  N   UNL     1       2.071   6.683  20.857  0.00  0.00    +0.000 N 
ATOM      2  H   UNL     1       2.985   6.827  21.309  0.00  0.00    +0.000 HD
ENDROOT
BRANCH   1   3
ATOM      3  C   UNL     1       1.669   7.875  20.255  0.00  0.00    +0.000 C 
ATOM      4  C   UNL     1       2.000   8.267  19.020  0.00  0.00    +0.000 C 
ATOM      5  C   UNL     1       1.600   9.558  18.444  0.00  0.00    +0.000 C 
ATOM      6  O   UNL     1       2.016   9.897  17.343  0.00  0.00    +0.000 OA
ATOM      7  C   UNL     1       0.703  10.415  19.232  0.00  0.00    +0.000 A 
ATOM      8  C   UNL     1       0.226  11.608  18.673  0.00  0.00    +0.000 A 
ATOM      9  C   UNL     1      -0.631  12.426  19.411  0.00  0.00    +0.000 A 
ATOM     10  C   UNL     1      -0.998  12.064  20.706  0.00  0.00    +0.000 A 
ATOM     11  C   UNL     1      -0.518  10.877  21.265  0.00  0.00    +0.000 A 
ATOM     12  C   UNL     1       0.329  10.045  20.521  0.00  0.00    +0.000 A 
ATOM     13  C   UNL     1       0.816   8.781  21.107  0.00  0.00    +0.000 C 
ATOM     14  O   UNL     1       0.538   8.472  22.264  0.00  0.00    +0.000 OA
ENDBRANCH   1   3
BRANCH   1  15
ATOM     15  C   UNL     1       1.956   5.358  20.247  0.00  0.00    +0.000 C 
BRANCH  15  22
ATOM     16  C   UNL     1       6.978   4.452  16.316  0.00  0.00    +0.000 C 
ATOM     17  C   UNL     1       5.677   5.115  16.768  0.00  0.00    +0.000 C 
ATOM     18  C   UNL     1       5.225   6.166  15.763  0.00  0.00    +0.000 C 
ATOM     19  O   UNL     1       5.896   5.731  18.034  0.00  0.00    +0.000 OA
ATOM     20  C   UNL     1       5.362   4.848  19.010  0.00  0.00    +0.000 C 
ATOM     21  O   UNL     1       4.359   5.503  19.800  0.00  0.00    +0.000 OA
ATOM     22  C   UNL     1       3.086   5.113  19.240  0.00  0.00    +0.000 C 
ATOM     23  C   UNL     1       3.298   3.653  18.849  0.00  0.00    +0.000 C 
ATOM     24  C   UNL     1       4.693   3.708  18.256  0.00  0.00    +0.000 C 
ATOM     25  O   UNL     1       4.656   4.124  16.889  0.00  0.00    +0.000 OA
BRANCH  23  26
ATOM     26  O   UNL     1       3.276   2.785  19.986  0.00  0.00    +0.000 OA
ATOM     27  H   UNL     1       2.377   2.792  20.363  0.00  0.00    +0.000 HD
ENDBRANCH  23  26
ENDBRANCH  15  22
ENDBRANCH   1  15
TORSDOF 4
ENDMDL
MODEL 8
REMARK VINA RESULT:      -7.7      0.710      2.092
REMARK  Name = 
REMARK  6 active torsions:
REMARK  status: ('A' for Active; 'I' for Inactive)
REMARK    1  A    between atoms: C_1  and  C_2
REMARK    2  A    between atoms: C_2  and  C_3
REMARK    3  A    between atoms: C_7  and  C_8
REMARK    4  A    between atoms: C_8  and  N_9
REMARK    5  A    between atoms: N_9  and  C_10
REMARK    6  A    between atoms: C_22  and  O_23
REMARK                            x       y       z     vdW  Elec       q    Type
REMARK                         _______ _______ _______ _____ _____    ______ ____
ROOT
ATOM      1  N   UNL     1       2.022   7.759  20.914  0.00  0.00    +0.000 N 
ATOM      2  H   UNL     1       2.981   8.113  20.794  0.00  0.00    +0.000 HD
ENDROOT
BRANCH   1   3
ATOM      3  C   UNL     1       1.120   8.797  20.680  0.00  0.00    +0.000 C 
ATOM      4  C   UNL     1       0.693   9.193  19.476  0.00  0.00    +0.000 C 
ATOM      5  C   UNL     1      -0.215  10.329  19.271  0.00  0.00    +0.000 C 
ATOM      6  O   UNL     1      -0.492  10.700  18.137  0.00  0.00    +0.000 OA
ATOM      7  C   UNL     1      -0.761  10.998  20.461  0.00  0.00    +0.000 A 
ATOM      8  C   UNL     1      -1.704  12.022  20.302  0.00  0.00    +0.000 A 
ATOM      9  C   UNL     1      -2.233  12.659  21.425  0.00  0.00    +0.000 A 
ATOM     10  C   UNL     1      -1.812  12.287  22.700  0.00  0.00    +0.000 A 
ATOM     11  C   UNL     1      -0.869  11.269  22.859  0.00  0.00    +0.000 A 
ATOM     12  C   UNL     1      -0.348  10.616  21.734  0.00  0.00    +0.000 A 
ATOM     13  C   UNL     1       0.632   9.526  21.907  0.00  0.00    +0.000 C 
ATOM     14  O   UNL     1       1.046   9.219  23.023  0.00  0.00    +0.000 OA
ENDBRANCH   1   3
BRANCH   1  15
ATOM     15  C   UNL     1       1.868   6.391  20.416  0.00  0.00    +0.000 C 
BRANCH  15  22
ATOM     16  C   UNL     1       6.621   4.646  16.434  0.00  0.00    +0.000 C 
ATOM     17  C   UNL     1       5.866   5.611  17.347  0.00  0.00    +0.000 C 
ATOM     18  C   UNL     1       6.546   6.973  17.379  0.00  0.00    +0.000 C 
ATOM     19  O   UNL     1       5.834   5.065  18.662  0.00  0.00    +0.000 OA
ATOM     20  C   UNL     1       4.550   4.478  18.824  0.00  0.00    +0.000 C 
ATOM     21  O   UNL     1       3.862   5.050  19.945  0.00  0.00    +0.000 OA
ATOM     22  C   UNL     1       2.967   6.045  19.403  0.00  0.00    +0.000 C 
ATOM     23  C   UNL     1       2.472   5.415  18.104  0.00  0.00    +0.000 C 
ATOM     24  C   UNL     1       3.753   4.805  17.569  0.00  0.00    +0.000 C 
ATOM     25  O   UNL     1       4.531   5.775  16.864  0.00  0.00    +0.000 OA
BRANCH  23  26
ATOM     26  O   UNL     1       1.498   4.395  18.340  0.00  0.00    +0.000 OA
ATOM     27  H   UNL     1       0.734   4.554  17.754  0.00  0.00    +0.000 HD
ENDBRANCH  23  26
ENDBRANCH  15  22
ENDBRANCH   1  15
TORSDOF 4
ENDMDL
MODEL 9
REMARK VINA RESULT:      -7.7      1.554      2.417
REMARK  Name = 
REMARK  6 active torsions:
REMARK  status: ('A' for Active; 'I' for Inactive)
REMARK    1  A    between atoms: C_1  and  C_2
REMARK    2  A    between atoms: C_2  and  C_3
REMARK    3  A    between atoms: C_7  and  C_8
REMARK    4  A    between atoms: C_8  and  N_9
REMARK    5  A    between atoms: N_9  and  C_10
REMARK    6  A    between atoms: C_22  and  O_23
REMARK                            x       y       z     vdW  Elec       q    Type
REMARK                         _______ _______ _______ _____ _____    ______ ____
ROOT
ATOM      1  N   UNL     1       2.749   6.881  19.640  0.00  0.00    +0.000 N 
ATOM      2  H   UNL     1       3.641   7.338  19.406  0.00  0.00    +0.000 HD
ENDROOT
BRANCH   1   3
ATOM      3  C   UNL     1       1.828   7.853  20.033  0.00  0.00    +0.000 C 
ATOM      4  C   UNL     1       1.108   7.824  21.159  0.00  0.00    +0.000 C 
ATOM      5  C   UNL     1       0.107   8.842  21.507  0.00  0.00    +0.000 C 
ATOM      6  O   UNL     1      -0.587   8.706  22.507  0.00  0.00    +0.000 OA
ATOM      7  C   UNL     1      -0.032  10.004  20.618  0.00  0.00    +0.000 A 
ATOM      8  C   UNL     1      -0.908  11.039  20.971  0.00  0.00    +0.000 A 
ATOM      9  C   UNL     1      -1.043  12.149  20.137  0.00  0.00    +0.000 A 
ATOM     10  C   UNL     1      -0.319  12.220  18.948  0.00  0.00    +0.000 A 
ATOM     11  C   UNL     1       0.551  11.186  18.594  0.00  0.00    +0.000 A 
ATOM     12  C   UNL     1       0.701  10.077  19.437  0.00  0.00    +0.000 A 
ATOM     13  C   UNL     1       1.638   8.998  19.070  0.00  0.00    +0.000 C 
ATOM     14  O   UNL     1       2.247   9.026  18.003  0.00  0.00    +0.000 OA
ENDBRANCH   1   3
BRANCH   1  15
ATOM     15  C   UNL     1       2.450   5.759  18.748  0.00  0.00    +0.000 C 
BRANCH  15  22
ATOM     16  C   UNL     1       7.458   4.958  14.778  0.00  0.00    +0.000 C 
ATOM     17  C   UNL     1       5.990   4.862  15.188  0.00  0.00    +0.000 C 
ATOM     18  C   UNL     1       5.166   4.184  14.102  0.00  0.00    +0.000 C 
ATOM     19  O   UNL     1       5.491   6.178  15.411  0.00  0.00    +0.000 OA
ATOM     20  C   UNL     1       5.496   6.378  16.818  0.00  0.00    +0.000 C 
ATOM     21  O   UNL     1       4.181   6.699  17.295  0.00  0.00    +0.000 OA
ATOM     22  C   UNL     1       3.628   5.469  17.811  0.00  0.00    +0.000 C 
ATOM     23  C   UNL     1       4.823   4.786  18.469  0.00  0.00    +0.000 C 
ATOM     24  C   UNL     1       5.914   5.058  17.450  0.00  0.00    +0.000 C 
ATOM     25  O   UNL     1       5.881   4.099  16.391  0.00  0.00    +0.000 OA
BRANCH  23  26
ATOM     26  O   UNL     1       5.157   5.383  19.725  0.00  0.00    +0.000 OA
ATOM     27  H   UNL     1       4.753   6.270  19.764  0.00  0.00    +0.000 HD
ENDBRANCH  23  26
ENDBRANCH  15  22
ENDBRANCH   1  15
TORSDOF 4
ENDMDL
