MODEL 1
REMARK VINA RESULT:      -8.0      0.000      0.000
REMARK  Name = 
REMARK  4 active torsions:
REMARK  status: ('A' for Active; 'I' for Inactive)
REMARK    1  A    between atoms: C_2  and  C_21
REMARK    2  A    between atoms: N_3  and  C_4
REMARK    3  A    between atoms: C_7  and  C_8
REMARK    4  A    between atoms: C_11  and  C_12
REMARK                            x       y       z     vdW  Elec       q    Type
REMARK                         _______ _______ _______ _____ _____    ______ ____
ROOT
ATOM      1  C   UNL     1       1.670   8.260  19.564  0.00  0.00    +0.000 A 
ATOM      2  C   UNL     1       2.091   7.051  20.119  0.00  0.00    +0.000 A 
ATOM      3  C   UNL     1       3.020   6.247  19.459  0.00  0.00    +0.000 A 
ATOM      4  C   UNL     1       3.557   6.625  18.222  0.00  0.00    +0.000 A 
ATOM      5  C   UNL     1       3.156   7.851  17.674  0.00  0.00    +0.000 A 
ATOM      6  C   UNL     1       2.206   8.653  18.334  0.00  0.00    +0.000 A 
ENDROOT
BRANCH   4   7
ATOM      7  C   UNL     1       4.459   5.696  17.554  0.00  0.00    +0.000 A 
ATOM      8  N   UNL     1       5.086   4.655  18.066  0.00  0.00    +0.000 NA
ATOM      9  N   UNL     1       5.762   4.058  17.032  0.00  0.00    +0.000 NA
ATOM     10  C   UNL     1       5.522   4.780  15.957  0.00  0.00    +0.000 A 
ATOM     11  O   UNL     1       4.690   5.847  16.209  0.00  0.00    +0.000 OA
BRANCH  10  12
ATOM     12  C   UNL     1       6.048   4.609  14.611  0.00  0.00    +0.000 A 
ATOM     13  C   UNL     1       5.365   3.766  13.718  0.00  0.00    +0.000 A 
ATOM     14  C   UNL     1       5.875   3.499  12.446  0.00  0.00    +0.000 A 
ATOM     15  C   UNL     1       7.075   4.080  12.049  0.00  0.00    +0.000 A 
ATOM     16  C   UNL     1       7.753   4.939  12.911  0.00  0.00    +0.000 A 
ATOM     17  C   UNL     1       7.240   5.212  14.184  0.00  0.00    +0.000 A 
ENDBRANCH  10  12
ENDBRANCH   4   7
BRANCH   1  20
ATOM     18  O   UNL     1       1.707   9.528  22.239  0.00  0.00    +0.000 OA
ATOM     19  C   UNL     1       0.758   9.601  21.460  0.00  0.00    +0.000 C 
ATOM     20  N   UNL     1       0.704   9.080  20.177  0.00  0.00    +0.000 N 
ATOM     21  H   UNL     1      -0.122   9.341  19.642  0.00  0.00    +0.000 HD
BRANCH  19  22
ATOM     22  C   UNL     1      -0.520  10.347  21.862  0.00  0.00    +0.000 C 
ATOM     23  C   UNL     1      -1.026  11.188  20.697  0.00  0.00    +0.000 C 
ATOM     24  C   UNL     1      -1.644  12.375  21.384  0.00  0.00    +0.000 C 
ATOM     25  C   UNL     1      -0.746  12.548  22.586  0.00  0.00    +0.000 C 
ATOM     26  O   UNL     1      -0.330  11.233  22.980  0.00  0.00    +0.000 OA
ENDBRANCH  19  22
ENDBRANCH   1  20
TORSDOF 4
ENDMDL
MODEL 2
REMARK VINA RESULT:      -7.9      3.364     10.371
REMARK  Name = 
REMARK  4 active torsions:
REMARK  status: ('A' for Active; 'I' for Inactive)
REMARK    1  A    between atoms: C_2  and  C_21
REMARK    2  A    between atoms: N_3  and  C_4
REMARK    3  A    between atoms: C_7  and  C_8
REMARK    4  A    between atoms: C_11  and  C_12
REMARK                            x       y       z     vdW  Elec       q    Type
REMARK                         _______ _______ _______ _____ _____    ______ ____
ROOT
ATOM      1  C   UNL     1       2.448   7.117  18.784  0.00  0.00    +0.000 A 
ATOM      2  C   UNL     1       2.211   8.105  17.828  0.00  0.00    +0.000 A 
ATOM      3  C   UNL     1       1.540   9.280  18.166  0.00  0.00    +0.000 A 
ATOM      4  C   UNL     1       1.083   9.504  19.470  0.00  0.00    +0.000 A 
ATOM      5  C   UNL     1       1.342   8.526  20.440  0.00  0.00    +0.000 A 
ATOM      6  C   UNL     1       2.005   7.334  20.093  0.00  0.00    +0.000 A 
ENDROOT
BRANCH   4   7
ATOM      7  C   UNL     1       0.319  10.717  19.730  0.00  0.00    +0.000 A 
ATOM      8  N   UNL     1       0.464  11.908  19.181  0.00  0.00    +0.000 NA
ATOM      9  N   UNL     1      -0.528  12.702  19.698  0.00  0.00    +0.000 NA
ATOM     10  C   UNL     1      -1.208  11.953  20.542  0.00  0.00    +0.000 A 
ATOM     11  O   UNL     1      -0.728  10.666  20.616  0.00  0.00    +0.000 OA
BRANCH  10  12
ATOM     12  C   UNL     1      -2.324  12.332  21.396  0.00  0.00    +0.000 A 
ATOM     13  C   UNL     1      -2.225  12.110  22.780  0.00  0.00    +0.000 A 
ATOM     14  C   UNL     1      -3.300  12.373  23.631  0.00  0.00    +0.000 A 
ATOM     15  C   UNL     1      -4.489  12.871  23.106  0.00  0.00    +0.000 A 
ATOM     16  C   UNL     1      -4.597  13.122  21.740  0.00  0.00    +0.000 A 
ATOM     17  C   UNL     1      -3.517  12.863  20.887  0.00  0.00    +0.000 A 
ENDBRANCH  10  12
ENDBRANCH   4   7
BRANCH   1  20
ATOM     18  O   UNL     1       1.342   4.694  17.490  0.00  0.00    +0.000 OA
ATOM     19  C   UNL     1       2.493   4.778  17.915  0.00  0.00    +0.000 C 
ATOM     20  N   UNL     1       3.084   5.899  18.476  0.00  0.00    +0.000 N 
ATOM     21  H   UNL     1       4.080   5.811  18.662  0.00  0.00    +0.000 HD
BRANCH  19  22
ATOM     22  C   UNL     1       3.441   3.576  17.830  0.00  0.00    +0.000 C 
ATOM     23  C   UNL     1       2.644   2.278  17.835  0.00  0.00    +0.000 C 
ATOM     24  C   UNL     1       3.559   1.324  18.554  0.00  0.00    +0.000 C 
ATOM     25  C   UNL     1       4.234   2.231  19.556  0.00  0.00    +0.000 C 
ATOM     26  O   UNL     1       4.372   3.511  18.925  0.00  0.00    +0.000 OA
ENDBRANCH  19  22
ENDBRANCH   1  20
TORSDOF 4
ENDMDL
MODEL 3
REMARK VINA RESULT:      -7.8      1.667     10.162
REMARK  Name = 
REMARK  4 active torsions:
REMARK  status: ('A' for Active; 'I' for Inactive)
REMARK    1  A    between atoms: C_2  and  C_21
REMARK    2  A    between atoms: N_3  and  C_4
REMARK    3  A    between atoms: C_7  and  C_8
REMARK    4  A    between atoms: C_11  and  C_12
REMARK                            x       y       z     vdW  Elec       q    Type
REMARK                         _______ _______ _______ _____ _____    ______ ____
ROOT
ATOM      1  C   UNL     1       2.880   6.399  18.793  0.00  0.00    +0.000 A 
ATOM      2  C   UNL     1       2.421   6.023  20.056  0.00  0.00    +0.000 A 
ATOM      3  C   UNL     1       1.719   6.922  20.858  0.00  0.00    +0.000 A 
ATOM      4  C   UNL     1       1.454   8.227  20.424  0.00  0.00    +0.000 A 
ATOM      5  C   UNL     1       1.891   8.601  19.146  0.00  0.00    +0.000 A 
ATOM      6  C   UNL     1       2.614   7.696  18.345  0.00  0.00    +0.000 A 
ENDROOT
BRANCH   4   7
ATOM      7  C   UNL     1       0.788   9.135  21.348  0.00  0.00    +0.000 A 
ATOM      8  N   UNL     1       1.038   9.326  22.629  0.00  0.00    +0.000 NA
ATOM      9  N   UNL     1       0.195  10.324  23.048  0.00  0.00    +0.000 NA
ATOM     10  C   UNL     1      -0.530  10.669  22.004  0.00  0.00    +0.000 A 
ATOM     11  O   UNL     1      -0.206   9.954  20.873  0.00  0.00    +0.000 OA
BRANCH  10  12
ATOM     12  C   UNL     1      -1.611  11.641  21.929  0.00  0.00    +0.000 A 
ATOM     13  C   UNL     1      -2.332  11.944  23.097  0.00  0.00    +0.000 A 
ATOM     14  C   UNL     1      -3.433  12.801  23.061  0.00  0.00    +0.000 A 
ATOM     15  C   UNL     1      -3.822  13.374  21.854  0.00  0.00    +0.000 A 
ATOM     16  C   UNL     1      -3.103  13.107  20.691  0.00  0.00    +0.000 A 
ATOM     17  C   UNL     1      -1.995  12.251  20.727  0.00  0.00    +0.000 A 
ENDBRANCH  10  12
ENDBRANCH   4   7
BRANCH   1  20
ATOM     18  O   UNL     1       5.615   5.334  19.181  0.00  0.00    +0.000 OA
ATOM     19  C   UNL     1       4.931   5.115  18.183  0.00  0.00    +0.000 C 
ATOM     20  N   UNL     1       3.628   5.536  17.970  0.00  0.00    +0.000 N 
ATOM     21  H   UNL     1       3.187   5.159  17.134  0.00  0.00    +0.000 HD
BRANCH  19  22
ATOM     22  C   UNL     1       5.492   4.281  17.025  0.00  0.00    +0.000 C 
ATOM     23  C   UNL     1       6.905   4.738  16.687  0.00  0.00    +0.000 C 
ATOM     24  C   UNL     1       6.984   4.511  15.201  0.00  0.00    +0.000 C 
ATOM     25  C   UNL     1       5.570   4.812  14.761  0.00  0.00    +0.000 C 
ATOM     26  O   UNL     1       4.709   4.381  15.823  0.00  0.00    +0.000 OA
ENDBRANCH  19  22
ENDBRANCH   1  20
TORSDOF 4
ENDMDL
MODEL 4
REMARK VINA RESULT:      -7.8      1.838     10.411
REMARK  Name = 
REMARK  4 active torsions:
REMARK  status: ('A' for Active; 'I' for Inactive)
REMARK    1  A    between atoms: C_2  and  C_21
REMARK    2  A    between atoms: N_3  and  C_4
REMARK    3  A    between atoms: C_7  and  C_8
REMARK    4  A    between atoms: C_11  and  C_12
REMARK                            x       y       z     vdW  Elec       q    Type
REMARK                         _______ _______ _______ _____ _____    ______ ____
ROOT
ATOM      1  C   UNL     1       2.595   7.237  18.363  0.00  0.00    +0.000 A 
ATOM      2  C   UNL     1       2.436   6.730  19.653  0.00  0.00    +0.000 A 
ATOM      3  C   UNL     1       1.761   7.461  20.630  0.00  0.00    +0.000 A 
ATOM      4  C   UNL     1       1.224   8.723  20.349  0.00  0.00    +0.000 A 
ATOM      5  C   UNL     1       1.358   9.225  19.048  0.00  0.00    +0.000 A 
ATOM      6  C   UNL     1       2.055   8.492  18.068  0.00  0.00    +0.000 A 
ENDROOT
BRANCH   4   7
ATOM      7  C   UNL     1       0.604   9.463  21.441  0.00  0.00    +0.000 A 
ATOM      8  N   UNL     1       0.814   9.335  22.737  0.00  0.00    +0.000 NA
ATOM      9  N   UNL     1       0.050  10.293  23.354  0.00  0.00    +0.000 NA
ATOM     10  C   UNL     1      -0.593  10.935  22.400  0.00  0.00    +0.000 A 
ATOM     11  O   UNL     1      -0.287  10.463  21.144  0.00  0.00    +0.000 OA
BRANCH  10  12
ATOM     12  C   UNL     1      -1.574  12.003  22.525  0.00  0.00    +0.000 A 
ATOM     13  C   UNL     1      -1.371  13.197  21.813  0.00  0.00    +0.000 A 
ATOM     14  C   UNL     1      -2.235  14.283  21.966  0.00  0.00    +0.000 A 
ATOM     15  C   UNL     1      -3.320  14.183  22.831  0.00  0.00    +0.000 A 
ATOM     16  C   UNL     1      -3.553  12.998  23.525  0.00  0.00    +0.000 A 
ATOM     17  C   UNL     1      -2.690  11.907  23.368  0.00  0.00    +0.000 A 
ENDBRANCH  10  12
ENDBRANCH   4   7
BRANCH   1  20
ATOM     18  O   UNL     1       5.504   7.194  17.814  0.00  0.00    +0.000 OA
ATOM     19  C   UNL     1       4.668   6.615  17.122  0.00  0.00    +0.000 C 
ATOM     20  N   UNL     1       3.305   6.550  17.360  0.00  0.00    +0.000 N 
ATOM     21  H   UNL     1       2.791   5.928  16.741  0.00  0.00    +0.000 HD
BRANCH  19  22
ATOM     22  C   UNL     1       5.100   5.844  15.869  0.00  0.00    +0.000 C 
ATOM     23  C   UNL     1       4.924   4.346  16.089  0.00  0.00    +0.000 C 
ATOM     24  C   UNL     1       6.048   3.755  15.282  0.00  0.00    +0.000 C 
ATOM     25  C   UNL     1       7.133   4.794  15.443  0.00  0.00    +0.000 C 
ATOM     26  O   UNL     1       6.476   6.066  15.513  0.00  0.00    +0.000 OA
ENDBRANCH  19  22
ENDBRANCH   1  20
TORSDOF 4
ENDMDL
MODEL 5
REMARK VINA RESULT:      -7.8      3.385     10.397
REMARK  Name = 
REMARK  4 active torsions:
REMARK  status: ('A' for Active; 'I' for Inactive)
REMARK    1  A    between atoms: C_2  and  C_21
REMARK    2  A    between atoms: N_3  and  C_4
REMARK    3  A    between atoms: C_7  and  C_8
REMARK    4  A    between atoms: C_11  and  C_12
REMARK                            x       y       z     vdW  Elec       q    Type
REMARK                         _______ _______ _______ _____ _____    ______ ____
ROOT
ATOM      1  C   UNL     1       2.389   7.139  19.029  0.00  0.00    +0.000 A 
ATOM      2  C   UNL     1       1.847   7.364  20.294  0.00  0.00    +0.000 A 
ATOM      3  C   UNL     1       1.175   8.552  20.582  0.00  0.00    +0.000 A 
ATOM      4  C   UNL     1       1.024   9.553  19.615  0.00  0.00    +0.000 A 
ATOM      5  C   UNL     1       1.544   9.319  18.335  0.00  0.00    +0.000 A 
ATOM      6  C   UNL     1       2.236   8.127  18.051  0.00  0.00    +0.000 A 
ENDROOT
BRANCH   4   7
ATOM      7  C   UNL     1       0.383  10.799  20.012  0.00  0.00    +0.000 A 
ATOM      8  N   UNL     1       0.753  12.034  19.734  0.00  0.00    +0.000 NA
ATOM      9  N   UNL     1      -0.202  12.860  20.270  0.00  0.00    +0.000 NA
ATOM     10  C   UNL     1      -1.088  12.082  20.857  0.00  0.00    +0.000 A 
ATOM     11  O   UNL     1      -0.785  10.745  20.732  0.00  0.00    +0.000 OA
BRANCH  10  12
ATOM     12  C   UNL     1      -2.266  12.462  21.622  0.00  0.00    +0.000 A 
ATOM     13  C   UNL     1      -2.303  12.174  22.997  0.00  0.00    +0.000 A 
ATOM     14  C   UNL     1      -3.444  12.439  23.757  0.00  0.00    +0.000 A 
ATOM     15  C   UNL     1      -4.562  13.003  23.151  0.00  0.00    +0.000 A 
ATOM     16  C   UNL     1      -4.534  13.319  21.794  0.00  0.00    +0.000 A 
ATOM     17  C   UNL     1      -3.389  13.059  21.032  0.00  0.00    +0.000 A 
ENDBRANCH  10  12
ENDBRANCH   4   7
BRANCH   1  20
ATOM     18  O   UNL     1       1.476   4.686  17.646  0.00  0.00    +0.000 OA
ATOM     19  C   UNL     1       2.608   4.831  18.106  0.00  0.00    +0.000 C 
ATOM     20  N   UNL     1       3.110   5.973  18.709  0.00  0.00    +0.000 N 
ATOM     21  H   UNL     1       4.105   5.943  18.922  0.00  0.00    +0.000 HD
BRANCH  19  22
ATOM     22  C   UNL     1       3.633   3.694  18.019  0.00  0.00    +0.000 C 
ATOM     23  C   UNL     1       2.927   2.373  17.740  0.00  0.00    +0.000 C 
ATOM     24  C   UNL     1       3.786   1.374  18.468  0.00  0.00    +0.000 C 
ATOM     25  C   UNL     1       4.248   2.170  19.666  0.00  0.00    +0.000 C 
ATOM     26  O   UNL     1       4.396   3.526  19.227  0.00  0.00    +0.000 OA
ENDBRANCH  19  22
ENDBRANCH   1  20
TORSDOF 4
ENDMDL
MODEL 6
REMARK VINA RESULT:      -7.7      1.812     10.413
REMARK  Name = 
REMARK  4 active torsions:
REMARK  status: ('A' for Active; 'I' for Inactive)
REMARK    1  A    between atoms: C_2  and  C_21
REMARK    2  A    between atoms: N_3  and  C_4
REMARK    3  A    between atoms: C_7  and  C_8
REMARK    4  A    between atoms: C_11  and  C_12
REMARK                            x       y       z     vdW  Elec       q    Type
REMARK                         _______ _______ _______ _____ _____    ______ ____
ROOT
ATOM      1  C   UNL     1       2.602   7.202  18.504  0.00  0.00    +0.000 A 
ATOM      2  C   UNL     1       2.141   8.498  18.270  0.00  0.00    +0.000 A 
ATOM      3  C   UNL     1       1.503   9.222  19.277  0.00  0.00    +0.000 A 
ATOM      4  C   UNL     1       1.305   8.673  20.550  0.00  0.00    +0.000 A 
ATOM      5  C   UNL     1       1.791   7.381  20.797  0.00  0.00    +0.000 A 
ATOM      6  C   UNL     1       2.419   6.647  19.773  0.00  0.00    +0.000 A 
ENDROOT
BRANCH   4   7
ATOM      7  C   UNL     1       0.559   9.456  21.526  0.00  0.00    +0.000 A 
ATOM      8  N   UNL     1       0.712   9.490  22.836  0.00  0.00    +0.000 NA
ATOM      9  N   UNL     1      -0.175  10.424  23.310  0.00  0.00    +0.000 NA
ATOM     10  C   UNL     1      -0.826  10.890  22.264  0.00  0.00    +0.000 A 
ATOM     11  O   UNL     1      -0.410  10.321  21.082  0.00  0.00    +0.000 OA
BRANCH  10  12
ATOM     12  C   UNL     1      -1.914  11.857  22.228  0.00  0.00    +0.000 A 
ATOM     13  C   UNL     1      -2.751  11.978  23.350  0.00  0.00    +0.000 A 
ATOM     14  C   UNL     1      -3.860  12.826  23.333  0.00  0.00    +0.000 A 
ATOM     15  C   UNL     1      -4.141  13.571  22.192  0.00  0.00    +0.000 A 
ATOM     16  C   UNL     1      -3.307  13.484  21.079  0.00  0.00    +0.000 A 
ATOM     17  C   UNL     1      -2.191  12.638  21.097  0.00  0.00    +0.000 A 
ENDBRANCH  10  12
ENDBRANCH   4   7
BRANCH   1  20
ATOM     18  O   UNL     1       5.463   6.989  17.774  0.00  0.00    +0.000 OA
ATOM     19  C   UNL     1       4.559   6.409  17.175  0.00  0.00    +0.000 C 
ATOM     20  N   UNL     1       3.213   6.423  17.503  0.00  0.00    +0.000 N 
ATOM     21  H   UNL     1       2.633   5.789  16.959  0.00  0.00    +0.000 HD
BRANCH  19  22
ATOM     22  C   UNL     1       4.872   5.543  15.948  0.00  0.00    +0.000 C 
ATOM     23  C   UNL     1       5.124   4.102  16.374  0.00  0.00    +0.000 C 
ATOM     24  C   UNL     1       6.146   3.631  15.375  0.00  0.00    +0.000 C 
ATOM     25  C   UNL     1       6.951   4.887  15.131  0.00  0.00    +0.000 C 
ATOM     26  O   UNL     1       6.034   5.986  15.225  0.00  0.00    +0.000 OA
ENDBRANCH  19  22
ENDBRANCH   1  20
TORSDOF 4
ENDMDL
MODEL 7
REMARK VINA RESULT:      -7.7      3.532     10.066
REMARK  Name = 
REMARK  4 active torsions:
REMARK  status: ('A' for Active; 'I' for Inactive)
REMARK    1  A    between atoms: C_2  and  C_21
REMARK    2  A    between atoms: N_3  and  C_4
REMARK    3  A    between atoms: C_7  and  C_8
REMARK    4  A    between atoms: C_11  and  C_12
REMARK                            x       y       z     vdW  Elec       q    Type
REMARK                         _______ _______ _______ _____ _____    ______ ____
ROOT
ATOM      1  C   UNL     1       2.559   7.119  18.837  0.00  0.00    +0.000 A 
ATOM      2  C   UNL     1       2.340   8.075  17.844  0.00  0.00    +0.000 A 
ATOM      3  C   UNL     1       1.616   9.235  18.117  0.00  0.00    +0.000 A 
ATOM      4  C   UNL     1       1.088   9.478  19.391  0.00  0.00    +0.000 A 
ATOM      5  C   UNL     1       1.328   8.533  20.398  0.00  0.00    +0.000 A 
ATOM      6  C   UNL     1       2.044   7.354  20.115  0.00  0.00    +0.000 A 
ENDROOT
BRANCH   4   7
ATOM      7  C   UNL     1       0.275  10.671  19.580  0.00  0.00    +0.000 A 
ATOM      8  N   UNL     1       0.674  11.897  19.858  0.00  0.00    +0.000 NA
ATOM      9  N   UNL     1      -0.451  12.682  19.873  0.00  0.00    +0.000 NA
ATOM     10  C   UNL     1      -1.470  11.886  19.620  0.00  0.00    +0.000 A 
ATOM     11  O   UNL     1      -1.085  10.581  19.416  0.00  0.00    +0.000 OA
BRANCH  10  12
ATOM     12  C   UNL     1      -2.888  12.211  19.578  0.00  0.00    +0.000 A 
ATOM     13  C   UNL     1      -3.445  12.951  20.635  0.00  0.00    +0.000 A 
ATOM     14  C   UNL     1      -4.815  13.212  20.687  0.00  0.00    +0.000 A 
ATOM     15  C   UNL     1      -5.646  12.741  19.675  0.00  0.00    +0.000 A 
ATOM     16  C   UNL     1      -5.108  12.028  18.606  0.00  0.00    +0.000 A 
ATOM     17  C   UNL     1      -3.733  11.770  18.550  0.00  0.00    +0.000 A 
ENDBRANCH  10  12
ENDBRANCH   4   7
BRANCH   1  20
ATOM     18  O   UNL     1       1.557   4.581  17.688  0.00  0.00    +0.000 OA
ATOM     19  C   UNL     1       2.705   4.740  18.100  0.00  0.00    +0.000 C 
ATOM     20  N   UNL     1       3.247   5.915  18.592  0.00  0.00    +0.000 N 
ATOM     21  H   UNL     1       4.247   5.882  18.776  0.00  0.00    +0.000 HD
BRANCH  19  22
ATOM     22  C   UNL     1       3.705   3.577  18.075  0.00  0.00    +0.000 C 
ATOM     23  C   UNL     1       2.975   2.263  17.832  0.00  0.00    +0.000 C 
ATOM     24  C   UNL     1       3.797   1.273  18.613  0.00  0.00    +0.000 C 
ATOM     25  C   UNL     1       4.254   2.103  19.790  0.00  0.00    +0.000 C 
ATOM     26  O   UNL     1       4.441   3.438  19.303  0.00  0.00    +0.000 OA
ENDBRANCH  19  22
ENDBRANCH   1  20
TORSDOF 4
ENDMDL
MODEL 8
REMARK VINA RESULT:      -7.7      2.830      9.923
REMARK  Name = 
REMARK  4 active torsions:
REMARK  status: ('A' for Active; 'I' for Inactive)
REMARK    1  A    between atoms: C_2  and  C_21
REMARK    2  A    between atoms: N_3  and  C_4
REMARK    3  A    between atoms: C_7  and  C_8
REMARK    4  A    between atoms: C_11  and  C_12
REMARK                            x       y       z     vdW  Elec       q    Type
REMARK                         _______ _______ _______ _____ _____    ______ ____
ROOT
ATOM      1  C   UNL     1       2.819   7.481  18.534  0.00  0.00    +0.000 A 
ATOM      2  C   UNL     1       2.395   8.454  17.628  0.00  0.00    +0.000 A 
ATOM      3  C   UNL     1       1.431   9.395  17.991  0.00  0.00    +0.000 A 
ATOM      4  C   UNL     1       0.860   9.392  19.269  0.00  0.00    +0.000 A 
ATOM      5  C   UNL     1       1.303   8.433  20.190  0.00  0.00    +0.000 A 
ATOM      6  C   UNL     1       2.263   7.474  19.816  0.00  0.00    +0.000 A 
ENDROOT
BRANCH   4   7
ATOM      7  C   UNL     1      -0.199  10.353  19.549  0.00  0.00    +0.000 A 
ATOM      8  N   UNL     1      -0.245  11.264  20.501  0.00  0.00    +0.000 NA
ATOM      9  N   UNL     1      -1.409  11.967  20.315  0.00  0.00    +0.000 NA
ATOM     10  C   UNL     1      -2.009  11.432  19.272  0.00  0.00    +0.000 A 
ATOM     11  O   UNL     1      -1.294  10.394  18.722  0.00  0.00    +0.000 OA
BRANCH  10  12
ATOM     12  C   UNL     1      -3.302  11.772  18.694  0.00  0.00    +0.000 A 
ATOM     13  C   UNL     1      -4.269  12.382  19.510  0.00  0.00    +0.000 A 
ATOM     14  C   UNL     1      -5.553  12.647  19.030  0.00  0.00    +0.000 A 
ATOM     15  C   UNL     1      -5.882  12.312  17.720  0.00  0.00    +0.000 A 
ATOM     16  C   UNL     1      -4.928  11.730  16.888  0.00  0.00    +0.000 A 
ATOM     17  C   UNL     1      -3.638  11.469  17.367  0.00  0.00    +0.000 A 
ENDBRANCH  10  12
ENDBRANCH   4   7
BRANCH   1  20
ATOM     18  O   UNL     1       2.370   4.674  17.706  0.00  0.00    +0.000 OA
ATOM     19  C   UNL     1       3.484   5.170  17.866  0.00  0.00    +0.000 C 
ATOM     20  N   UNL     1       3.758   6.488  18.195  0.00  0.00    +0.000 N 
ATOM     21  H   UNL     1       4.744   6.740  18.170  0.00  0.00    +0.000 HD
BRANCH  19  22
ATOM     22  C   UNL     1       4.747   4.320  17.677  0.00  0.00    +0.000 C 
ATOM     23  C   UNL     1       5.909   4.929  18.451  0.00  0.00    +0.000 C 
ATOM     24  C   UNL     1       7.098   4.587  17.593  0.00  0.00    +0.000 C 
ATOM     25  C   UNL     1       6.514   4.660  16.202  0.00  0.00    +0.000 C 
ATOM     26  O   UNL     1       5.156   4.213  16.303  0.00  0.00    +0.000 OA
ENDBRANCH  19  22
ENDBRANCH   1  20
TORSDOF 4
ENDMDL
MODEL 9
REMARK VINA RESULT:      -7.6      3.323      9.964
REMARK  Name = 
REMARK  4 active torsions:
REMARK  status: ('A' for Active; 'I' for Inactive)
REMARK    1  A    between atoms: C_2  and  C_21
REMARK    2  A    between atoms: N_3  and  C_4
REMARK    3  A    between atoms: C_7  and  C_8
REMARK    4  A    between atoms: C_11  and  C_12
REMARK                            x       y       z     vdW  Elec       q    Type
REMARK                         _______ _______ _______ _____ _____    ______ ____
ROOT
ATOM      1  C   UNL     1       2.541   6.826  19.027  0.00  0.00    +0.000 A 
ATOM      2  C   UNL     1       2.407   7.693  17.942  0.00  0.00    +0.000 A 
ATOM      3  C   UNL     1       1.747   8.914  18.081  0.00  0.00    +0.000 A 
ATOM      4  C   UNL     1       1.200   9.307  19.309  0.00  0.00    +0.000 A 
ATOM      5  C   UNL     1       1.355   8.450  20.407  0.00  0.00    +0.000 A 
ATOM      6  C   UNL     1       2.007   7.211  20.260  0.00  0.00    +0.000 A 
ENDROOT
BRANCH   4   7
ATOM      7  C   UNL     1       0.454  10.557  19.358  0.00  0.00    +0.000 A 
ATOM      8  N   UNL     1       0.919  11.789  19.289  0.00  0.00    +0.000 NA
ATOM      9  N   UNL     1      -0.171  12.622  19.312  0.00  0.00    +0.000 NA
ATOM     10  C   UNL     1      -1.233  11.849  19.411  0.00  0.00    +0.000 A 
ATOM     11  O   UNL     1      -0.915  10.511  19.442  0.00  0.00    +0.000 OA
BRANCH  10  12
ATOM     12  C   UNL     1      -2.631  12.237  19.530  0.00  0.00    +0.000 A 
ATOM     13  C   UNL     1      -3.016  13.065  20.598  0.00  0.00    +0.000 A 
ATOM     14  C   UNL     1      -4.357  13.393  20.807  0.00  0.00    +0.000 A 
ATOM     15  C   UNL     1      -5.330  12.903  19.943  0.00  0.00    +0.000 A 
ATOM     16  C   UNL     1      -4.965  12.102  18.863  0.00  0.00    +0.000 A 
ATOM     17  C   UNL     1      -3.620  11.776  18.649  0.00  0.00    +0.000 A 
ENDBRANCH  10  12
ENDBRANCH   4   7
BRANCH   1  20
ATOM     18  O   UNL     1       5.261   6.150  18.073  0.00  0.00    +0.000 OA
ATOM     19  C   UNL     1       4.426   5.312  18.411  0.00  0.00    +0.000 C 
ATOM     20  N   UNL     1       3.163   5.567  18.919  0.00  0.00    +0.000 N 
ATOM     21  H   UNL     1       2.660   4.747  19.250  0.00  0.00    +0.000 HD
BRANCH  19  22
ATOM     22  C   UNL     1       4.748   3.815  18.316  0.00  0.00    +0.000 C 
ATOM     23  C   UNL     1       3.538   3.052  17.793  0.00  0.00    +0.000 C 
ATOM     24  C   UNL     1       3.649   1.726  18.496  0.00  0.00    +0.000 C 
ATOM     25  C   UNL     1       4.233   2.125  19.831  0.00  0.00    +0.000 C 
ATOM     26  O   UNL     1       5.108   3.233  19.581  0.00  0.00    +0.000 OA
ENDBRANCH  19  22
ENDBRANCH   1  20
TORSDOF 4
ENDMDL
