MODEL 1
REMARK VINA RESULT:      -8.2      0.000      0.000
REMARK  Name = 
REMARK  7 active torsions:
REMARK  status: ('A' for Active; 'I' for Inactive)
REMARK    1  A    between atoms: C_1  and  C_2
REMARK    2  A    between atoms: C_2  and  O_3
REMARK    3  A    between atoms: O_3  and  C_4
REMARK    4  A    between atoms: C_4  and  C_6
REMARK    5  A    between atoms: N_17  and  C_18
REMARK    6  A    between atoms: C_21  and  N_22
REMARK    7  A    between atoms: C_27  and  N_28
REMARK                            x       y       z     vdW  Elec       q    Type
REMARK                         _______ _______ _______ _____ _____    ______ ____
ROOT
ATOM      1  C   UNL     1       5.433   4.878  16.055  0.00  0.00    +0.000 A 
ATOM      2  C   UNL     1       5.179   3.591  16.516  0.00  0.00    +0.000 A 
ATOM      3  C   UNL     1       4.240   3.471  17.524  0.00  0.00    +0.000 A 
ATOM      4  N   UNL     1       3.812   2.321  18.138  0.00  0.00    +0.000 N 
ATOM      5  C   UNL     1       2.832   2.595  19.051  0.00  0.00    +0.000 A 
ATOM      6  C   UNL     1       2.154   1.706  19.895  0.00  0.00    +0.000 A 
ATOM      7  C   UNL     1       1.183   2.226  20.746  0.00  0.00    +0.000 A 
ATOM      8  C   UNL     1       0.862   3.574  20.703  0.00  0.00    +0.000 A 
ATOM      9  C   UNL     1       1.518   4.434  19.813  0.00  0.00    +0.000 A 
ATOM     10  C   UNL     1       2.580   3.968  18.998  0.00  0.00    +0.000 A 
ATOM     11  C   UNL     1       3.541   4.551  18.069  0.00  0.00    +0.000 A 
ATOM     12  N   UNL     1       3.869   5.866  17.607  0.00  0.00    +0.000 N 
ATOM     13  C   UNL     1       4.838   6.023  16.638  0.00  0.00    +0.000 A 
ATOM     14  H   UNL     1       4.155   1.390  17.936  0.00  0.00    +0.000 HD
ENDROOT
BRANCH  12  15
ATOM     15  C   UNL     1       3.146   7.019  18.122  0.00  0.00    +0.000 A 
ATOM     16  C   UNL     1       2.878   7.111  19.491  0.00  0.00    +0.000 A 
ATOM     17  C   UNL     1       1.998   8.097  19.965  0.00  0.00    +0.000 A 
ATOM     18  C   UNL     1       1.478   9.052  19.082  0.00  0.00    +0.000 A 
ATOM     19  C   UNL     1       1.855   9.044  17.733  0.00  0.00    +0.000 A 
ATOM     20  C   UNL     1       2.658   8.003  17.247  0.00  0.00    +0.000 A 
BRANCH  18  21
ATOM     21  N   UNL     1       0.483  10.027  19.556  0.00  0.00    +0.000 N 
ATOM     22  O   UNL     1      -0.653   9.957  19.071  0.00  0.00    +0.000 OA
ATOM     23  O   UNL     1       0.859  10.865  20.384  0.00  0.00    +0.000 OA
ENDBRANCH  18  21
ENDBRANCH  12  15
BRANCH  13  24
ATOM     24  N   UNL     1       5.186   7.295  16.139  0.00  0.00    +0.000 N 
ATOM     25  H   UNL     1       4.890   8.143  16.599  0.00  0.00    +0.000 HD
ATOM     26  H   UNL     1       6.154   7.364  15.789  0.00  0.00    +0.000 HD
ENDBRANCH  13  24
BRANCH   1  27
ATOM     27  C   UNL     1       6.376   5.047  14.927  0.00  0.00    +0.000 C 
ATOM     28  O   UNL     1       7.485   5.555  15.054  0.00  0.00    +0.000 OA
BRANCH  27  29
ATOM     29  O   UNL     1       5.755   4.714  13.772  0.00  0.00    +0.000 OA
BRANCH  29  31
ATOM     30  C   UNL     1       5.375   3.219  11.951  0.00  0.00    +0.000 C 
ATOM     31  C   UNL     1       6.360   3.644  13.027  0.00  0.00    +0.000 C 
ENDBRANCH  29  31
ENDBRANCH  27  29
ENDBRANCH   1  27
TORSDOF 6
ENDMDL
MODEL 2
REMARK VINA RESULT:      -8.2      1.236      1.631
REMARK  Name = 
REMARK  7 active torsions:
REMARK  status: ('A' for Active; 'I' for Inactive)
REMARK    1  A    between atoms: C_1  and  C_2
REMARK    2  A    between atoms: C_2  and  O_3
REMARK    3  A    between atoms: O_3  and  C_4
REMARK    4  A    between atoms: C_4  and  C_6
REMARK    5  A    between atoms: N_17  and  C_18
REMARK    6  A    between atoms: C_21  and  N_22
REMARK    7  A    between atoms: C_27  and  N_28
REMARK                            x       y       z     vdW  Elec       q    Type
REMARK                         _______ _______ _______ _____ _____    ______ ____
ROOT
ATOM      1  C   UNL     1       6.149   5.527  17.463  0.00  0.00    +0.000 A 
ATOM      2  C   UNL     1       6.131   4.283  18.083  0.00  0.00    +0.000 A 
ATOM      3  C   UNL     1       5.041   4.013  18.891  0.00  0.00    +0.000 A 
ATOM      4  N   UNL     1       4.788   2.866  19.600  0.00  0.00    +0.000 N 
ATOM      5  C   UNL     1       3.582   2.947  20.239  0.00  0.00    +0.000 A 
ATOM      6  C   UNL     1       2.973   2.003  21.075  0.00  0.00    +0.000 A 
ATOM      7  C   UNL     1       1.727   2.313  21.611  0.00  0.00    +0.000 A 
ATOM      8  C   UNL     1       1.092   3.496  21.269  0.00  0.00    +0.000 A 
ATOM      9  C   UNL     1       1.698   4.403  20.389  0.00  0.00    +0.000 A 
ATOM     10  C   UNL     1       3.007   4.173  19.896  0.00  0.00    +0.000 A 
ATOM     11  C   UNL     1       3.980   4.899  19.088  0.00  0.00    +0.000 A 
ATOM     12  N   UNL     1       4.060   6.192  18.477  0.00  0.00    +0.000 N 
ATOM     13  C   UNL     1       5.159   6.511  17.706  0.00  0.00    +0.000 A 
ATOM     14  H   UNL     1       5.396   2.057  19.637  0.00  0.00    +0.000 HD
ENDROOT
BRANCH  12  15
ATOM     15  C   UNL     1       2.965   7.137  18.627  0.00  0.00    +0.000 A 
ATOM     16  C   UNL     1       2.473   7.809  17.503  0.00  0.00    +0.000 A 
ATOM     17  C   UNL     1       1.575   8.875  17.665  0.00  0.00    +0.000 A 
ATOM     18  C   UNL     1       1.090   9.193  18.940  0.00  0.00    +0.000 A 
ATOM     19  C   UNL     1       1.476   8.431  20.051  0.00  0.00    +0.000 A 
ATOM     20  C   UNL     1       2.444   7.430  19.898  0.00  0.00    +0.000 A 
BRANCH  18  21
ATOM     21  N   UNL     1       0.224  10.367  19.126  0.00  0.00    +0.000 N 
ATOM     22  O   UNL     1      -0.923  10.303  18.666  0.00  0.00    +0.000 OA
ATOM     23  O   UNL     1       0.711  11.347  19.702  0.00  0.00    +0.000 OA
ENDBRANCH  18  21
ENDBRANCH  12  15
BRANCH  13  24
ATOM     24  N   UNL     1       5.279   7.763  17.070  0.00  0.00    +0.000 N 
ATOM     25  H   UNL     1       5.962   8.444  17.367  0.00  0.00    +0.000 HD
ATOM     26  H   UNL     1       5.191   7.728  16.043  0.00  0.00    +0.000 HD
ENDBRANCH  13  24
BRANCH   1  27
ATOM     27  C   UNL     1       7.259   5.832  16.532  0.00  0.00    +0.000 C 
ATOM     28  O   UNL     1       7.791   6.935  16.466  0.00  0.00    +0.000 OA
BRANCH  27  29
ATOM     29  O   UNL     1       7.445   4.781  15.701  0.00  0.00    +0.000 OA
BRANCH  29  31
ATOM     30  C   UNL     1       5.955   3.887  14.065  0.00  0.00    +0.000 C 
ATOM     31  C   UNL     1       6.986   4.966  14.352  0.00  0.00    +0.000 C 
ENDBRANCH  29  31
ENDBRANCH  27  29
ENDBRANCH   1  27
TORSDOF 6
ENDMDL
MODEL 3
REMARK VINA RESULT:      -8.1      2.873      6.725
REMARK  Name = 
REMARK  7 active torsions:
REMARK  status: ('A' for Active; 'I' for Inactive)
REMARK    1  A    between atoms: C_1  and  C_2
REMARK    2  A    between atoms: C_2  and  O_3
REMARK    3  A    between atoms: O_3  and  C_4
REMARK    4  A    between atoms: C_4  and  C_6
REMARK    5  A    between atoms: N_17  and  C_18
REMARK    6  A    between atoms: C_21  and  N_22
REMARK    7  A    between atoms: C_27  and  N_28
REMARK                            x       y       z     vdW  Elec       q    Type
REMARK                         _______ _______ _______ _____ _____    ______ ____
ROOT
ATOM      1  C   UNL     1       2.902   3.766  20.575  0.00  0.00    +0.000 A 
ATOM      2  C   UNL     1       2.130   4.813  21.065  0.00  0.00    +0.000 A 
ATOM      3  C   UNL     1       2.180   6.000  20.355  0.00  0.00    +0.000 A 
ATOM      4  N   UNL     1       1.511   7.166  20.627  0.00  0.00    +0.000 N 
ATOM      5  C   UNL     1       1.769   8.107  19.669  0.00  0.00    +0.000 A 
ATOM      6  C   UNL     1       1.300   9.425  19.593  0.00  0.00    +0.000 A 
ATOM      7  C   UNL     1       1.701  10.199  18.507  0.00  0.00    +0.000 A 
ATOM      8  C   UNL     1       2.488   9.650  17.508  0.00  0.00    +0.000 A 
ATOM      9  C   UNL     1       2.902   8.313  17.580  0.00  0.00    +0.000 A 
ATOM     10  C   UNL     1       2.599   7.517  18.713  0.00  0.00    +0.000 A 
ATOM     11  C   UNL     1       2.931   6.180  19.192  0.00  0.00    +0.000 A 
ATOM     12  N   UNL     1       3.756   5.096  18.749  0.00  0.00    +0.000 N 
ATOM     13  C   UNL     1       3.767   3.916  19.463  0.00  0.00    +0.000 A 
ATOM     14  H   UNL     1       0.894   7.315  21.416  0.00  0.00    +0.000 HD
ENDROOT
BRANCH  12  15
ATOM     15  C   UNL     1       4.531   5.225  17.524  0.00  0.00    +0.000 A 
ATOM     16  C   UNL     1       4.123   4.543  16.374  0.00  0.00    +0.000 A 
ATOM     17  C   UNL     1       4.974   4.483  15.260  0.00  0.00    +0.000 A 
ATOM     18  C   UNL     1       6.181   5.195  15.263  0.00  0.00    +0.000 A 
ATOM     19  C   UNL     1       6.526   5.991  16.363  0.00  0.00    +0.000 A 
ATOM     20  C   UNL     1       5.720   5.973  17.508  0.00  0.00    +0.000 A 
BRANCH  18  21
ATOM     21  N   UNL     1       7.118   5.059  14.137  0.00  0.00    +0.000 N 
ATOM     22  O   UNL     1       6.801   4.282  13.228  0.00  0.00    +0.000 OA
ATOM     23  O   UNL     1       8.170   5.706  14.192  0.00  0.00    +0.000 OA
ENDBRANCH  18  21
ENDBRANCH  12  15
BRANCH  13  24
ATOM     24  N   UNL     1       4.549   2.815  19.060  0.00  0.00    +0.000 N 
ATOM     25  H   UNL     1       5.465   2.646  19.449  0.00  0.00    +0.000 HD
ATOM     26  H   UNL     1       4.017   1.940  18.934  0.00  0.00    +0.000 HD
ENDBRANCH  13  24
BRANCH   1  27
ATOM     27  C   UNL     1       2.824   2.456  21.259  0.00  0.00    +0.000 C 
ATOM     28  O   UNL     1       3.758   1.978  21.894  0.00  0.00    +0.000 OA
BRANCH  27  29
ATOM     29  O   UNL     1       1.662   1.848  20.928  0.00  0.00    +0.000 OA
BRANCH  29  31
ATOM     30  C   UNL     1       0.380   2.438  19.003  0.00  0.00    +0.000 C 
ATOM     31  C   UNL     1       1.493   1.549  19.533  0.00  0.00    +0.000 C 
ENDBRANCH  29  31
ENDBRANCH  27  29
ENDBRANCH   1  27
TORSDOF 6
ENDMDL
MODEL 4
REMARK VINA RESULT:      -8.0      0.946      1.429
REMARK  Name = 
REMARK  7 active torsions:
REMARK  status: ('A' for Active; 'I' for Inactive)
REMARK    1  A    between atoms: C_1  and  C_2
REMARK    2  A    between atoms: C_2  and  O_3
REMARK    3  A    between atoms: O_3  and  C_4
REMARK    4  A    between atoms: C_4  and  C_6
REMARK    5  A    between atoms: N_17  and  C_18
REMARK    6  A    between atoms: C_21  and  N_22
REMARK    7  A    between atoms: C_27  and  N_28
REMARK                            x       y       z     vdW  Elec       q    Type
REMARK                         _______ _______ _______ _____ _____    ______ ____
ROOT
ATOM      1  C   UNL     1       6.032   5.420  17.002  0.00  0.00    +0.000 A 
ATOM      2  C   UNL     1       5.786   4.063  17.183  0.00  0.00    +0.000 A 
ATOM      3  C   UNL     1       4.585   3.729  17.784  0.00  0.00    +0.000 A 
ATOM      4  N   UNL     1       4.111   2.473  18.064  0.00  0.00    +0.000 N 
ATOM      5  C   UNL     1       2.860   2.538  18.612  0.00  0.00    +0.000 A 
ATOM      6  C   UNL     1       2.045   1.488  19.054  0.00  0.00    +0.000 A 
ATOM      7  C   UNL     1       0.795   1.807  19.577  0.00  0.00    +0.000 A 
ATOM      8  C   UNL     1       0.358   3.122  19.595  0.00  0.00    +0.000 A 
ATOM      9  C   UNL     1       1.170   4.150  19.100  0.00  0.00    +0.000 A 
ATOM     10  C   UNL     1       2.487   3.884  18.648  0.00  0.00    +0.000 A 
ATOM     11  C   UNL     1       3.630   4.664  18.187  0.00  0.00    +0.000 A 
ATOM     12  N   UNL     1       3.942   6.054  18.034  0.00  0.00    +0.000 N 
ATOM     13  C   UNL     1       5.152   6.421  17.484  0.00  0.00    +0.000 A 
ATOM     14  H   UNL     1       4.604   1.608  17.878  0.00  0.00    +0.000 HD
ENDROOT
BRANCH  12  15
ATOM     15  C   UNL     1       2.965   7.064  18.409  0.00  0.00    +0.000 A 
ATOM     16  C   UNL     1       2.508   7.973  17.449  0.00  0.00    +0.000 A 
ATOM     17  C   UNL     1       1.741   9.079  17.844  0.00  0.00    +0.000 A 
ATOM     18  C   UNL     1       1.343   9.212  19.181  0.00  0.00    +0.000 A 
ATOM     19  C   UNL     1       1.685   8.229  20.119  0.00  0.00    +0.000 A 
ATOM     20  C   UNL     1       2.529   7.177  19.739  0.00  0.00    +0.000 A 
BRANCH  18  21
ATOM     21  N   UNL     1       0.621  10.417  19.617  0.00  0.00    +0.000 N 
ATOM     22  O   UNL     1      -0.385  10.738  18.972  0.00  0.00    +0.000 OA
ATOM     23  O   UNL     1       1.085  11.042  20.578  0.00  0.00    +0.000 OA
ENDBRANCH  18  21
ENDBRANCH  12  15
BRANCH  13  24
ATOM     24  N   UNL     1       5.501   7.774  17.298  0.00  0.00    +0.000 N 
ATOM     25  H   UNL     1       6.374   8.041  16.867  0.00  0.00    +0.000 HD
ATOM     26  H   UNL     1       4.721   8.376  16.993  0.00  0.00    +0.000 HD
ENDBRANCH  13  24
BRANCH   1  27
ATOM     27  C   UNL     1       7.269   5.822  16.297  0.00  0.00    +0.000 C 
ATOM     28  O   UNL     1       7.799   6.917  16.451  0.00  0.00    +0.000 OA
BRANCH  27  29
ATOM     29  O   UNL     1       7.588   4.878  15.382  0.00  0.00    +0.000 OA
BRANCH  29  31
ATOM     30  C   UNL     1       6.317   3.909  13.609  0.00  0.00    +0.000 C 
ATOM     31  C   UNL     1       7.118   5.125  14.047  0.00  0.00    +0.000 C 
ENDBRANCH  29  31
ENDBRANCH  27  29
ENDBRANCH   1  27
TORSDOF 6
ENDMDL
MODEL 5
REMARK VINA RESULT:      -7.9      0.954      1.185
REMARK  Name = 
REMARK  7 active torsions:
REMARK  status: ('A' for Active; 'I' for Inactive)
REMARK    1  A    between atoms: C_1  and  C_2
REMARK    2  A    between atoms: C_2  and  O_3
REMARK    3  A    between atoms: O_3  and  C_4
REMARK    4  A    between atoms: C_4  and  C_6
REMARK    5  A    between atoms: N_17  and  C_18
REMARK    6  A    between atoms: C_21  and  N_22
REMARK    7  A    between atoms: C_27  and  N_28
REMARK                            x       y       z     vdW  Elec       q    Type
REMARK                         _______ _______ _______ _____ _____    ______ ____
ROOT
ATOM      1  C   UNL     1       6.057   5.354  16.958  0.00  0.00    +0.000 A 
ATOM      2  C   UNL     1       5.739   4.010  17.120  0.00  0.00    +0.000 A 
ATOM      3  C   UNL     1       4.540   3.733  17.752  0.00  0.00    +0.000 A 
ATOM      4  N   UNL     1       4.001   2.501  18.023  0.00  0.00    +0.000 N 
ATOM      5  C   UNL     1       2.774   2.626  18.611  0.00  0.00    +0.000 A 
ATOM      6  C   UNL     1       1.913   1.615  19.057  0.00  0.00    +0.000 A 
ATOM      7  C   UNL     1       0.700   1.994  19.625  0.00  0.00    +0.000 A 
ATOM      8  C   UNL     1       0.340   3.331  19.682  0.00  0.00    +0.000 A 
ATOM      9  C   UNL     1       1.195   4.322  19.182  0.00  0.00    +0.000 A 
ATOM     10  C   UNL     1       2.481   3.990  18.684  0.00  0.00    +0.000 A 
ATOM     11  C   UNL     1       3.652   4.713  18.202  0.00  0.00    +0.000 A 
ATOM     12  N   UNL     1       4.040   6.085  18.067  0.00  0.00    +0.000 N 
ATOM     13  C   UNL     1       5.253   6.393  17.486  0.00  0.00    +0.000 A 
ATOM     14  H   UNL     1       4.438   1.613  17.804  0.00  0.00    +0.000 HD
ENDROOT
BRANCH  12  15
ATOM     15  C   UNL     1       3.135   7.142  18.491  0.00  0.00    +0.000 A 
ATOM     16  C   UNL     1       2.723   7.204  19.825  0.00  0.00    +0.000 A 
ATOM     17  C   UNL     1       1.688   8.075  20.197  0.00  0.00    +0.000 A 
ATOM     18  C   UNL     1       1.145   8.958  19.253  0.00  0.00    +0.000 A 
ATOM     19  C   UNL     1       1.653   8.993  17.948  0.00  0.00    +0.000 A 
ATOM     20  C   UNL     1       2.620   8.057  17.558  0.00  0.00    +0.000 A 
BRANCH  18  21
ATOM     21  N   UNL     1      -0.003   9.805  19.614  0.00  0.00    +0.000 N 
ATOM     22  O   UNL     1      -0.190  10.021  20.817  0.00  0.00    +0.000 OA
ATOM     23  O   UNL     1      -0.716  10.217  18.692  0.00  0.00    +0.000 OA
ENDBRANCH  18  21
ENDBRANCH  12  15
BRANCH  13  24
ATOM     24  N   UNL     1       5.673   7.727  17.315  0.00  0.00    +0.000 N 
ATOM     25  H   UNL     1       6.644   7.961  17.162  0.00  0.00    +0.000 HD
ATOM     26  H   UNL     1       5.043   8.301  16.734  0.00  0.00    +0.000 HD
ENDBRANCH  13  24
BRANCH   1  27
ATOM     27  C   UNL     1       7.295   5.699  16.223  0.00  0.00    +0.000 C 
ATOM     28  O   UNL     1       7.865   6.777  16.345  0.00  0.00    +0.000 OA
BRANCH  27  29
ATOM     29  O   UNL     1       7.562   4.728  15.320  0.00  0.00    +0.000 OA
BRANCH  29  31
ATOM     30  C   UNL     1       6.252   3.879  13.515  0.00  0.00    +0.000 C 
ATOM     31  C   UNL     1       7.162   5.009  13.969  0.00  0.00    +0.000 C 
ENDBRANCH  29  31
ENDBRANCH  27  29
ENDBRANCH   1  27
TORSDOF 6
ENDMDL
MODEL 6
REMARK VINA RESULT:      -7.6      3.074      6.878
REMARK  Name = 
REMARK  7 active torsions:
REMARK  status: ('A' for Active; 'I' for Inactive)
REMARK    1  A    between atoms: C_1  and  C_2
REMARK    2  A    between atoms: C_2  and  O_3
REMARK    3  A    between atoms: O_3  and  C_4
REMARK    4  A    between atoms: C_4  and  C_6
REMARK    5  A    between atoms: N_17  and  C_18
REMARK    6  A    between atoms: C_21  and  N_22
REMARK    7  A    between atoms: C_27  and  N_28
REMARK                            x       y       z     vdW  Elec       q    Type
REMARK                         _______ _______ _______ _____ _____    ______ ____
ROOT
ATOM      1  C   UNL     1       3.316   3.462  20.749  0.00  0.00    +0.000 A 
ATOM      2  C   UNL     1       2.475   4.447  21.256  0.00  0.00    +0.000 A 
ATOM      3  C   UNL     1       2.396   5.623  20.531  0.00  0.00    +0.000 A 
ATOM      4  N   UNL     1       1.640   6.732  20.815  0.00  0.00    +0.000 N 
ATOM      5  C   UNL     1       1.780   7.677  19.838  0.00  0.00    +0.000 A 
ATOM      6  C   UNL     1       1.197   8.949  19.764  0.00  0.00    +0.000 A 
ATOM      7  C   UNL     1       1.490   9.739  18.656  0.00  0.00    +0.000 A 
ATOM      8  C   UNL     1       2.285   9.244  17.634  0.00  0.00    +0.000 A 
ATOM      9  C   UNL     1       2.815   7.949  17.705  0.00  0.00    +0.000 A 
ATOM     10  C   UNL     1       2.623   7.146  18.858  0.00  0.00    +0.000 A 
ATOM     11  C   UNL     1       3.086   5.850  19.339  0.00  0.00    +0.000 A 
ATOM     12  N   UNL     1       3.984   4.834  18.877  0.00  0.00    +0.000 N 
ATOM     13  C   UNL     1       4.123   3.670  19.604  0.00  0.00    +0.000 A 
ATOM     14  H   UNL     1       1.042   6.838  21.625  0.00  0.00    +0.000 HD
ENDROOT
BRANCH  12  15
ATOM     15  C   UNL     1       4.700   5.012  17.623  0.00  0.00    +0.000 A 
ATOM     16  C   UNL     1       4.252   4.355  16.473  0.00  0.00    +0.000 A 
ATOM     17  C   UNL     1       5.052   4.341  15.320  0.00  0.00    +0.000 A 
ATOM     18  C   UNL     1       6.245   5.075  15.289  0.00  0.00    +0.000 A 
ATOM     19  C   UNL     1       6.627   5.846  16.395  0.00  0.00    +0.000 A 
ATOM     20  C   UNL     1       5.874   5.781  17.575  0.00  0.00    +0.000 A 
BRANCH  18  21
ATOM     21  N   UNL     1       7.132   4.987  14.119  0.00  0.00    +0.000 N 
ATOM     22  O   UNL     1       8.163   5.671  14.138  0.00  0.00    +0.000 OA
ATOM     23  O   UNL     1       6.773   4.260  13.186  0.00  0.00    +0.000 OA
ENDBRANCH  18  21
ENDBRANCH  12  15
BRANCH  13  24
ATOM     24  N   UNL     1       4.981   2.634  19.184  0.00  0.00    +0.000 N 
ATOM     25  H   UNL     1       4.647   1.690  19.052  0.00  0.00    +0.000 HD
ATOM     26  H   UNL     1       5.655   2.909  18.453  0.00  0.00    +0.000 HD
ENDBRANCH  13  24
BRANCH   1  27
ATOM     27  C   UNL     1       3.376   2.160  21.450  0.00  0.00    +0.000 C 
ATOM     28  O   UNL     1       2.394   1.631  21.961  0.00  0.00    +0.000 OA
BRANCH  27  29
ATOM     29  O   UNL     1       4.667   1.774  21.563  0.00  0.00    +0.000 OA
BRANCH  29  31
ATOM     30  C   UNL     1       6.330   0.229  22.302  0.00  0.00    +0.000 C 
ATOM     31  C   UNL     1       4.875   0.391  21.893  0.00  0.00    +0.000 C 
ENDBRANCH  29  31
ENDBRANCH  27  29
ENDBRANCH   1  27
TORSDOF 6
ENDMDL
MODEL 7
REMARK VINA RESULT:      -7.5      5.045     10.438
REMARK  Name = 
REMARK  7 active torsions:
REMARK  status: ('A' for Active; 'I' for Inactive)
REMARK    1  A    between atoms: C_1  and  C_2
REMARK    2  A    between atoms: C_2  and  O_3
REMARK    3  A    between atoms: O_3  and  C_4
REMARK    4  A    between atoms: C_4  and  C_6
REMARK    5  A    between atoms: N_17  and  C_18
REMARK    6  A    between atoms: C_21  and  N_22
REMARK    7  A    between atoms: C_27  and  N_28
REMARK                            x       y       z     vdW  Elec       q    Type
REMARK                         _______ _______ _______ _____ _____    ______ ____
ROOT
ATOM      1  C   UNL     1      -2.248  12.866  21.537  0.00  0.00    +0.000 A 
ATOM      2  C   UNL     1      -3.300  13.046  20.646  0.00  0.00    +0.000 A 
ATOM      3  C   UNL     1      -3.222  12.351  19.452  0.00  0.00    +0.000 A 
ATOM      4  N   UNL     1      -4.128  12.353  18.422  0.00  0.00    +0.000 N 
ATOM      5  C   UNL     1      -3.735  11.499  17.429  0.00  0.00    +0.000 A 
ATOM      6  C   UNL     1      -4.367  11.231  16.208  0.00  0.00    +0.000 A 
ATOM      7  C   UNL     1      -3.771  10.308  15.353  0.00  0.00    +0.000 A 
ATOM      8  C   UNL     1      -2.623   9.635  15.739  0.00  0.00    +0.000 A 
ATOM      9  C   UNL     1      -2.038   9.881  16.988  0.00  0.00    +0.000 A 
ATOM     10  C   UNL     1      -2.554  10.882  17.849  0.00  0.00    +0.000 A 
ATOM     11  C   UNL     1      -2.176  11.487  19.122  0.00  0.00    +0.000 A 
ATOM     12  N   UNL     1      -1.084  11.370  20.041  0.00  0.00    +0.000 N 
ATOM     13  C   UNL     1      -1.108  12.089  21.218  0.00  0.00    +0.000 A 
ATOM     14  H   UNL     1      -4.983  12.896  18.397  0.00  0.00    +0.000 HD
ENDROOT
BRANCH  12  15
ATOM     15  C   UNL     1       0.013  10.458  19.755  0.00  0.00    +0.000 A 
ATOM     16  C   UNL     1       0.829  10.686  18.643  0.00  0.00    +0.000 A 
ATOM     17  C   UNL     1       1.742   9.703  18.234  0.00  0.00    +0.000 A 
ATOM     18  C   UNL     1       1.911   8.543  19.002  0.00  0.00    +0.000 A 
ATOM     19  C   UNL     1       1.193   8.376  20.192  0.00  0.00    +0.000 A 
ATOM     20  C   UNL     1       0.215   9.315  20.547  0.00  0.00    +0.000 A 
BRANCH  18  21
ATOM     21  N   UNL     1       2.797   7.469  18.526  0.00  0.00    +0.000 N 
ATOM     22  O   UNL     1       2.865   6.445  19.217  0.00  0.00    +0.000 OA
ATOM     23  O   UNL     1       3.433   7.675  17.487  0.00  0.00    +0.000 OA
ENDBRANCH  18  21
ENDBRANCH  12  15
BRANCH  13  24
ATOM     24  N   UNL     1      -0.066  11.997  22.162  0.00  0.00    +0.000 N 
ATOM     25  H   UNL     1       0.790  12.523  22.059  0.00  0.00    +0.000 HD
ATOM     26  H   UNL     1      -0.382  11.967  23.143  0.00  0.00    +0.000 HD
ENDBRANCH  13  24
BRANCH   1  27
ATOM     27  C   UNL     1      -2.324  13.532  22.857  0.00  0.00    +0.000 C 
ATOM     28  O   UNL     1      -1.330  13.865  23.494  0.00  0.00    +0.000 OA
BRANCH  27  29
ATOM     29  O   UNL     1      -3.610  13.546  23.276  0.00  0.00    +0.000 OA
BRANCH  29  31
ATOM     30  C   UNL     1      -4.901  12.249  24.807  0.00  0.00    +0.000 C 
ATOM     31  C   UNL     1      -3.808  13.297  24.677  0.00  0.00    +0.000 C 
ENDBRANCH  29  31
ENDBRANCH  27  29
ENDBRANCH   1  27
TORSDOF 6
ENDMDL
MODEL 8
REMARK VINA RESULT:      -7.4      1.915      6.358
REMARK  Name = 
REMARK  7 active torsions:
REMARK  status: ('A' for Active; 'I' for Inactive)
REMARK    1  A    between atoms: C_1  and  C_2
REMARK    2  A    between atoms: C_2  and  O_3
REMARK    3  A    between atoms: O_3  and  C_4
REMARK    4  A    between atoms: C_4  and  C_6
REMARK    5  A    between atoms: N_17  and  C_18
REMARK    6  A    between atoms: C_21  and  N_22
REMARK    7  A    between atoms: C_27  and  N_28
REMARK                            x       y       z     vdW  Elec       q    Type
REMARK                         _______ _______ _______ _____ _____    ______ ____
ROOT
ATOM      1  C   UNL     1       1.820   8.233  19.125  0.00  0.00    +0.000 A 
ATOM      2  C   UNL     1       1.358   7.467  20.189  0.00  0.00    +0.000 A 
ATOM      3  C   UNL     1       1.889   6.195  20.310  0.00  0.00    +0.000 A 
ATOM      4  N   UNL     1       1.604   5.257  21.269  0.00  0.00    +0.000 N 
ATOM      5  C   UNL     1       2.368   4.137  21.093  0.00  0.00    +0.000 A 
ATOM      6  C   UNL     1       2.365   2.953  21.842  0.00  0.00    +0.000 A 
ATOM      7  C   UNL     1       3.247   1.942  21.469  0.00  0.00    +0.000 A 
ATOM      8  C   UNL     1       4.140   2.140  20.428  0.00  0.00    +0.000 A 
ATOM      9  C   UNL     1       4.160   3.353  19.727  0.00  0.00    +0.000 A 
ATOM     10  C   UNL     1       3.216   4.372  20.008  0.00  0.00    +0.000 A 
ATOM     11  C   UNL     1       2.856   5.670  19.449  0.00  0.00    +0.000 A 
ATOM     12  N   UNL     1       3.267   6.468  18.333  0.00  0.00    +0.000 N 
ATOM     13  C   UNL     1       2.719   7.721  18.156  0.00  0.00    +0.000 A 
ATOM     14  H   UNL     1       0.934   5.374  22.020  0.00  0.00    +0.000 HD
ENDROOT
BRANCH  12  15
ATOM     15  C   UNL     1       4.295   5.978  17.428  0.00  0.00    +0.000 A 
ATOM     16  C   UNL     1       5.512   6.658  17.331  0.00  0.00    +0.000 A 
ATOM     17  C   UNL     1       6.418   6.328  16.312  0.00  0.00    +0.000 A 
ATOM     18  C   UNL     1       6.149   5.247  15.461  0.00  0.00    +0.000 A 
ATOM     19  C   UNL     1       4.993   4.477  15.645  0.00  0.00    +0.000 A 
ATOM     20  C   UNL     1       4.048   4.868  16.602  0.00  0.00    +0.000 A 
BRANCH  18  21
ATOM     21  N   UNL     1       7.047   4.957  14.333  0.00  0.00    +0.000 N 
ATOM     22  O   UNL     1       8.087   5.624  14.253  0.00  0.00    +0.000 OA
ATOM     23  O   UNL     1       6.688   4.090  13.528  0.00  0.00    +0.000 OA
ENDBRANCH  18  21
ENDBRANCH  12  15
BRANCH  13  24
ATOM     24  N   UNL     1       3.101   8.552  17.083  0.00  0.00    +0.000 N 
ATOM     25  H   UNL     1       4.069   8.657  16.815  0.00  0.00    +0.000 HD
ATOM     26  H   UNL     1       2.478   8.502  16.264  0.00  0.00    +0.000 HD
ENDBRANCH  13  24
BRANCH   1  27
ATOM     27  C   UNL     1       1.335   9.625  18.998  0.00  0.00    +0.000 C 
ATOM     28  O   UNL     1       1.593  10.499  19.819  0.00  0.00    +0.000 OA
BRANCH  27  29
ATOM     29  O   UNL     1       0.468   9.703  17.963  0.00  0.00    +0.000 OA
BRANCH  29  31
ATOM     30  C   UNL     1      -1.770   9.922  17.161  0.00  0.00    +0.000 C 
ATOM     31  C   UNL     1      -0.796  10.322  18.257  0.00  0.00    +0.000 C 
ENDBRANCH  29  31
ENDBRANCH  27  29
ENDBRANCH   1  27
TORSDOF 6
ENDMDL
MODEL 9
REMARK VINA RESULT:      -7.4      1.851      2.801
REMARK  Name = 
REMARK  7 active torsions:
REMARK  status: ('A' for Active; 'I' for Inactive)
REMARK    1  A    between atoms: C_1  and  C_2
REMARK    2  A    between atoms: C_2  and  O_3
REMARK    3  A    between atoms: O_3  and  C_4
REMARK    4  A    between atoms: C_4  and  C_6
REMARK    5  A    between atoms: N_17  and  C_18
REMARK    6  A    between atoms: C_21  and  N_22
REMARK    7  A    between atoms: C_27  and  N_28
REMARK                            x       y       z     vdW  Elec       q    Type
REMARK                         _______ _______ _______ _____ _____    ______ ____
ROOT
ATOM      1  C   UNL     1       5.969   5.909  17.416  0.00  0.00    +0.000 A 
ATOM      2  C   UNL     1       6.041   4.647  17.996  0.00  0.00    +0.000 A 
ATOM      3  C   UNL     1       4.994   4.291  18.828  0.00  0.00    +0.000 A 
ATOM      4  N   UNL     1       4.830   3.111  19.508  0.00  0.00    +0.000 N 
ATOM      5  C   UNL     1       3.642   3.103  20.186  0.00  0.00    +0.000 A 
ATOM      6  C   UNL     1       3.115   2.101  21.010  0.00  0.00    +0.000 A 
ATOM      7  C   UNL     1       1.871   2.323  21.594  0.00  0.00    +0.000 A 
ATOM      8  C   UNL     1       1.159   3.478  21.309  0.00  0.00    +0.000 A 
ATOM      9  C   UNL     1       1.685   4.443  20.440  0.00  0.00    +0.000 A 
ATOM     10  C   UNL     1       2.988   4.304  19.900  0.00  0.00    +0.000 A 
ATOM     11  C   UNL     1       3.892   5.109  19.086  0.00  0.00    +0.000 A 
ATOM     12  N   UNL     1       3.880   6.422  18.514  0.00  0.00    +0.000 N 
ATOM     13  C   UNL     1       4.933   6.826  17.720  0.00  0.00    +0.000 A 
ATOM     14  H   UNL     1       5.483   2.337  19.501  0.00  0.00    +0.000 HD
ENDROOT
BRANCH  12  15
ATOM     15  C   UNL     1       2.738   7.298  18.728  0.00  0.00    +0.000 A 
ATOM     16  C   UNL     1       2.138   7.930  17.634  0.00  0.00    +0.000 A 
ATOM     17  C   UNL     1       1.187   8.939  17.846  0.00  0.00    +0.000 A 
ATOM     18  C   UNL     1       0.760   9.234  19.148  0.00  0.00    +0.000 A 
ATOM     19  C   UNL     1       1.260   8.506  20.235  0.00  0.00    +0.000 A 
ATOM     20  C   UNL     1       2.278   7.566  20.027  0.00  0.00    +0.000 A 
BRANCH  18  21
ATOM     21  N   UNL     1      -0.165  10.354  19.383  0.00  0.00    +0.000 N 
ATOM     22  O   UNL     1       0.149  11.174  20.254  0.00  0.00    +0.000 OA
ATOM     23  O   UNL     1      -1.205  10.381  18.714  0.00  0.00    +0.000 OA
ENDBRANCH  18  21
ENDBRANCH  12  15
BRANCH  13  24
ATOM     24  N   UNL     1       4.961   8.101  17.121  0.00  0.00    +0.000 N 
ATOM     25  H   UNL     1       4.146   8.494  16.673  0.00  0.00    +0.000 HD
ATOM     26  H   UNL     1       5.486   8.811  17.655  0.00  0.00    +0.000 HD
ENDBRANCH  13  24
BRANCH   1  27
ATOM     27  C   UNL     1       7.028   6.304  16.461  0.00  0.00    +0.000 C 
ATOM     28  O   UNL     1       7.462   5.552  15.595  0.00  0.00    +0.000 OA
BRANCH  27  29
ATOM     29  O   UNL     1       7.516   7.516  16.814  0.00  0.00    +0.000 OA
BRANCH  29  31
ATOM     30  C   UNL     1       8.490   9.033  18.378  0.00  0.00    +0.000 C 
ATOM     31  C   UNL     1       8.155   7.577  18.100  0.00  0.00    +0.000 C 
ENDBRANCH  29  31
ENDBRANCH  27  29
ENDBRANCH   1  27
TORSDOF 6
ENDMDL
