MODEL 1
REMARK VINA RESULT:      -8.0      0.000      0.000
REMARK  Name = 
REMARK  13 active torsions:
REMARK  status: ('A' for Active; 'I' for Inactive)
REMARK    1  A    between atoms: C_4  and  C_5
REMARK    2  A    between atoms: C_6  and  C_7
REMARK    3  A    between atoms: C_10  and  C_11
REMARK    4  A    between atoms: C_10  and  C_12
REMARK    5  A    between atoms: C_12  and  C_13
REMARK    6  A    between atoms: C_14  and  C_15
REMARK    7  A    between atoms: C_15  and  C_16
REMARK    8  A    between atoms: C_15  and  C_17
REMARK    9  A    between atoms: C_15  and  O_18
REMARK   10  A    between atoms: C_19  and  C_20
REMARK   11  A    between atoms: C_19  and  C_21
REMARK   12  A    between atoms: C_23  and  O_24
REMARK   13  A    between atoms: C_26  and  O_27
REMARK                            x       y       z     vdW  Elec       q    Type
REMARK                         _______ _______ _______ _____ _____    ______ ____
ROOT
ATOM      1  C   UNL     1       2.303   5.208  20.371  0.00  0.00    +0.000 C 
ATOM      2  C   UNL     1       3.714   5.713  20.023  0.00  0.00    +0.000 C 
ATOM      3  C   UNL     1       4.389   4.612  19.228  0.00  0.00    +0.000 C 
ATOM      4  C   UNL     1       3.425   3.405  19.185  0.00  0.00    +0.000 C 
ATOM      5  C   UNL     1       3.788   2.466  20.360  0.00  0.00    +0.000 C 
ATOM      6  C   UNL     1       2.004   4.091  19.333  0.00  0.00    +0.000 C 
ATOM      7  C   UNL     1       0.920   3.117  19.827  0.00  0.00    +0.000 C 
ATOM      8  C   UNL     1       1.484   4.714  18.007  0.00  0.00    +0.000 C 
ENDROOT
BRANCH   1  10
ATOM      9  C   UNL     1       1.638   7.584  20.712  0.00  0.00    +0.000 C 
ATOM     10  C   UNL     1       1.290   6.321  20.431  0.00  0.00    +0.000 C 
BRANCH   9  14
ATOM     11  C   UNL     1       1.455   8.918  17.821  0.00  0.00    +0.000 C 
ATOM     12  C   UNL     1       1.336   9.894  18.740  0.00  0.00    +0.000 C 
ATOM     13  C   UNL     1       0.567   9.702  19.979  0.00  0.00    +0.000 C 
ATOM     14  C   UNL     1       0.699   8.669  20.834  0.00  0.00    +0.000 C 
ATOM     15  C   UNL     1      -0.420  10.816  20.289  0.00  0.00    +0.000 C 
ATOM     16  C   UNL     1       0.184  12.218  20.136  0.00  0.00    +0.000 C 
ATOM     17  C   UNL     1       0.912  12.383  18.805  0.00  0.00    +0.000 C 
ATOM     18  C   UNL     1       1.946  11.279  18.577  0.00  0.00    +0.000 C 
BRANCH  16  19
ATOM     19  O   UNL     1       1.060  12.520  21.223  0.00  0.00    +0.000 OA
ATOM     20  H   UNL     1       1.656  13.241  20.954  0.00  0.00    +0.000 HD
ENDBRANCH  16  19
BRANCH  18  21
ATOM     21  O   UNL     1       2.506  11.456  17.276  0.00  0.00    +0.000 OA
ATOM     22  H   UNL     1       3.258  10.844  17.204  0.00  0.00    +0.000 HD
ENDBRANCH  18  21
ENDBRANCH   9  14
ENDBRANCH   1  10
BRANCH   4  23
ATOM     23  C   UNL     1       3.616   2.662  17.820  0.00  0.00    +0.000 C 
BRANCH  23  24
ATOM     24  C   UNL     1       4.522   3.334  16.822  0.00  0.00    +0.000 C 
ATOM     25  C   UNL     1       5.266   3.915  16.033  0.00  0.00    +0.000 C 
BRANCH  25  26
ATOM     26  C   UNL     1       6.161   4.628  15.067  0.00  0.00    +0.000 C 
ATOM     27  C   UNL     1       6.183   3.928  13.700  0.00  0.00    +0.000 C 
ATOM     28  C   UNL     1       5.735   6.093  14.891  0.00  0.00    +0.000 C 
BRANCH  26  29
ATOM     29  O   UNL     1       7.506   4.642  15.566  0.00  0.00    +0.000 OA
ATOM     30  H   UNL     1       7.439   4.590  16.534  0.00  0.00    +0.000 HD
ENDBRANCH  26  29
ENDBRANCH  25  26
ENDBRANCH  23  24
ENDBRANCH   4  23
TORSDOF 8
ENDMDL
MODEL 2
REMARK VINA RESULT:      -7.8      2.000      3.398
REMARK  Name = 
REMARK  13 active torsions:
REMARK  status: ('A' for Active; 'I' for Inactive)
REMARK    1  A    between atoms: C_4  and  C_5
REMARK    2  A    between atoms: C_6  and  C_7
REMARK    3  A    between atoms: C_10  and  C_11
REMARK    4  A    between atoms: C_10  and  C_12
REMARK    5  A    between atoms: C_12  and  C_13
REMARK    6  A    between atoms: C_14  and  C_15
REMARK    7  A    between atoms: C_15  and  C_16
REMARK    8  A    between atoms: C_15  and  C_17
REMARK    9  A    between atoms: C_15  and  O_18
REMARK   10  A    between atoms: C_19  and  C_20
REMARK   11  A    between atoms: C_19  and  C_21
REMARK   12  A    between atoms: C_23  and  O_24
REMARK   13  A    between atoms: C_26  and  O_27
REMARK                            x       y       z     vdW  Elec       q    Type
REMARK                         _______ _______ _______ _____ _____    ______ ____
ROOT
ATOM      1  C   UNL     1       4.352   6.552  18.367  0.00  0.00    +0.000 C 
ATOM      2  C   UNL     1       3.929   6.733  16.899  0.00  0.00    +0.000 C 
ATOM      3  C   UNL     1       4.952   5.997  16.055  0.00  0.00    +0.000 C 
ATOM      4  C   UNL     1       6.046   5.460  17.005  0.00  0.00    +0.000 C 
ATOM      5  C   UNL     1       7.182   6.508  17.059  0.00  0.00    +0.000 C 
ATOM      6  C   UNL     1       5.265   5.294  18.374  0.00  0.00    +0.000 C 
ATOM      7  C   UNL     1       6.202   5.266  19.595  0.00  0.00    +0.000 C 
ATOM      8  C   UNL     1       4.401   4.003  18.434  0.00  0.00    +0.000 C 
ENDROOT
BRANCH   1  10
ATOM      9  C   UNL     1       2.477   7.596  19.631  0.00  0.00    +0.000 C 
ATOM     10  C   UNL     1       3.174   6.499  19.305  0.00  0.00    +0.000 C 
BRANCH   9  14
ATOM     11  C   UNL     1       0.655  10.088  18.830  0.00  0.00    +0.000 C 
ATOM     12  C   UNL     1       0.625   9.961  20.169  0.00  0.00    +0.000 C 
ATOM     13  C   UNL     1       0.566   8.644  20.823  0.00  0.00    +0.000 C 
ATOM     14  C   UNL     1       1.379   7.602  20.565  0.00  0.00    +0.000 C 
ATOM     15  C   UNL     1      -0.501   8.520  21.898  0.00  0.00    +0.000 C 
ATOM     16  C   UNL     1      -0.517   9.706  22.873  0.00  0.00    +0.000 C 
ATOM     17  C   UNL     1      -0.522  11.045  22.142  0.00  0.00    +0.000 C 
ATOM     18  C   UNL     1       0.615  11.146  21.124  0.00  0.00    +0.000 C 
BRANCH  16  19
ATOM     19  O   UNL     1       0.585   9.638  23.780  0.00  0.00    +0.000 OA
ATOM     20  H   UNL     1       1.409   9.787  23.282  0.00  0.00    +0.000 HD
ENDBRANCH  16  19
BRANCH  18  21
ATOM     21  O   UNL     1       0.476  12.383  20.425  0.00  0.00    +0.000 OA
ATOM     22  H   UNL     1       0.452  12.172  19.475  0.00  0.00    +0.000 HD
ENDBRANCH  18  21
ENDBRANCH   9  14
ENDBRANCH   1  10
BRANCH   4  23
ATOM     23  C   UNL     1       6.585   4.107  16.431  0.00  0.00    +0.000 C 
BRANCH  23  24
ATOM     24  C   UNL     1       6.406   3.898  14.950  0.00  0.00    +0.000 C 
ATOM     25  C   UNL     1       6.290   3.700  13.742  0.00  0.00    +0.000 C 
BRANCH  25  26
ATOM     26  C   UNL     1       6.159   3.467  12.268  0.00  0.00    +0.000 C 
ATOM     27  C   UNL     1       4.700   3.597  11.807  0.00  0.00    +0.000 C 
ATOM     28  C   UNL     1       7.042   4.438  11.470  0.00  0.00    +0.000 C 
BRANCH  26  29
ATOM     29  O   UNL     1       6.597   2.140  11.942  0.00  0.00    +0.000 OA
ATOM     30  H   UNL     1       6.758   1.691  12.788  0.00  0.00    +0.000 HD
ENDBRANCH  26  29
ENDBRANCH  25  26
ENDBRANCH  23  24
ENDBRANCH   4  23
TORSDOF 8
ENDMDL
MODEL 3
REMARK VINA RESULT:      -7.7      2.108      3.135
REMARK  Name = 
REMARK  13 active torsions:
REMARK  status: ('A' for Active; 'I' for Inactive)
REMARK    1  A    between atoms: C_4  and  C_5
REMARK    2  A    between atoms: C_6  and  C_7
REMARK    3  A    between atoms: C_10  and  C_11
REMARK    4  A    between atoms: C_10  and  C_12
REMARK    5  A    between atoms: C_12  and  C_13
REMARK    6  A    between atoms: C_14  and  C_15
REMARK    7  A    between atoms: C_15  and  C_16
REMARK    8  A    between atoms: C_15  and  C_17
REMARK    9  A    between atoms: C_15  and  O_18
REMARK   10  A    between atoms: C_19  and  C_20
REMARK   11  A    between atoms: C_19  and  C_21
REMARK   12  A    between atoms: C_23  and  O_24
REMARK   13  A    between atoms: C_26  and  O_27
REMARK                            x       y       z     vdW  Elec       q    Type
REMARK                         _______ _______ _______ _____ _____    ______ ____
ROOT
ATOM      1  C   UNL     1       4.068   7.109  17.729  0.00  0.00    +0.000 C 
ATOM      2  C   UNL     1       4.418   7.420  16.263  0.00  0.00    +0.000 C 
ATOM      3  C   UNL     1       5.361   6.327  15.798  0.00  0.00    +0.000 C 
ATOM      4  C   UNL     1       5.660   5.417  17.010  0.00  0.00    +0.000 C 
ATOM      5  C   UNL     1       6.955   5.932  17.681  0.00  0.00    +0.000 C 
ATOM      6  C   UNL     1       4.364   5.594  17.904  0.00  0.00    +0.000 C 
ATOM      7  C   UNL     1       4.601   5.218  19.378  0.00  0.00    +0.000 C 
ATOM      8  C   UNL     1       3.157   4.749  17.408  0.00  0.00    +0.000 C 
ENDROOT
BRANCH   1  10
ATOM      9  C   UNL     1       2.197   8.752  17.774  0.00  0.00    +0.000 C 
ATOM     10  C   UNL     1       2.671   7.541  18.093  0.00  0.00    +0.000 C 
BRANCH   9  14
ATOM     11  C   UNL     1       2.430  11.928  17.944  0.00  0.00    +0.000 C 
ATOM     12  C   UNL     1       1.574  11.521  18.899  0.00  0.00    +0.000 C 
ATOM     13  C   UNL     1       0.604  10.440  18.662  0.00  0.00    +0.000 C 
ATOM     14  C   UNL     1       0.889   9.227  18.149  0.00  0.00    +0.000 C 
ATOM     15  C   UNL     1      -0.819  10.765  19.083  0.00  0.00    +0.000 C 
ATOM     16  C   UNL     1      -0.906  11.391  20.483  0.00  0.00    +0.000 C 
ATOM     17  C   UNL     1       0.074  12.548  20.652  0.00  0.00    +0.000 C 
ATOM     18  C   UNL     1       1.503  12.146  20.284  0.00  0.00    +0.000 C 
BRANCH  16  19
ATOM     19  O   UNL     1      -0.695  10.407  21.497  0.00  0.00    +0.000 OA
ATOM     20  H   UNL     1      -1.559  10.052  21.773  0.00  0.00    +0.000 HD
ENDBRANCH  16  19
BRANCH  18  21
ATOM     21  O   UNL     1       2.329  13.308  20.379  0.00  0.00    +0.000 OA
ATOM     22  H   UNL     1       1.881  14.016  19.886  0.00  0.00    +0.000 HD
ENDBRANCH  18  21
ENDBRANCH   9  14
ENDBRANCH   1  10
BRANCH   4  23
ATOM     23  C   UNL     1       5.864   3.952  16.495  0.00  0.00    +0.000 C 
BRANCH  23  24
ATOM     24  C   UNL     1       5.981   3.785  15.003  0.00  0.00    +0.000 C 
ATOM     25  C   UNL     1       6.040   3.631  13.785  0.00  0.00    +0.000 C 
BRANCH  25  26
ATOM     26  C   UNL     1       6.115   3.431  12.302  0.00  0.00    +0.000 C 
ATOM     27  C   UNL     1       4.727   3.531  11.652  0.00  0.00    +0.000 C 
ATOM     28  C   UNL     1       7.066   4.445  11.652  0.00  0.00    +0.000 C 
BRANCH  26  29
ATOM     29  O   UNL     1       6.633   2.125  12.010  0.00  0.00    +0.000 OA
ATOM     30  H   UNL     1       7.081   1.823  12.818  0.00  0.00    +0.000 HD
ENDBRANCH  26  29
ENDBRANCH  25  26
ENDBRANCH  23  24
ENDBRANCH   4  23
TORSDOF 8
ENDMDL
MODEL 4
REMARK VINA RESULT:      -7.6      6.874     10.921
REMARK  Name = 
REMARK  13 active torsions:
REMARK  status: ('A' for Active; 'I' for Inactive)
REMARK    1  A    between atoms: C_4  and  C_5
REMARK    2  A    between atoms: C_6  and  C_7
REMARK    3  A    between atoms: C_10  and  C_11
REMARK    4  A    between atoms: C_10  and  C_12
REMARK    5  A    between atoms: C_12  and  C_13
REMARK    6  A    between atoms: C_14  and  C_15
REMARK    7  A    between atoms: C_15  and  C_16
REMARK    8  A    between atoms: C_15  and  C_17
REMARK    9  A    between atoms: C_15  and  O_18
REMARK   10  A    between atoms: C_19  and  C_20
REMARK   11  A    between atoms: C_19  and  C_21
REMARK   12  A    between atoms: C_23  and  O_24
REMARK   13  A    between atoms: C_26  and  O_27
REMARK                            x       y       z     vdW  Elec       q    Type
REMARK                         _______ _______ _______ _____ _____    ______ ____
ROOT
ATOM      1  C   UNL     1       9.654  10.782  18.671  0.00  0.00    +0.000 C 
ATOM      2  C   UNL     1       9.563  10.606  20.197  0.00  0.00    +0.000 C 
ATOM      3  C   UNL     1      10.267  11.798  20.817  0.00  0.00    +0.000 C 
ATOM      4  C   UNL     1      10.869  12.638  19.668  0.00  0.00    +0.000 C 
ATOM      5  C   UNL     1      12.330  12.174  19.457  0.00  0.00    +0.000 C 
ATOM      6  C   UNL     1       9.911  12.298  18.452  0.00  0.00    +0.000 C 
ATOM      7  C   UNL     1      10.558  12.583  17.085  0.00  0.00    +0.000 C 
ATOM      8  C   UNL     1       8.569  13.083  18.492  0.00  0.00    +0.000 C 
ENDROOT
BRANCH   1  10
ATOM      9  C   UNL     1       8.132   8.921  18.016  0.00  0.00    +0.000 C 
ATOM     10  C   UNL     1       8.453  10.221  17.954  0.00  0.00    +0.000 C 
BRANCH   9  14
ATOM     11  C   UNL     1       7.679   6.047  19.321  0.00  0.00    +0.000 C 
ATOM     12  C   UNL     1       7.415   5.955  18.004  0.00  0.00    +0.000 C 
ATOM     13  C   UNL     1       6.711   7.022  17.277  0.00  0.00    +0.000 C 
ATOM     14  C   UNL     1       7.027   8.332  17.303  0.00  0.00    +0.000 C 
ATOM     15  C   UNL     1       5.558   6.542  16.411  0.00  0.00    +0.000 C 
ATOM     16  C   UNL     1       5.919   5.326  15.546  0.00  0.00    +0.000 C 
ATOM     17  C   UNL     1       6.586   4.223  16.362  0.00  0.00    +0.000 C 
ATOM     18  C   UNL     1       7.784   4.745  17.157  0.00  0.00    +0.000 C 
BRANCH  16  19
ATOM     19  O   UNL     1       6.752   5.707  14.449  0.00  0.00    +0.000 OA
ATOM     20  H   UNL     1       7.617   5.270  14.547  0.00  0.00    +0.000 HD
ENDBRANCH  16  19
BRANCH  18  21
ATOM     21  O   UNL     1       8.283   3.675  17.960  0.00  0.00    +0.000 OA
ATOM     22  H   UNL     1       9.245   3.638  17.819  0.00  0.00    +0.000 HD
ENDBRANCH  18  21
ENDBRANCH   9  14
ENDBRANCH   1  10
BRANCH   4  23
ATOM     23  C   UNL     1      10.835  14.147  20.083  0.00  0.00    +0.000 C 
BRANCH  23  24
ATOM     24  C   UNL     1      10.089  14.468  21.351  0.00  0.00    +0.000 C 
ATOM     25  C   UNL     1       9.507  14.707  22.407  0.00  0.00    +0.000 C 
BRANCH  25  26
ATOM     26  C   UNL     1       8.791  14.987  23.693  0.00  0.00    +0.000 C 
ATOM     27  C   UNL     1       9.578  15.974  24.569  0.00  0.00    +0.000 C 
ATOM     28  C   UNL     1       7.380  15.534  23.437  0.00  0.00    +0.000 C 
BRANCH  26  29
ATOM     29  O   UNL     1       8.639  13.773  24.443  0.00  0.00    +0.000 OA
ATOM     30  H   UNL     1       9.073  13.924  25.298  0.00  0.00    +0.000 HD
ENDBRANCH  26  29
ENDBRANCH  25  26
ENDBRANCH  23  24
ENDBRANCH   4  23
TORSDOF 8
ENDMDL
MODEL 5
REMARK VINA RESULT:      -7.3      3.227      9.898
REMARK  Name = 
REMARK  13 active torsions:
REMARK  status: ('A' for Active; 'I' for Inactive)
REMARK    1  A    between atoms: C_4  and  C_5
REMARK    2  A    between atoms: C_6  and  C_7
REMARK    3  A    between atoms: C_10  and  C_11
REMARK    4  A    between atoms: C_10  and  C_12
REMARK    5  A    between atoms: C_12  and  C_13
REMARK    6  A    between atoms: C_14  and  C_15
REMARK    7  A    between atoms: C_15  and  C_16
REMARK    8  A    between atoms: C_15  and  C_17
REMARK    9  A    between atoms: C_15  and  O_18
REMARK   10  A    between atoms: C_19  and  C_20
REMARK   11  A    between atoms: C_19  and  C_21
REMARK   12  A    between atoms: C_23  and  O_24
REMARK   13  A    between atoms: C_26  and  O_27
REMARK                            x       y       z     vdW  Elec       q    Type
REMARK                         _______ _______ _______ _____ _____    ______ ____
ROOT
ATOM      1  C   UNL     1       1.328   9.527  19.977  0.00  0.00    +0.000 C 
ATOM      2  C   UNL     1       0.475   8.948  21.120  0.00  0.00    +0.000 C 
ATOM      3  C   UNL     1      -0.558  10.002  21.471  0.00  0.00    +0.000 C 
ATOM      4  C   UNL     1      -0.264  11.253  20.612  0.00  0.00    +0.000 C 
ATOM      5  C   UNL     1       0.643  12.194  21.440  0.00  0.00    +0.000 C 
ATOM      6  C   UNL     1       0.450  10.637  19.337  0.00  0.00    +0.000 C 
ATOM      7  C   UNL     1       1.293  11.671  18.570  0.00  0.00    +0.000 C 
ATOM      8  C   UNL     1      -0.546  10.016  18.318  0.00  0.00    +0.000 C 
ENDROOT
BRANCH   1  10
ATOM      9  C   UNL     1       2.206   7.255  19.454  0.00  0.00    +0.000 C 
ATOM     10  C   UNL     1       1.817   8.464  19.028  0.00  0.00    +0.000 C 
BRANCH   9  14
ATOM     11  C   UNL     1       0.940   4.513  20.478  0.00  0.00    +0.000 C 
ATOM     12  C   UNL     1       2.192   4.262  20.051  0.00  0.00    +0.000 C 
ATOM     13  C   UNL     1       2.746   4.907  18.851  0.00  0.00    +0.000 C 
ATOM     14  C   UNL     1       2.732   6.229  18.591  0.00  0.00    +0.000 C 
ATOM     15  C   UNL     1       3.411   3.953  17.871  0.00  0.00    +0.000 C 
ATOM     16  C   UNL     1       4.367   2.962  18.549  0.00  0.00    +0.000 C 
ATOM     17  C   UNL     1       3.719   2.273  19.747  0.00  0.00    +0.000 C 
ATOM     18  C   UNL     1       3.131   3.280  20.737  0.00  0.00    +0.000 C 
BRANCH  16  19
ATOM     19  O   UNL     1       5.580   3.607  18.942  0.00  0.00    +0.000 OA
ATOM     20  H   UNL     1       5.690   4.416  18.410  0.00  0.00    +0.000 HD
ENDBRANCH  16  19
BRANCH  18  21
ATOM     21  O   UNL     1       2.467   2.551  21.769  0.00  0.00    +0.000 OA
ATOM     22  H   UNL     1       2.102   3.205  22.390  0.00  0.00    +0.000 HD
ENDBRANCH  18  21
ENDBRANCH   9  14
ENDBRANCH   1  10
BRANCH   4  23
ATOM     23  C   UNL     1      -1.621  11.961  20.282  0.00  0.00    +0.000 C 
BRANCH  23  24
ATOM     24  C   UNL     1      -2.466  12.357  21.464  0.00  0.00    +0.000 C 
ATOM     25  C   UNL     1      -3.187  12.659  22.413  0.00  0.00    +0.000 C 
BRANCH  25  26
ATOM     26  C   UNL     1      -4.070  13.036  23.562  0.00  0.00    +0.000 C 
ATOM     27  C   UNL     1      -3.418  14.114  24.441  0.00  0.00    +0.000 C 
ATOM     28  C   UNL     1      -5.440  13.527  23.073  0.00  0.00    +0.000 C 
BRANCH  26  29
ATOM     29  O   UNL     1      -4.309  11.890  24.392  0.00  0.00    +0.000 OA
ATOM     30  H   UNL     1      -4.034  11.116  23.874  0.00  0.00    +0.000 HD
ENDBRANCH  26  29
ENDBRANCH  25  26
ENDBRANCH  23  24
ENDBRANCH   4  23
TORSDOF 8
ENDMDL
MODEL 6
REMARK VINA RESULT:      -7.0      7.061     10.676
REMARK  Name = 
REMARK  13 active torsions:
REMARK  status: ('A' for Active; 'I' for Inactive)
REMARK    1  A    between atoms: C_4  and  C_5
REMARK    2  A    between atoms: C_6  and  C_7
REMARK    3  A    between atoms: C_10  and  C_11
REMARK    4  A    between atoms: C_10  and  C_12
REMARK    5  A    between atoms: C_12  and  C_13
REMARK    6  A    between atoms: C_14  and  C_15
REMARK    7  A    between atoms: C_15  and  C_16
REMARK    8  A    between atoms: C_15  and  C_17
REMARK    9  A    between atoms: C_15  and  O_18
REMARK   10  A    between atoms: C_19  and  C_20
REMARK   11  A    between atoms: C_19  and  C_21
REMARK   12  A    between atoms: C_23  and  O_24
REMARK   13  A    between atoms: C_26  and  O_27
REMARK                            x       y       z     vdW  Elec       q    Type
REMARK                         _______ _______ _______ _____ _____    ______ ____
ROOT
ATOM      1  C   UNL     1       9.620  10.407  18.513  0.00  0.00    +0.000 C 
ATOM      2  C   UNL     1       9.354  10.158  20.008  0.00  0.00    +0.000 C 
ATOM      3  C   UNL     1       9.883  11.369  20.754  0.00  0.00    +0.000 C 
ATOM      4  C   UNL     1      10.558  12.299  19.721  0.00  0.00    +0.000 C 
ATOM      5  C   UNL     1      12.065  11.950  19.683  0.00  0.00    +0.000 C 
ATOM      6  C   UNL     1       9.787  11.947  18.381  0.00  0.00    +0.000 C 
ATOM      7  C   UNL     1      10.577  12.337  17.119  0.00  0.00    +0.000 C 
ATOM      8  C   UNL     1       8.396  12.632  18.277  0.00  0.00    +0.000 C 
ENDROOT
BRANCH   1  10
ATOM      9  C   UNL     1       7.726   8.850  18.076  0.00  0.00    +0.000 C 
ATOM     10  C   UNL     1       8.564   9.795  17.630  0.00  0.00    +0.000 C 
BRANCH   9  14
ATOM     11  C   UNL     1       7.385   5.914  19.273  0.00  0.00    +0.000 C 
ATOM     12  C   UNL     1       7.249   5.839  17.936  0.00  0.00    +0.000 C 
ATOM     13  C   UNL     1       6.530   6.869  17.170  0.00  0.00    +0.000 C 
ATOM     14  C   UNL     1       6.739   8.198  17.253  0.00  0.00    +0.000 C 
ATOM     15  C   UNL     1       5.501   6.327  16.192  0.00  0.00    +0.000 C 
ATOM     16  C   UNL     1       6.032   5.167  15.339  0.00  0.00    +0.000 C 
ATOM     17  C   UNL     1       6.708   4.096  16.190  0.00  0.00    +0.000 C 
ATOM     18  C   UNL     1       7.786   4.685  17.102  0.00  0.00    +0.000 C 
BRANCH  16  19
ATOM     19  O   UNL     1       6.928   5.641  14.331  0.00  0.00    +0.000 OA
ATOM     20  H   UNL     1       6.506   6.384  13.864  0.00  0.00    +0.000 HD
ENDBRANCH  16  19
BRANCH  18  21
ATOM     21  O   UNL     1       8.294   3.634  17.924  0.00  0.00    +0.000 OA
ATOM     22  H   UNL     1       9.225   3.504  17.676  0.00  0.00    +0.000 HD
ENDBRANCH  18  21
ENDBRANCH   9  14
ENDBRANCH   1  10
BRANCH   4  23
ATOM     23  C   UNL     1      10.358  13.782  20.180  0.00  0.00    +0.000 C 
BRANCH  23  24
ATOM     24  C   UNL     1      10.556  14.835  19.122  0.00  0.00    +0.000 C 
ATOM     25  C   UNL     1      10.712  15.724  18.287  0.00  0.00    +0.000 C 
BRANCH  25  26
ATOM     26  C   UNL     1      10.889  16.808  17.268  0.00  0.00    +0.000 C 
ATOM     27  C   UNL     1       9.921  17.975  17.517  0.00  0.00    +0.000 C 
ATOM     28  C   UNL     1      12.333  17.327  17.254  0.00  0.00    +0.000 C 
BRANCH  26  29
ATOM     29  O   UNL     1      10.616  16.295  15.956  0.00  0.00    +0.000 OA
ATOM     30  H   UNL     1       9.800  15.773  16.031  0.00  0.00    +0.000 HD
ENDBRANCH  26  29
ENDBRANCH  25  26
ENDBRANCH  23  24
ENDBRANCH   4  23
TORSDOF 8
ENDMDL
MODEL 7
REMARK VINA RESULT:      -6.9      3.413      9.557
REMARK  Name = 
REMARK  13 active torsions:
REMARK  status: ('A' for Active; 'I' for Inactive)
REMARK    1  A    between atoms: C_4  and  C_5
REMARK    2  A    between atoms: C_6  and  C_7
REMARK    3  A    between atoms: C_10  and  C_11
REMARK    4  A    between atoms: C_10  and  C_12
REMARK    5  A    between atoms: C_12  and  C_13
REMARK    6  A    between atoms: C_14  and  C_15
REMARK    7  A    between atoms: C_15  and  C_16
REMARK    8  A    between atoms: C_15  and  C_17
REMARK    9  A    between atoms: C_15  and  O_18
REMARK   10  A    between atoms: C_19  and  C_20
REMARK   11  A    between atoms: C_19  and  C_21
REMARK   12  A    between atoms: C_23  and  O_24
REMARK   13  A    between atoms: C_26  and  O_27
REMARK                            x       y       z     vdW  Elec       q    Type
REMARK                         _______ _______ _______ _____ _____    ______ ____
ROOT
ATOM      1  C   UNL     1       0.998   8.519  19.817  0.00  0.00    +0.000 C 
ATOM      2  C   UNL     1       1.702   9.574  18.945  0.00  0.00    +0.000 C 
ATOM      3  C   UNL     1       1.157  10.924  19.367  0.00  0.00    +0.000 C 
ATOM      4  C   UNL     1       0.053  10.678  20.420  0.00  0.00    +0.000 C 
ATOM      5  C   UNL     1      -1.303  10.618  19.679  0.00  0.00    +0.000 C 
ATOM      6  C   UNL     1       0.490   9.297  21.063  0.00  0.00    +0.000 C 
ATOM      7  C   UNL     1      -0.672   8.572  21.764  0.00  0.00    +0.000 C 
ATOM      8  C   UNL     1       1.631   9.443  22.109  0.00  0.00    +0.000 C 
ENDROOT
BRANCH   1  10
ATOM      9  C   UNL     1       2.774   6.875  19.226  0.00  0.00    +0.000 C 
ATOM     10  C   UNL     1       1.879   7.333  20.112  0.00  0.00    +0.000 C 
BRANCH   9  14
ATOM     11  C   UNL     1       1.518   4.561  17.427  0.00  0.00    +0.000 C 
ATOM     12  C   UNL     1       1.990   4.002  18.556  0.00  0.00    +0.000 C 
ATOM     13  C   UNL     1       3.256   4.439  19.167  0.00  0.00    +0.000 C 
ATOM     14  C   UNL     1       3.597   5.713  19.443  0.00  0.00    +0.000 C 
ATOM     15  C   UNL     1       4.206   3.309  19.528  0.00  0.00    +0.000 C 
ATOM     16  C   UNL     1       3.517   2.155  20.269  0.00  0.00    +0.000 C 
ATOM     17  C   UNL     1       2.247   1.697  19.557  0.00  0.00    +0.000 C 
ATOM     18  C   UNL     1       1.294   2.862  19.284  0.00  0.00    +0.000 C 
BRANCH  16  19
ATOM     19  O   UNL     1       3.228   2.515  21.621  0.00  0.00    +0.000 OA
ATOM     20  H   UNL     1       3.922   3.120  21.938  0.00  0.00    +0.000 HD
ENDBRANCH  16  19
BRANCH  18  21
ATOM     21  O   UNL     1       0.185   2.361  18.536  0.00  0.00    +0.000 OA
ATOM     22  H   UNL     1       0.210   2.796  17.666  0.00  0.00    +0.000 HD
ENDBRANCH  18  21
ENDBRANCH   9  14
ENDBRANCH   1  10
BRANCH   4  23
ATOM     23  C   UNL     1       0.062  11.867  21.438  0.00  0.00    +0.000 C 
BRANCH  23  24
ATOM     24  C   UNL     1      -1.250  12.171  22.113  0.00  0.00    +0.000 C 
ATOM     25  C   UNL     1      -2.328  12.448  22.636  0.00  0.00    +0.000 C 
BRANCH  25  26
ATOM     26  C   UNL     1      -3.635  12.796  23.280  0.00  0.00    +0.000 C 
ATOM     27  C   UNL     1      -3.542  14.116  24.061  0.00  0.00    +0.000 C 
ATOM     28  C   UNL     1      -4.760  12.888  22.240  0.00  0.00    +0.000 C 
BRANCH  26  29
ATOM     29  O   UNL     1      -4.009  11.771  24.211  0.00  0.00    +0.000 OA
ATOM     30  H   UNL     1      -3.571  10.957  23.912  0.00  0.00    +0.000 HD
ENDBRANCH  26  29
ENDBRANCH  25  26
ENDBRANCH  23  24
ENDBRANCH   4  23
TORSDOF 8
ENDMDL
MODEL 8
REMARK VINA RESULT:      -6.8      2.838      9.360
REMARK  Name = 
REMARK  13 active torsions:
REMARK  status: ('A' for Active; 'I' for Inactive)
REMARK    1  A    between atoms: C_4  and  C_5
REMARK    2  A    between atoms: C_6  and  C_7
REMARK    3  A    between atoms: C_10  and  C_11
REMARK    4  A    between atoms: C_10  and  C_12
REMARK    5  A    between atoms: C_12  and  C_13
REMARK    6  A    between atoms: C_14  and  C_15
REMARK    7  A    between atoms: C_15  and  C_16
REMARK    8  A    between atoms: C_15  and  C_17
REMARK    9  A    between atoms: C_15  and  O_18
REMARK   10  A    between atoms: C_19  and  C_20
REMARK   11  A    between atoms: C_19  and  C_21
REMARK   12  A    between atoms: C_23  and  O_24
REMARK   13  A    between atoms: C_26  and  O_27
REMARK                            x       y       z     vdW  Elec       q    Type
REMARK                         _______ _______ _______ _____ _____    ______ ____
ROOT
ATOM      1  C   UNL     1       1.304   9.392  19.767  0.00  0.00    +0.000 C 
ATOM      2  C   UNL     1       0.329   9.050  20.907  0.00  0.00    +0.000 C 
ATOM      3  C   UNL     1      -0.479  10.303  21.181  0.00  0.00    +0.000 C 
ATOM      4  C   UNL     1       0.076  11.428  20.279  0.00  0.00    +0.000 C 
ATOM      5  C   UNL     1       1.135  12.209  21.092  0.00  0.00    +0.000 C 
ATOM      6  C   UNL     1       0.679  10.623  19.054  0.00  0.00    +0.000 C 
ATOM      7  C   UNL     1       1.728  11.430  18.268  0.00  0.00    +0.000 C 
ATOM      8  C   UNL     1      -0.399  10.163  18.033  0.00  0.00    +0.000 C 
ENDROOT
BRANCH   1  10
ATOM      9  C   UNL     1       2.472   7.259  19.222  0.00  0.00    +0.000 C 
ATOM     10  C   UNL     1       1.591   8.208  18.879  0.00  0.00    +0.000 C 
BRANCH   9  14
ATOM     11  C   UNL     1       1.030   4.719  20.503  0.00  0.00    +0.000 C 
ATOM     12  C   UNL     1       2.210   4.318  19.994  0.00  0.00    +0.000 C 
ATOM     13  C   UNL     1       2.722   4.840  18.717  0.00  0.00    +0.000 C 
ATOM     14  C   UNL     1       2.817   6.142  18.382  0.00  0.00    +0.000 C 
ATOM     15  C   UNL     1       3.203   3.774  17.746  0.00  0.00    +0.000 C 
ATOM     16  C   UNL     1       4.110   2.724  18.404  0.00  0.00    +0.000 C 
ATOM     17  C   UNL     1       3.501   2.168  19.688  0.00  0.00    +0.000 C 
ATOM     18  C   UNL     1       3.102   3.280  20.660  0.00  0.00    +0.000 C 
BRANCH  16  19
ATOM     19  O   UNL     1       5.410   3.259  18.660  0.00  0.00    +0.000 OA
ATOM     20  H   UNL     1       5.343   4.229  18.716  0.00  0.00    +0.000 HD
ENDBRANCH  16  19
BRANCH  18  21
ATOM     21  O   UNL     1       2.458   2.677  21.783  0.00  0.00    +0.000 OA
ATOM     22  H   UNL     1       1.791   2.062  21.432  0.00  0.00    +0.000 HD
ENDBRANCH  18  21
ENDBRANCH   9  14
ENDBRANCH   1  10
BRANCH   4  23
ATOM     23  C   UNL     1      -1.104  12.375  19.878  0.00  0.00    +0.000 C 
BRANCH  23  24
ATOM     24  C   UNL     1      -0.729  13.791  19.532  0.00  0.00    +0.000 C 
ATOM     25  C   UNL     1      -0.429  14.959  19.289  0.00  0.00    +0.000 C 
BRANCH  25  26
ATOM     26  C   UNL     1      -0.076  16.384  18.991  0.00  0.00    +0.000 C 
ATOM     27  C   UNL     1      -0.407  17.303  20.177  0.00  0.00    +0.000 C 
ATOM     28  C   UNL     1       1.409  16.524  18.627  0.00  0.00    +0.000 C 
BRANCH  26  29
ATOM     29  O   UNL     1      -0.829  16.849  17.862  0.00  0.00    +0.000 OA
ATOM     30  H   UNL     1      -0.199  17.316  17.288  0.00  0.00    +0.000 HD
ENDBRANCH  26  29
ENDBRANCH  25  26
ENDBRANCH  23  24
ENDBRANCH   4  23
TORSDOF 8
ENDMDL
MODEL 9
REMARK VINA RESULT:      -6.8      2.875      9.617
REMARK  Name = 
REMARK  13 active torsions:
REMARK  status: ('A' for Active; 'I' for Inactive)
REMARK    1  A    between atoms: C_4  and  C_5
REMARK    2  A    between atoms: C_6  and  C_7
REMARK    3  A    between atoms: C_10  and  C_11
REMARK    4  A    between atoms: C_10  and  C_12
REMARK    5  A    between atoms: C_12  and  C_13
REMARK    6  A    between atoms: C_14  and  C_15
REMARK    7  A    between atoms: C_15  and  C_16
REMARK    8  A    between atoms: C_15  and  C_17
REMARK    9  A    between atoms: C_15  and  O_18
REMARK   10  A    between atoms: C_19  and  C_20
REMARK   11  A    between atoms: C_19  and  C_21
REMARK   12  A    between atoms: C_23  and  O_24
REMARK   13  A    between atoms: C_26  and  O_27
REMARK                            x       y       z     vdW  Elec       q    Type
REMARK                         _______ _______ _______ _____ _____    ______ ____
ROOT
ATOM      1  C   UNL     1       1.758   9.177  19.657  0.00  0.00    +0.000 C 
ATOM      2  C   UNL     1       0.738   8.676  20.694  0.00  0.00    +0.000 C 
ATOM      3  C   UNL     1      -0.290   9.778  20.864  0.00  0.00    +0.000 C 
ATOM      4  C   UNL     1       0.165  10.981  20.008  0.00  0.00    +0.000 C 
ATOM      5  C   UNL     1       0.990  11.924  20.916  0.00  0.00    +0.000 C 
ATOM      6  C   UNL     1       1.017  10.290  18.865  0.00  0.00    +0.000 C 
ATOM      7  C   UNL     1       1.996  11.262  18.181  0.00  0.00    +0.000 C 
ATOM      8  C   UNL     1       0.142   9.662  17.744  0.00  0.00    +0.000 C 
ENDROOT
BRANCH   1  10
ATOM      9  C   UNL     1       1.844   6.811  18.881  0.00  0.00    +0.000 C 
ATOM     10  C   UNL     1       2.327   8.060  18.821  0.00  0.00    +0.000 C 
BRANCH   9  14
ATOM     11  C   UNL     1       0.945   4.184  20.450  0.00  0.00    +0.000 C 
ATOM     12  C   UNL     1       2.174   3.970  19.945  0.00  0.00    +0.000 C 
ATOM     13  C   UNL     1       2.557   4.448  18.607  0.00  0.00    +0.000 C 
ATOM     14  C   UNL     1       2.391   5.702  18.143  0.00  0.00    +0.000 C 
ATOM     15  C   UNL     1       3.226   3.402  17.730  0.00  0.00    +0.000 C 
ATOM     16  C   UNL     1       4.329   2.620  18.457  0.00  0.00    +0.000 C 
ATOM     17  C   UNL     1       3.857   2.090  19.808  0.00  0.00    +0.000 C 
ATOM     18  C   UNL     1       3.261   3.197  20.679  0.00  0.00    +0.000 C 
BRANCH  16  19
ATOM     19  O   UNL     1       5.502   3.419  18.617  0.00  0.00    +0.000 OA
ATOM     20  H   UNL     1       6.251   2.835  18.830  0.00  0.00    +0.000 HD
ENDBRANCH  16  19
BRANCH  18  21
ATOM     21  O   UNL     1       2.762   2.599  21.876  0.00  0.00    +0.000 OA
ATOM     22  H   UNL     1       3.125   1.698  21.916  0.00  0.00    +0.000 HD
ENDBRANCH  18  21
ENDBRANCH   9  14
ENDBRANCH   1  10
BRANCH   4  23
ATOM     23  C   UNL     1      -1.106  11.721  19.473  0.00  0.00    +0.000 C 
BRANCH  23  24
ATOM     24  C   UNL     1      -2.080  12.204  20.516  0.00  0.00    +0.000 C 
ATOM     25  C   UNL     1      -2.849  12.627  21.378  0.00  0.00    +0.000 C 
BRANCH  25  26
ATOM     26  C   UNL     1      -3.778  13.136  22.436  0.00  0.00    +0.000 C 
ATOM     27  C   UNL     1      -5.248  12.949  22.029  0.00  0.00    +0.000 C 
ATOM     28  C   UNL     1      -3.522  12.442  23.782  0.00  0.00    +0.000 C 
BRANCH  26  29
ATOM     29  O   UNL     1      -3.563  14.539  22.642  0.00  0.00    +0.000 OA
ATOM     30  H   UNL     1      -3.429  14.657  23.597  0.00  0.00    +0.000 HD
ENDBRANCH  26  29
ENDBRANCH  25  26
ENDBRANCH  23  24
ENDBRANCH   4  23
TORSDOF 8
ENDMDL
