MODEL 1
REMARK VINA RESULT:      -8.4      0.000      0.000
REMARK  Name = 
REMARK  9 active torsions:
REMARK  status: ('A' for Active; 'I' for Inactive)
REMARK    1  A    between atoms: C_1  and  O_2
REMARK    2  A    between atoms: O_2  and  C_3
REMARK    3  A    between atoms: C_6  and  C_7
REMARK    4  A    between atoms: N_9  and  C_10
REMARK    5  A    between atoms: C_10  and  C_11
REMARK    6  A    between atoms: C_10  and  C_17
REMARK    7  A    between atoms: C_11  and  C_12
REMARK    8  A    between atoms: N_19  and  N_20
REMARK    9  A    between atoms: C_21  and  C_22
REMARK                            x       y       z     vdW  Elec       q    Type
REMARK                         _______ _______ _______ _____ _____    ______ ____
ROOT
ATOM      1  C   UNL     1       4.812   4.255  19.552  0.00  0.00    +0.000 C 
ENDROOT
BRANCH   1   4
ATOM      2  C   UNL     1       3.262   6.053  18.726  0.00  0.00    +0.000 C 
ATOM      3  O   UNL     1       3.265   5.613  17.580  0.00  0.00    +0.000 OA
ATOM      4  N   UNL     1       3.976   5.456  19.734  0.00  0.00    +0.000 N 
ATOM      5  H   UNL     1       4.004   5.835  20.674  0.00  0.00    +0.000 HD
BRANCH   2   9
ATOM      6  C   UNL     1       0.849   9.548  19.497  0.00  0.00    +0.000 A 
ATOM      7  C   UNL     1       1.436   9.331  18.252  0.00  0.00    +0.000 A 
ATOM      8  C   UNL     1       2.230   8.202  18.030  0.00  0.00    +0.000 A 
ATOM      9  C   UNL     1       2.464   7.277  19.058  0.00  0.00    +0.000 A 
ATOM     10  C   UNL     1       1.919   7.531  20.325  0.00  0.00    +0.000 A 
ATOM     11  C   UNL     1       1.116   8.662  20.541  0.00  0.00    +0.000 A 
BRANCH   6  13
ATOM     12  C   UNL     1      -0.448  10.942  20.892  0.00  0.00    +0.000 C 
ATOM     13  O   UNL     1       0.063  10.663  19.592  0.00  0.00    +0.000 OA
ENDBRANCH   6  13
ENDBRANCH   2   9
ENDBRANCH   1   4
BRANCH   1  14
ATOM     14  C   UNL     1       5.746   4.555  18.352  0.00  0.00    +0.000 C 
ATOM     15  O   UNL     1       6.624   5.423  18.448  0.00  0.00    +0.000 OA
ATOM     16  N   UNL     1       5.571   3.750  17.233  0.00  0.00    +0.000 N 
ATOM     17  H   UNL     1       4.774   3.127  17.152  0.00  0.00    +0.000 HD
BRANCH  16  18
ATOM     18  N   UNL     1       6.338   3.999  16.127  0.00  0.00    +0.000 NA
ATOM     19  C   UNL     1       5.741   3.998  14.976  0.00  0.00    +0.000 C 
BRANCH  19  20
ATOM     20  C   UNL     1       6.485   4.305  13.785  0.00  0.00    +0.000 A 
ATOM     21  C   UNL     1       6.467   3.746  12.522  0.00  0.00    +0.000 A 
ATOM     22  C   UNL     1       7.430   4.441  11.755  0.00  0.00    +0.000 A 
ATOM     23  C   UNL     1       7.975   5.384  12.593  0.00  0.00    +0.000 A 
ATOM     24  O   UNL     1       7.409   5.311  13.829  0.00  0.00    +0.000 OA
ENDBRANCH  19  20
ENDBRANCH  16  18
ENDBRANCH   1  14
BRANCH   1  25
ATOM     25  C   UNL     1       3.989   2.970  19.369  0.00  0.00    +0.000 C 
BRANCH  25  26
ATOM     26  C   UNL     1       2.685   3.038  20.076  0.00  0.00    +0.000 A 
ATOM     27  C   UNL     1       1.410   3.068  19.552  0.00  0.00    +0.000 A 
ATOM     28  N   UNL     1       0.578   2.974  20.629  0.00  0.00    +0.000 N 
ATOM     29  C   UNL     1       1.361   2.926  21.747  0.00  0.00    +0.000 A 
ATOM     30  N   UNL     1       2.638   2.992  21.448  0.00  0.00    +0.000 NA
ATOM     31  H   UNL     1      -0.430   2.914  20.606  0.00  0.00    +0.000 HD
ENDBRANCH  25  26
ENDBRANCH   1  25
TORSDOF 8
ENDMDL
MODEL 2
REMARK VINA RESULT:      -7.7      4.161      7.600
REMARK  Name = 
REMARK  9 active torsions:
REMARK  status: ('A' for Active; 'I' for Inactive)
REMARK    1  A    between atoms: C_1  and  O_2
REMARK    2  A    between atoms: O_2  and  C_3
REMARK    3  A    between atoms: C_6  and  C_7
REMARK    4  A    between atoms: N_9  and  C_10
REMARK    5  A    between atoms: C_10  and  C_11
REMARK    6  A    between atoms: C_10  and  C_17
REMARK    7  A    between atoms: C_11  and  C_12
REMARK    8  A    between atoms: N_19  and  N_20
REMARK    9  A    between atoms: C_21  and  C_22
REMARK                            x       y       z     vdW  Elec       q    Type
REMARK                         _______ _______ _______ _____ _____    ______ ____
ROOT
ATOM      1  C   UNL     1       5.935   5.852  18.027  0.00  0.00    +0.000 C 
ENDROOT
BRANCH   1   4
ATOM      2  C   UNL     1       5.750   5.687  15.526  0.00  0.00    +0.000 C 
ATOM      3  O   UNL     1       5.202   6.781  15.433  0.00  0.00    +0.000 OA
ATOM      4  N   UNL     1       6.138   5.169  16.735  0.00  0.00    +0.000 N 
ATOM      5  H   UNL     1       6.559   4.251  16.821  0.00  0.00    +0.000 HD
BRANCH   2   9
ATOM      6  C   UNL     1       6.704   3.287  12.067  0.00  0.00    +0.000 A 
ATOM      7  C   UNL     1       7.602   4.228  12.567  0.00  0.00    +0.000 A 
ATOM      8  C   UNL     1       7.264   5.008  13.677  0.00  0.00    +0.000 A 
ATOM      9  C   UNL     1       6.013   4.871  14.296  0.00  0.00    +0.000 A 
ATOM     10  C   UNL     1       5.093   3.964  13.752  0.00  0.00    +0.000 A 
ATOM     11  C   UNL     1       5.438   3.177  12.642  0.00  0.00    +0.000 A 
BRANCH   6  13
ATOM     12  C   UNL     1       6.692   1.206  10.953  0.00  0.00    +0.000 C 
ATOM     13  O   UNL     1       7.152   2.553  11.003  0.00  0.00    +0.000 OA
ENDBRANCH   6  13
ENDBRANCH   2   9
ENDBRANCH   1   4
BRANCH   1  14
ATOM     14  C   UNL     1       7.247   6.623  18.319  0.00  0.00    +0.000 C 
ATOM     15  O   UNL     1       8.143   6.096  18.993  0.00  0.00    +0.000 OA
ATOM     16  N   UNL     1       7.359   7.873  17.723  0.00  0.00    +0.000 N 
ATOM     17  H   UNL     1       6.565   8.314  17.272  0.00  0.00    +0.000 HD
BRANCH  16  18
ATOM     18  N   UNL     1       8.478   8.618  17.982  0.00  0.00    +0.000 NA
ATOM     19  C   UNL     1       8.308   9.879  18.236  0.00  0.00    +0.000 C 
BRANCH  19  20
ATOM     20  C   UNL     1       9.441  10.699  18.566  0.00  0.00    +0.000 A 
ATOM     21  C   UNL     1      10.315  11.419  17.775  0.00  0.00    +0.000 A 
ATOM     22  C   UNL     1      11.252  12.022  18.646  0.00  0.00    +0.000 A 
ATOM     23  C   UNL     1      10.891  11.639  19.915  0.00  0.00    +0.000 A 
ATOM     24  O   UNL     1       9.793  10.835  19.880  0.00  0.00    +0.000 OA
ENDBRANCH  19  20
ENDBRANCH  16  18
ENDBRANCH   1  14
BRANCH   1  25
ATOM     25  C   UNL     1       5.533   4.894  19.158  0.00  0.00    +0.000 C 
BRANCH  25  26
ATOM     26  C   UNL     1       4.404   4.011  18.768  0.00  0.00    +0.000 A 
ATOM     27  C   UNL     1       4.121   2.726  19.178  0.00  0.00    +0.000 A 
ATOM     28  N   UNL     1       2.899   2.441  18.642  0.00  0.00    +0.000 N 
ATOM     29  C   UNL     1       2.509   3.527  17.913  0.00  0.00    +0.000 A 
ATOM     30  N   UNL     1       3.410   4.483  17.945  0.00  0.00    +0.000 NA
ATOM     31  H   UNL     1       2.362   1.597  18.785  0.00  0.00    +0.000 HD
ENDBRANCH  25  26
ENDBRANCH   1  25
TORSDOF 8
ENDMDL
MODEL 3
REMARK VINA RESULT:      -7.6      4.205      7.613
REMARK  Name = 
REMARK  9 active torsions:
REMARK  status: ('A' for Active; 'I' for Inactive)
REMARK    1  A    between atoms: C_1  and  O_2
REMARK    2  A    between atoms: O_2  and  C_3
REMARK    3  A    between atoms: C_6  and  C_7
REMARK    4  A    between atoms: N_9  and  C_10
REMARK    5  A    between atoms: C_10  and  C_11
REMARK    6  A    between atoms: C_10  and  C_17
REMARK    7  A    between atoms: C_11  and  C_12
REMARK    8  A    between atoms: N_19  and  N_20
REMARK    9  A    between atoms: C_21  and  C_22
REMARK                            x       y       z     vdW  Elec       q    Type
REMARK                         _______ _______ _______ _____ _____    ______ ____
ROOT
ATOM      1  C   UNL     1       5.904   6.070  17.902  0.00  0.00    +0.000 C 
ENDROOT
BRANCH   1   4
ATOM      2  C   UNL     1       5.717   5.781  15.411  0.00  0.00    +0.000 C 
ATOM      3  O   UNL     1       5.153   6.861  15.268  0.00  0.00    +0.000 OA
ATOM      4  N   UNL     1       6.115   5.328  16.644  0.00  0.00    +0.000 N 
ATOM      5  H   UNL     1       6.550   4.421  16.773  0.00  0.00    +0.000 HD
BRANCH   2   9
ATOM      6  C   UNL     1       6.697   3.227  12.072  0.00  0.00    +0.000 A 
ATOM      7  C   UNL     1       7.590   4.192  12.534  0.00  0.00    +0.000 A 
ATOM      8  C   UNL     1       7.243   5.022  13.605  0.00  0.00    +0.000 A 
ATOM      9  C   UNL     1       5.989   4.910  14.222  0.00  0.00    +0.000 A 
ATOM     10  C   UNL     1       5.074   3.976  13.715  0.00  0.00    +0.000 A 
ATOM     11  C   UNL     1       5.428   3.140  12.644  0.00  0.00    +0.000 A 
BRANCH   6  13
ATOM     12  C   UNL     1       6.590   1.140  10.975  0.00  0.00    +0.000 C 
ATOM     13  O   UNL     1       7.154   2.446  11.046  0.00  0.00    +0.000 OA
ENDBRANCH   6  13
ENDBRANCH   2   9
ENDBRANCH   1   4
BRANCH   1  14
ATOM     14  C   UNL     1       7.224   6.834  18.179  0.00  0.00    +0.000 C 
ATOM     15  O   UNL     1       8.074   6.353  18.941  0.00  0.00    +0.000 OA
ATOM     16  N   UNL     1       7.398   8.016  17.470  0.00  0.00    +0.000 N 
ATOM     17  H   UNL     1       6.638   8.430  16.942  0.00  0.00    +0.000 HD
BRANCH  16  18
ATOM     18  N   UNL     1       8.525   8.755  17.708  0.00  0.00    +0.000 NA
ATOM     19  C   UNL     1       8.376   9.887  18.323  0.00  0.00    +0.000 C 
BRANCH  19  20
ATOM     20  C   UNL     1       9.530  10.682  18.646  0.00  0.00    +0.000 A 
ATOM     21  C   UNL     1      10.047  11.098  19.858  0.00  0.00    +0.000 A 
ATOM     22  C   UNL     1      11.191  11.877  19.567  0.00  0.00    +0.000 A 
ATOM     23  C   UNL     1      11.305  11.886  18.197  0.00  0.00    +0.000 A 
ATOM     24  O   UNL     1      10.302  11.164  17.627  0.00  0.00    +0.000 OA
ENDBRANCH  19  20
ENDBRANCH  16  18
ENDBRANCH   1  14
BRANCH   1  25
ATOM     25  C   UNL     1       5.472   5.168  19.068  0.00  0.00    +0.000 C 
BRANCH  25  26
ATOM     26  C   UNL     1       4.024   4.842  19.014  0.00  0.00    +0.000 A 
ATOM     27  C   UNL     1       3.030   5.141  19.922  0.00  0.00    +0.000 A 
ATOM     28  N   UNL     1       1.869   4.752  19.320  0.00  0.00    +0.000 N 
ATOM     29  C   UNL     1       2.197   4.210  18.110  0.00  0.00    +0.000 A 
ATOM     30  N   UNL     1       3.495   4.224  17.908  0.00  0.00    +0.000 NA
ATOM     31  H   UNL     1       0.934   4.873  19.684  0.00  0.00    +0.000 HD
ENDBRANCH  25  26
ENDBRANCH   1  25
TORSDOF 8
ENDMDL
MODEL 4
REMARK VINA RESULT:      -7.6      4.082      5.994
REMARK  Name = 
REMARK  9 active torsions:
REMARK  status: ('A' for Active; 'I' for Inactive)
REMARK    1  A    between atoms: C_1  and  O_2
REMARK    2  A    between atoms: O_2  and  C_3
REMARK    3  A    between atoms: C_6  and  C_7
REMARK    4  A    between atoms: N_9  and  C_10
REMARK    5  A    between atoms: C_10  and  C_11
REMARK    6  A    between atoms: C_10  and  C_17
REMARK    7  A    between atoms: C_11  and  C_12
REMARK    8  A    between atoms: N_19  and  N_20
REMARK    9  A    between atoms: C_21  and  C_22
REMARK                            x       y       z     vdW  Elec       q    Type
REMARK                         _______ _______ _______ _____ _____    ______ ____
ROOT
ATOM      1  C   UNL     1       5.447   6.438  17.061  0.00  0.00    +0.000 C 
ENDROOT
BRANCH   1   4
ATOM      2  C   UNL     1       3.245   6.693  18.248  0.00  0.00    +0.000 C 
ATOM      3  O   UNL     1       2.949   5.514  18.078  0.00  0.00    +0.000 OA
ATOM      4  N   UNL     1       4.429   7.217  17.793  0.00  0.00    +0.000 N 
ATOM      5  H   UNL     1       4.664   8.197  17.899  0.00  0.00    +0.000 HD
BRANCH   2   9
ATOM      6  C   UNL     1       0.664   9.326  20.492  0.00  0.00    +0.000 A 
ATOM      7  C   UNL     1       1.155   8.145  21.046  0.00  0.00    +0.000 A 
ATOM      8  C   UNL     1       1.974   7.297  20.294  0.00  0.00    +0.000 A 
ATOM      9  C   UNL     1       2.302   7.610  18.966  0.00  0.00    +0.000 A 
ATOM     10  C   UNL     1       1.758   8.770  18.397  0.00  0.00    +0.000 A 
ATOM     11  C   UNL     1       0.942   9.623  19.158  0.00  0.00    +0.000 A 
BRANCH   6  13
ATOM     12  C   UNL     1      -0.301   9.564  22.633  0.00  0.00    +0.000 C 
ATOM     13  O   UNL     1      -0.095  10.098  21.329  0.00  0.00    +0.000 OA
ENDBRANCH   6  13
ENDBRANCH   2   9
ENDBRANCH   1   4
BRANCH   1  14
ATOM     14  C   UNL     1       6.823   6.967  17.540  0.00  0.00    +0.000 C 
ATOM     15  O   UNL     1       7.684   6.178  17.954  0.00  0.00    +0.000 OA
ATOM     16  N   UNL     1       7.027   8.334  17.399  0.00  0.00    +0.000 N 
ATOM     17  H   UNL     1       6.264   8.958  17.160  0.00  0.00    +0.000 HD
BRANCH  16  18
ATOM     18  N   UNL     1       8.208   8.863  17.846  0.00  0.00    +0.000 NA
ATOM     19  C   UNL     1       8.293  10.156  17.911  0.00  0.00    +0.000 C 
BRANCH  19  20
ATOM     20  C   UNL     1       9.490  10.767  18.422  0.00  0.00    +0.000 A 
ATOM     21  C   UNL     1      10.550  11.382  17.785  0.00  0.00    +0.000 A 
ATOM     22  C   UNL     1      11.457  11.780  18.795  0.00  0.00    +0.000 A 
ATOM     23  C   UNL     1      10.895  11.388  19.986  0.00  0.00    +0.000 A 
ATOM     24  O   UNL     1       9.700  10.771  19.773  0.00  0.00    +0.000 OA
ENDBRANCH  19  20
ENDBRANCH  16  18
ENDBRANCH   1  14
BRANCH   1  25
ATOM     25  C   UNL     1       5.272   6.503  15.537  0.00  0.00    +0.000 C 
BRANCH  25  26
ATOM     26  C   UNL     1       5.894   5.339  14.854  0.00  0.00    +0.000 A 
ATOM     27  C   UNL     1       5.442   4.040  14.762  0.00  0.00    +0.000 A 
ATOM     28  N   UNL     1       6.304   3.423  13.902  0.00  0.00    +0.000 N 
ATOM     29  C   UNL     1       7.247   4.340  13.539  0.00  0.00    +0.000 A 
ATOM     30  N   UNL     1       7.044   5.501  14.120  0.00  0.00    +0.000 NA
ATOM     31  H   UNL     1       6.239   2.472  13.566  0.00  0.00    +0.000 HD
ENDBRANCH  25  26
ENDBRANCH   1  25
TORSDOF 8
ENDMDL
MODEL 5
REMARK VINA RESULT:      -7.6      1.010      1.560
REMARK  Name = 
REMARK  9 active torsions:
REMARK  status: ('A' for Active; 'I' for Inactive)
REMARK    1  A    between atoms: C_1  and  O_2
REMARK    2  A    between atoms: O_2  and  C_3
REMARK    3  A    between atoms: C_6  and  C_7
REMARK    4  A    between atoms: N_9  and  C_10
REMARK    5  A    between atoms: C_10  and  C_11
REMARK    6  A    between atoms: C_10  and  C_17
REMARK    7  A    between atoms: C_11  and  C_12
REMARK    8  A    between atoms: N_19  and  N_20
REMARK    9  A    between atoms: C_21  and  C_22
REMARK                            x       y       z     vdW  Elec       q    Type
REMARK                         _______ _______ _______ _____ _____    ______ ____
ROOT
ATOM      1  C   UNL     1       4.651   4.029  19.286  0.00  0.00    +0.000 C 
ENDROOT
BRANCH   1   4
ATOM      2  C   UNL     1       3.869   6.341  18.685  0.00  0.00    +0.000 C 
ATOM      3  O   UNL     1       4.888   6.584  18.045  0.00  0.00    +0.000 OA
ATOM      4  N   UNL     1       3.675   5.135  19.309  0.00  0.00    +0.000 N 
ATOM      5  H   UNL     1       2.852   4.941  19.868  0.00  0.00    +0.000 HD
BRANCH   2   9
ATOM      6  C   UNL     1       0.856   9.384  19.226  0.00  0.00    +0.000 A 
ATOM      7  C   UNL     1       1.179   8.492  20.248  0.00  0.00    +0.000 A 
ATOM      8  C   UNL     1       2.144   7.501  20.043  0.00  0.00    +0.000 A 
ATOM      9  C   UNL     1       2.792   7.376  18.806  0.00  0.00    +0.000 A 
ATOM     10  C   UNL     1       2.421   8.240  17.765  0.00  0.00    +0.000 A 
ATOM     11  C   UNL     1       1.457   9.238  17.976  0.00  0.00    +0.000 A 
BRANCH   6  13
ATOM     12  C   UNL     1      -0.951  10.712  18.491  0.00  0.00    +0.000 C 
ATOM     13  O   UNL     1      -0.073  10.335  19.547  0.00  0.00    +0.000 OA
ENDBRANCH   6  13
ENDBRANCH   2   9
ENDBRANCH   1   4
BRANCH   1  14
ATOM     14  C   UNL     1       5.095   3.874  17.809  0.00  0.00    +0.000 C 
ATOM     15  O   UNL     1       4.291   3.474  16.956  0.00  0.00    +0.000 OA
ATOM     16  N   UNL     1       6.393   4.279  17.522  0.00  0.00    +0.000 N 
ATOM     17  H   UNL     1       7.052   4.496  18.263  0.00  0.00    +0.000 HD
BRANCH  16  18
ATOM     18  N   UNL     1       6.854   4.124  16.243  0.00  0.00    +0.000 NA
ATOM     19  C   UNL     1       6.067   4.489  15.279  0.00  0.00    +0.000 C 
BRANCH  19  20
ATOM     20  C   UNL     1       6.517   4.399  13.917  0.00  0.00    +0.000 A 
ATOM     21  C   UNL     1       6.188   3.526  12.897  0.00  0.00    +0.000 A 
ATOM     22  C   UNL     1       6.960   3.902  11.774  0.00  0.00    +0.000 A 
ATOM     23  C   UNL     1       7.709   4.983  12.173  0.00  0.00    +0.000 A 
ATOM     24  O   UNL     1       7.449   5.294  13.472  0.00  0.00    +0.000 OA
ENDBRANCH  19  20
ENDBRANCH  16  18
ENDBRANCH   1  14
BRANCH   1  25
ATOM     25  C   UNL     1       4.101   2.728  19.890  0.00  0.00    +0.000 C 
BRANCH  25  26
ATOM     26  C   UNL     1       2.618   2.732  19.969  0.00  0.00    +0.000 A 
ATOM     27  C   UNL     1       1.804   2.968  21.056  0.00  0.00    +0.000 A 
ATOM     28  N   UNL     1       0.537   3.004  20.552  0.00  0.00    +0.000 N 
ATOM     29  C   UNL     1       0.623   2.760  19.212  0.00  0.00    +0.000 A 
ATOM     30  N   UNL     1       1.865   2.563  18.833  0.00  0.00    +0.000 NA
ATOM     31  H   UNL     1      -0.308   3.209  21.066  0.00  0.00    +0.000 HD
ENDBRANCH  25  26
ENDBRANCH   1  25
TORSDOF 8
ENDMDL
MODEL 6
REMARK VINA RESULT:      -7.6      4.082      5.910
REMARK  Name = 
REMARK  9 active torsions:
REMARK  status: ('A' for Active; 'I' for Inactive)
REMARK    1  A    between atoms: C_1  and  O_2
REMARK    2  A    between atoms: O_2  and  C_3
REMARK    3  A    between atoms: C_6  and  C_7
REMARK    4  A    between atoms: N_9  and  C_10
REMARK    5  A    between atoms: C_10  and  C_11
REMARK    6  A    between atoms: C_10  and  C_17
REMARK    7  A    between atoms: C_11  and  C_12
REMARK    8  A    between atoms: N_19  and  N_20
REMARK    9  A    between atoms: C_21  and  C_22
REMARK                            x       y       z     vdW  Elec       q    Type
REMARK                         _______ _______ _______ _____ _____    ______ ____
ROOT
ATOM      1  C   UNL     1       5.497   6.420  17.026  0.00  0.00    +0.000 C 
ENDROOT
BRANCH   1   4
ATOM      2  C   UNL     1       3.255   6.791  18.101  0.00  0.00    +0.000 C 
ATOM      3  O   UNL     1       2.858   5.668  17.802  0.00  0.00    +0.000 OA
ATOM      4  N   UNL     1       4.512   7.229  17.769  0.00  0.00    +0.000 N 
ATOM      5  H   UNL     1       4.832   8.167  17.983  0.00  0.00    +0.000 HD
BRANCH   2   9
ATOM      6  C   UNL     1       0.533   9.494  20.081  0.00  0.00    +0.000 A 
ATOM      7  C   UNL     1       0.941   9.708  18.765  0.00  0.00    +0.000 A 
ATOM      8  C   UNL     1       1.839   8.830  18.150  0.00  0.00    +0.000 A 
ATOM      9  C   UNL     1       2.358   7.730  18.849  0.00  0.00    +0.000 A 
ATOM     10  C   UNL     1       1.988   7.553  20.190  0.00  0.00    +0.000 A 
ATOM     11  C   UNL     1       1.081   8.432  20.801  0.00  0.00    +0.000 A 
BRANCH   6  13
ATOM     12  C   UNL     1      -0.446  11.631  19.871  0.00  0.00    +0.000 C 
ATOM     13  O   UNL     1      -0.375  10.392  20.569  0.00  0.00    +0.000 OA
ENDBRANCH   6  13
ENDBRANCH   2   9
ENDBRANCH   1   4
BRANCH   1  14
ATOM     14  C   UNL     1       6.893   6.945  17.446  0.00  0.00    +0.000 C 
ATOM     15  O   UNL     1       7.818   6.150  17.662  0.00  0.00    +0.000 OA
ATOM     16  N   UNL     1       7.034   8.327  17.482  0.00  0.00    +0.000 N 
ATOM     17  H   UNL     1       6.229   8.940  17.406  0.00  0.00    +0.000 HD
BRANCH  16  18
ATOM     18  N   UNL     1       8.232   8.847  17.889  0.00  0.00    +0.000 NA
ATOM     19  C   UNL     1       8.301  10.133  18.043  0.00  0.00    +0.000 C 
BRANCH  19  20
ATOM     20  C   UNL     1       9.519  10.730  18.519  0.00  0.00    +0.000 A 
ATOM     21  C   UNL     1      10.015  10.911  19.796  0.00  0.00    +0.000 A 
ATOM     22  C   UNL     1      11.254  11.579  19.661  0.00  0.00    +0.000 A 
ATOM     23  C   UNL     1      11.442  11.762  18.312  0.00  0.00    +0.000 A 
ATOM     24  O   UNL     1      10.395  11.251  17.608  0.00  0.00    +0.000 OA
ENDBRANCH  19  20
ENDBRANCH  16  18
ENDBRANCH   1  14
BRANCH   1  25
ATOM     25  C   UNL     1       5.274   6.447  15.506  0.00  0.00    +0.000 C 
BRANCH  25  26
ATOM     26  C   UNL     1       5.899   5.281  14.830  0.00  0.00    +0.000 A 
ATOM     27  C   UNL     1       5.443   3.984  14.731  0.00  0.00    +0.000 A 
ATOM     28  N   UNL     1       6.312   3.364  13.881  0.00  0.00    +0.000 N 
ATOM     29  C   UNL     1       7.263   4.278  13.530  0.00  0.00    +0.000 A 
ATOM     30  N   UNL     1       7.057   5.439  14.109  0.00  0.00    +0.000 NA
ATOM     31  H   UNL     1       6.247   2.414  13.544  0.00  0.00    +0.000 HD
ENDBRANCH  25  26
ENDBRANCH   1  25
TORSDOF 8
ENDMDL
MODEL 7
REMARK VINA RESULT:      -7.5      0.827      1.037
REMARK  Name = 
REMARK  9 active torsions:
REMARK  status: ('A' for Active; 'I' for Inactive)
REMARK    1  A    between atoms: C_1  and  O_2
REMARK    2  A    between atoms: O_2  and  C_3
REMARK    3  A    between atoms: C_6  and  C_7
REMARK    4  A    between atoms: N_9  and  C_10
REMARK    5  A    between atoms: C_10  and  C_11
REMARK    6  A    between atoms: C_10  and  C_17
REMARK    7  A    between atoms: C_11  and  C_12
REMARK    8  A    between atoms: N_19  and  N_20
REMARK    9  A    between atoms: C_21  and  C_22
REMARK                            x       y       z     vdW  Elec       q    Type
REMARK                         _______ _______ _______ _____ _____    ______ ____
ROOT
ATOM      1  C   UNL     1       4.439   4.639  19.414  0.00  0.00    +0.000 C 
ENDROOT
BRANCH   1   4
ATOM      2  C   UNL     1       2.674   6.386  19.028  0.00  0.00    +0.000 C 
ATOM      3  O   UNL     1       2.378   5.930  17.928  0.00  0.00    +0.000 OA
ATOM      4  N   UNL     1       3.652   5.823  19.808  0.00  0.00    +0.000 N 
ATOM      5  H   UNL     1       3.925   6.216  20.701  0.00  0.00    +0.000 HD
BRANCH   2   9
ATOM      6  C   UNL     1       0.514   9.879  20.359  0.00  0.00    +0.000 A 
ATOM      7  C   UNL     1       1.092   9.822  19.092  0.00  0.00    +0.000 A 
ATOM      8  C   UNL     1       1.805   8.688  18.689  0.00  0.00    +0.000 A 
ATOM      9  C   UNL     1       1.965   7.597  19.555  0.00  0.00    +0.000 A 
ATOM     10  C   UNL     1       1.430   7.684  20.848  0.00  0.00    +0.000 A 
ATOM     11  C   UNL     1       0.709   8.821  21.247  0.00  0.00    +0.000 A 
BRANCH   6  13
ATOM     12  C   UNL     1      -0.285  11.360  22.013  0.00  0.00    +0.000 C 
ATOM     13  O   UNL     1      -0.191  11.018  20.634  0.00  0.00    +0.000 OA
ENDBRANCH   6  13
ENDBRANCH   2   9
ENDBRANCH   1   4
BRANCH   1  14
ATOM     14  C   UNL     1       5.317   5.082  18.216  0.00  0.00    +0.000 C 
ATOM     15  O   UNL     1       6.392   5.666  18.414  0.00  0.00    +0.000 OA
ATOM     16  N   UNL     1       4.854   4.716  16.958  0.00  0.00    +0.000 N 
ATOM     17  H   UNL     1       3.921   4.337  16.831  0.00  0.00    +0.000 HD
BRANCH  16  18
ATOM     18  N   UNL     1       5.566   5.119  15.861  0.00  0.00    +0.000 NA
ATOM     19  C   UNL     1       6.064   4.193  15.103  0.00  0.00    +0.000 C 
BRANCH  19  20
ATOM     20  C   UNL     1       6.777   4.555  13.908  0.00  0.00    +0.000 A 
ATOM     21  C   UNL     1       6.698   4.081  12.613  0.00  0.00    +0.000 A 
ATOM     22  C   UNL     1       7.656   4.796  11.857  0.00  0.00    +0.000 A 
ATOM     23  C   UNL     1       8.259   5.666  12.735  0.00  0.00    +0.000 A 
ATOM     24  O   UNL     1       7.734   5.528  13.983  0.00  0.00    +0.000 OA
ENDBRANCH  19  20
ENDBRANCH  16  18
ENDBRANCH   1  14
BRANCH   1  25
ATOM     25  C   UNL     1       3.568   3.413  19.103  0.00  0.00    +0.000 C 
BRANCH  25  26
ATOM     26  C   UNL     1       2.735   3.011  20.264  0.00  0.00    +0.000 A 
ATOM     27  C   UNL     1       3.120   2.419  21.449  0.00  0.00    +0.000 A 
ATOM     28  N   UNL     1       1.996   2.408  22.223  0.00  0.00    +0.000 N 
ATOM     29  C   UNL     1       0.984   2.949  21.484  0.00  0.00    +0.000 A 
ATOM     30  N   UNL     1       1.392   3.298  20.285  0.00  0.00    +0.000 NA
ATOM     31  H   UNL     1       1.930   2.090  23.180  0.00  0.00    +0.000 HD
ENDBRANCH  25  26
ENDBRANCH   1  25
TORSDOF 8
ENDMDL
MODEL 8
REMARK VINA RESULT:      -7.5      0.989      1.446
REMARK  Name = 
REMARK  9 active torsions:
REMARK  status: ('A' for Active; 'I' for Inactive)
REMARK    1  A    between atoms: C_1  and  O_2
REMARK    2  A    between atoms: O_2  and  C_3
REMARK    3  A    between atoms: C_6  and  C_7
REMARK    4  A    between atoms: N_9  and  C_10
REMARK    5  A    between atoms: C_10  and  C_11
REMARK    6  A    between atoms: C_10  and  C_17
REMARK    7  A    between atoms: C_11  and  C_12
REMARK    8  A    between atoms: N_19  and  N_20
REMARK    9  A    between atoms: C_21  and  C_22
REMARK                            x       y       z     vdW  Elec       q    Type
REMARK                         _______ _______ _______ _____ _____    ______ ____
ROOT
ATOM      1  C   UNL     1       4.765   4.540  19.391  0.00  0.00    +0.000 C 
ENDROOT
BRANCH   1   4
ATOM      2  C   UNL     1       2.992   6.273  18.978  0.00  0.00    +0.000 C 
ATOM      3  O   UNL     1       2.962   6.043  17.773  0.00  0.00    +0.000 OA
ATOM      4  N   UNL     1       3.827   5.593  19.827  0.00  0.00    +0.000 N 
ATOM      5  H   UNL     1       3.881   5.803  20.817  0.00  0.00    +0.000 HD
BRANCH   2   9
ATOM      6  C   UNL     1       0.534   9.283  20.857  0.00  0.00    +0.000 A 
ATOM      7  C   UNL     1       0.766   8.052  21.467  0.00  0.00    +0.000 A 
ATOM      8  C   UNL     1       1.550   7.084  20.831  0.00  0.00    +0.000 A 
ATOM      9  C   UNL     1       2.101   7.327  19.564  0.00  0.00    +0.000 A 
ATOM     10  C   UNL     1       1.815   8.545  18.932  0.00  0.00    +0.000 A 
ATOM     11  C   UNL     1       1.034   9.518  19.577  0.00  0.00    +0.000 A 
BRANCH   6  13
ATOM     12  C   UNL     1      -0.423   9.815  22.949  0.00  0.00    +0.000 C 
ATOM     13  O   UNL     1      -0.214  10.168  21.585  0.00  0.00    +0.000 OA
ENDBRANCH   6  13
ENDBRANCH   2   9
ENDBRANCH   1   4
BRANCH   1  14
ATOM     14  C   UNL     1       5.340   5.009  18.031  0.00  0.00    +0.000 C 
ATOM     15  O   UNL     1       6.153   5.943  17.986  0.00  0.00    +0.000 OA
ATOM     16  N   UNL     1       4.942   4.274  16.921  0.00  0.00    +0.000 N 
ATOM     17  H   UNL     1       4.195   3.590  16.982  0.00  0.00    +0.000 HD
BRANCH  16  18
ATOM     18  N   UNL     1       5.384   4.670  15.687  0.00  0.00    +0.000 NA
ATOM     19  C   UNL     1       6.489   4.146  15.254  0.00  0.00    +0.000 C 
BRANCH  19  20
ATOM     20  C   UNL     1       6.974   4.484  13.944  0.00  0.00    +0.000 A 
ATOM     21  C   UNL     1       6.708   3.946  12.700  0.00  0.00    +0.000 A 
ATOM     22  C   UNL     1       7.489   4.668  11.768  0.00  0.00    +0.000 A 
ATOM     23  C   UNL     1       8.181   5.605  12.498  0.00  0.00    +0.000 A 
ATOM     24  O   UNL     1       7.877   5.502  13.821  0.00  0.00    +0.000 OA
ENDBRANCH  19  20
ENDBRANCH  16  18
ENDBRANCH   1  14
BRANCH   1  25
ATOM     25  C   UNL     1       4.119   3.148  19.326  0.00  0.00    +0.000 C 
BRANCH  25  26
ATOM     26  C   UNL     1       2.882   3.068  20.144  0.00  0.00    +0.000 A 
ATOM     27  C   UNL     1       2.740   2.773  21.483  0.00  0.00    +0.000 A 
ATOM     28  N   UNL     1       1.421   2.986  21.758  0.00  0.00    +0.000 N 
ATOM     29  C   UNL     1       0.816   3.361  20.594  0.00  0.00    +0.000 A 
ATOM     30  N   UNL     1       1.666   3.393  19.593  0.00  0.00    +0.000 NA
ATOM     31  H   UNL     1       0.977   2.915  22.663  0.00  0.00    +0.000 HD
ENDBRANCH  25  26
ENDBRANCH   1  25
TORSDOF 8
ENDMDL
MODEL 9
REMARK VINA RESULT:      -7.4      4.503      7.666
REMARK  Name = 
REMARK  9 active torsions:
REMARK  status: ('A' for Active; 'I' for Inactive)
REMARK    1  A    between atoms: C_1  and  O_2
REMARK    2  A    between atoms: O_2  and  C_3
REMARK    3  A    between atoms: C_6  and  C_7
REMARK    4  A    between atoms: N_9  and  C_10
REMARK    5  A    between atoms: C_10  and  C_11
REMARK    6  A    between atoms: C_10  and  C_17
REMARK    7  A    between atoms: C_11  and  C_12
REMARK    8  A    between atoms: N_19  and  N_20
REMARK    9  A    between atoms: C_21  and  C_22
REMARK                            x       y       z     vdW  Elec       q    Type
REMARK                         _______ _______ _______ _____ _____    ______ ____
ROOT
ATOM      1  C   UNL     1       6.330   6.686  16.433  0.00  0.00    +0.000 C 
ENDROOT
BRANCH   1   4
ATOM      2  C   UNL     1       7.838   8.058  17.903  0.00  0.00    +0.000 C 
ATOM      3  O   UNL     1       8.218   7.075  18.533  0.00  0.00    +0.000 OA
ATOM      4  N   UNL     1       6.935   7.957  16.876  0.00  0.00    +0.000 N 
ATOM      5  H   UNL     1       6.592   8.769  16.375  0.00  0.00    +0.000 HD
BRANCH   2   9
ATOM      6  C   UNL     1       9.541  11.889  18.930  0.00  0.00    +0.000 A 
ATOM      7  C   UNL     1       9.761  10.762  19.720  0.00  0.00    +0.000 A 
ATOM      8  C   UNL     1       9.183   9.535  19.379  0.00  0.00    +0.000 A 
ATOM      9  C   UNL     1       8.360   9.420  18.249  0.00  0.00    +0.000 A 
ATOM     10  C   UNL     1       8.096  10.570  17.493  0.00  0.00    +0.000 A 
ATOM     11  C   UNL     1       8.684  11.799  17.834  0.00  0.00    +0.000 A 
BRANCH   6  13
ATOM     12  C   UNL     1      10.450  13.977  18.308  0.00  0.00    +0.000 C 
ATOM     13  O   UNL     1      10.185  13.026  19.335  0.00  0.00    +0.000 OA
ENDBRANCH   6  13
ENDBRANCH   2   9
ENDBRANCH   1   4
BRANCH   1  14
ATOM     14  C   UNL     1       5.289   6.303  17.515  0.00  0.00    +0.000 C 
ATOM     15  O   UNL     1       4.299   7.021  17.710  0.00  0.00    +0.000 OA
ATOM     16  N   UNL     1       5.511   5.096  18.167  0.00  0.00    +0.000 N 
ATOM     17  H   UNL     1       6.385   4.592  18.058  0.00  0.00    +0.000 HD
BRANCH  16  18
ATOM     18  N   UNL     1       4.648   4.727  19.163  0.00  0.00    +0.000 NA
ATOM     19  C   UNL     1       3.651   3.966  18.835  0.00  0.00    +0.000 C 
BRANCH  19  20
ATOM     20  C   UNL     1       2.741   3.504  19.848  0.00  0.00    +0.000 A 
ATOM     21  C   UNL     1       1.362   3.527  19.922  0.00  0.00    +0.000 A 
ATOM     22  C   UNL     1       1.011   2.950  21.165  0.00  0.00    +0.000 A 
ATOM     23  C   UNL     1       2.196   2.606  21.772  0.00  0.00    +0.000 A 
ATOM     24  O   UNL     1       3.253   2.938  20.982  0.00  0.00    +0.000 OA
ENDBRANCH  19  20
ENDBRANCH  16  18
ENDBRANCH   1  14
BRANCH   1  25
ATOM     25  C   UNL     1       7.367   5.583  16.175  0.00  0.00    +0.000 C 
BRANCH  25  26
ATOM     26  C   UNL     1       7.116   4.867  14.899  0.00  0.00    +0.000 A 
ATOM     27  C   UNL     1       6.250   3.826  14.640  0.00  0.00    +0.000 A 
ATOM     28  N   UNL     1       6.297   3.651  13.287  0.00  0.00    +0.000 N 
ATOM     29  C   UNL     1       7.195   4.550  12.789  0.00  0.00    +0.000 A 
ATOM     30  N   UNL     1       7.729   5.281  13.741  0.00  0.00    +0.000 NA
ATOM     31  H   UNL     1       5.743   3.001  12.747  0.00  0.00    +0.000 HD
ENDBRANCH  25  26
ENDBRANCH   1  25
TORSDOF 8
ENDMDL
