MODEL 1
REMARK VINA RESULT:      -7.0      0.000      0.000
REMARK  Name = 
REMARK  7 active torsions:
REMARK  status: ('A' for Active; 'I' for Inactive)
REMARK    1  A    between atoms: C_1  and  C_2
REMARK    2  A    between atoms: C_2  and  C_3
REMARK    3  A    between atoms: C_2  and  N_9
REMARK    4  A    between atoms: N_7  and  C_8
REMARK    5  A    between atoms: C_11  and  C_12
REMARK    6  A    between atoms: C_14  and  C_15
REMARK    7  A    between atoms: C_15  and  N_16
REMARK                            x       y       z     vdW  Elec       q    Type
REMARK                         _______ _______ _______ _____ _____    ______ ____
ROOT
ATOM      1  N   UNL     1       3.637   5.643  17.598  0.00  0.00    +0.000 N 
ATOM      2  C   UNL     1       2.608   6.112  18.362  0.00  0.00    +0.000 A 
ATOM      3  C   UNL     1       2.701   7.480  18.239  0.00  0.00    +0.000 A 
ATOM      4  N   UNL     1       3.794   7.790  17.473  0.00  0.00    +0.000 NA
ATOM      5  N   UNL     1       4.375   6.658  17.102  0.00  0.00    +0.000 NA
ENDROOT
BRANCH   3   6
ATOM      6  C   UNL     1       1.738   8.487  18.760  0.00  0.00    +0.000 A 
ATOM      7  C   UNL     1       1.049   9.364  17.948  0.00  0.00    +0.000 A 
ATOM      8  C   UNL     1       0.027  10.089  18.653  0.00  0.00    +0.000 A 
ATOM      9  C   UNL     1       0.124   9.846  20.013  0.00  0.00    +0.000 A 
ATOM     10  S   UNL     1       1.301   8.668  20.396  0.00  0.00    +0.000 S 
BRANCH   8  11
ATOM     11  C   UNL     1      -0.987  11.002  18.017  0.00  0.00    +0.000 C 
BRANCH  11  12
ATOM     12  N   UNL     1      -2.006  10.311  17.218  0.00  0.00    +0.000 NA
ATOM     13  C   UNL     1      -2.614  11.078  16.131  0.00  0.00    +0.000 C 
ATOM     14  C   UNL     1      -3.997  11.457  16.624  0.00  0.00    +0.000 C 
ATOM     15  C   UNL     1      -4.394  10.292  17.510  0.00  0.00    +0.000 C 
ATOM     16  C   UNL     1      -3.082   9.676  17.980  0.00  0.00    +0.000 C 
ENDBRANCH  11  12
ENDBRANCH   8  11
ENDBRANCH   3   6
BRANCH   1  18
ATOM     17  C   UNL     1       5.191   4.190  16.330  0.00  0.00    +0.000 C 
ATOM     18  C   UNL     1       3.947   4.270  17.215  0.00  0.00    +0.000 C 
BRANCH  18  19
ATOM     19  C   UNL     1       4.079   3.422  18.445  0.00  0.00    +0.000 A 
ATOM     20  N   UNL     1       5.158   3.309  19.199  0.00  0.00    +0.000 NA
ATOM     21  N   UNL     1       4.878   2.444  20.227  0.00  0.00    +0.000 NA
ATOM     22  C   UNL     1       3.635   2.048  20.088  0.00  0.00    +0.000 A 
ATOM     23  N   UNL     1       3.092   2.634  18.986  0.00  0.00    +0.000 N 
ATOM     24  C   UNL     1       1.751   2.427  18.511  0.00  0.00    +0.000 C 
ENDBRANCH  18  19
ENDBRANCH   1  18
TORSDOF 5
ENDMDL
MODEL 2
REMARK VINA RESULT:      -6.8      2.701      8.308
REMARK  Name = 
REMARK  7 active torsions:
REMARK  status: ('A' for Active; 'I' for Inactive)
REMARK    1  A    between atoms: C_1  and  C_2
REMARK    2  A    between atoms: C_2  and  C_3
REMARK    3  A    between atoms: C_2  and  N_9
REMARK    4  A    between atoms: N_7  and  C_8
REMARK    5  A    between atoms: C_11  and  C_12
REMARK    6  A    between atoms: C_14  and  C_15
REMARK    7  A    between atoms: C_15  and  N_16
REMARK                            x       y       z     vdW  Elec       q    Type
REMARK                         _______ _______ _______ _____ _____    ______ ____
ROOT
ATOM      1  N   UNL     1       0.972   9.727  18.834  0.00  0.00    +0.000 N 
ATOM      2  C   UNL     1       1.671   8.945  17.959  0.00  0.00    +0.000 A 
ATOM      3  C   UNL     1       2.128   7.905  18.737  0.00  0.00    +0.000 A 
ATOM      4  N   UNL     1       1.753   8.118  20.039  0.00  0.00    +0.000 NA
ATOM      5  N   UNL     1       1.063   9.248  20.092  0.00  0.00    +0.000 NA
ENDROOT
BRANCH   3   6
ATOM      6  C   UNL     1       2.837   6.686  18.265  0.00  0.00    +0.000 A 
ATOM      7  C   UNL     1       2.284   5.423  18.318  0.00  0.00    +0.000 A 
ATOM      8  C   UNL     1       3.065   4.444  17.612  0.00  0.00    +0.000 A 
ATOM      9  C   UNL     1       4.272   4.995  17.215  0.00  0.00    +0.000 A 
ATOM     10  S   UNL     1       4.380   6.668  17.546  0.00  0.00    +0.000 S 
BRANCH   8  11
ATOM     11  C   UNL     1       2.652   3.018  17.361  0.00  0.00    +0.000 C 
BRANCH  11  12
ATOM     12  N   UNL     1       2.653   2.170  18.559  0.00  0.00    +0.000 NA
ATOM     13  C   UNL     1       1.360   1.951  19.204  0.00  0.00    +0.000 C 
ATOM     14  C   UNL     1       1.371   2.819  20.448  0.00  0.00    +0.000 C 
ATOM     15  C   UNL     1       2.829   2.824  20.868  0.00  0.00    +0.000 C 
ATOM     16  C   UNL     1       3.618   2.543  19.595  0.00  0.00    +0.000 C 
ENDBRANCH  11  12
ENDBRANCH   8  11
ENDBRANCH   3   6
BRANCH   1  18
ATOM     17  C   UNL     1      -1.287  10.477  18.152  0.00  0.00    +0.000 C 
ATOM     18  C   UNL     1       0.128  10.885  18.561  0.00  0.00    +0.000 C 
BRANCH  18  19
ATOM     19  C   UNL     1       0.127  11.799  19.749  0.00  0.00    +0.000 A 
ATOM     20  N   UNL     1      -0.796  11.846  20.692  0.00  0.00    +0.000 NA
ATOM     21  N   UNL     1      -0.436  12.809  21.602  0.00  0.00    +0.000 NA
ATOM     22  C   UNL     1       0.701  13.328  21.204  0.00  0.00    +0.000 A 
ATOM     23  N   UNL     1       1.095  12.728  20.048  0.00  0.00    +0.000 N 
ATOM     24  C   UNL     1       2.288  13.047  19.311  0.00  0.00    +0.000 C 
ENDBRANCH  18  19
ENDBRANCH   1  18
TORSDOF 5
ENDMDL
MODEL 3
REMARK VINA RESULT:      -6.8      5.120      7.469
REMARK  Name = 
REMARK  7 active torsions:
REMARK  status: ('A' for Active; 'I' for Inactive)
REMARK    1  A    between atoms: C_1  and  C_2
REMARK    2  A    between atoms: C_2  and  C_3
REMARK    3  A    between atoms: C_2  and  N_9
REMARK    4  A    between atoms: N_7  and  C_8
REMARK    5  A    between atoms: C_11  and  C_12
REMARK    6  A    between atoms: C_14  and  C_15
REMARK    7  A    between atoms: C_15  and  N_16
REMARK                            x       y       z     vdW  Elec       q    Type
REMARK                         _______ _______ _______ _____ _____    ______ ____
ROOT
ATOM      1  N   UNL     1       6.768   4.692  13.864  0.00  0.00    +0.000 N 
ATOM      2  C   UNL     1       5.933   4.006  14.700  0.00  0.00    +0.000 A 
ATOM      3  C   UNL     1       6.250   4.487  15.950  0.00  0.00    +0.000 A 
ATOM      4  N   UNL     1       7.283   5.381  15.841  0.00  0.00    +0.000 NA
ATOM      5  N   UNL     1       7.609   5.484  14.560  0.00  0.00    +0.000 NA
ENDROOT
BRANCH   3   6
ATOM      6  C   UNL     1       5.547   4.181  17.224  0.00  0.00    +0.000 A 
ATOM      7  C   UNL     1       4.576   3.207  17.336  0.00  0.00    +0.000 A 
ATOM      8  C   UNL     1       4.200   2.950  18.700  0.00  0.00    +0.000 A 
ATOM      9  C   UNL     1       4.784   3.885  19.538  0.00  0.00    +0.000 A 
ATOM     10  S   UNL     1       5.866   4.926  18.722  0.00  0.00    +0.000 S 
BRANCH   8  11
ATOM     11  C   UNL     1       3.282   1.847  19.156  0.00  0.00    +0.000 C 
BRANCH  11  12
ATOM     12  N   UNL     1       1.892   2.267  19.368  0.00  0.00    +0.000 NA
ATOM     13  C   UNL     1       1.339   3.206  18.393  0.00  0.00    +0.000 C 
ATOM     14  C   UNL     1       1.310   4.551  19.092  0.00  0.00    +0.000 C 
ATOM     15  C   UNL     1       1.063   4.195  20.545  0.00  0.00    +0.000 C 
ATOM     16  C   UNL     1       1.583   2.772  20.707  0.00  0.00    +0.000 C 
ENDBRANCH  11  12
ENDBRANCH   8  11
ENDBRANCH   3   6
BRANCH   1  18
ATOM     17  C   UNL     1       8.031   5.426  11.864  0.00  0.00    +0.000 C 
ATOM     18  C   UNL     1       6.785   4.724  12.406  0.00  0.00    +0.000 C 
BRANCH  18  19
ATOM     19  C   UNL     1       6.649   3.330  11.869  0.00  0.00    +0.000 A 
ATOM     20  N   UNL     1       7.637   2.483  11.648  0.00  0.00    +0.000 NA
ATOM     21  N   UNL     1       7.104   1.316  11.159  0.00  0.00    +0.000 NA
ATOM     22  C   UNL     1       5.803   1.467  11.096  0.00  0.00    +0.000 A 
ATOM     23  N   UNL     1       5.468   2.713  11.531  0.00  0.00    +0.000 N 
ATOM     24  C   UNL     1       4.132   3.241  11.591  0.00  0.00    +0.000 C 
ENDBRANCH  18  19
ENDBRANCH   1  18
TORSDOF 5
ENDMDL
MODEL 4
REMARK VINA RESULT:      -6.8      2.119      8.171
REMARK  Name = 
REMARK  7 active torsions:
REMARK  status: ('A' for Active; 'I' for Inactive)
REMARK    1  A    between atoms: C_1  and  C_2
REMARK    2  A    between atoms: C_2  and  C_3
REMARK    3  A    between atoms: C_2  and  N_9
REMARK    4  A    between atoms: N_7  and  C_8
REMARK    5  A    between atoms: C_11  and  C_12
REMARK    6  A    between atoms: C_14  and  C_15
REMARK    7  A    between atoms: C_15  and  N_16
REMARK                            x       y       z     vdW  Elec       q    Type
REMARK                         _______ _______ _______ _____ _____    ______ ____
ROOT
ATOM      1  N   UNL     1       1.182   9.791  19.344  0.00  0.00    +0.000 N 
ATOM      2  C   UNL     1       1.916   9.103  18.420  0.00  0.00    +0.000 A 
ATOM      3  C   UNL     1       2.177   7.899  19.035  0.00  0.00    +0.000 A 
ATOM      4  N   UNL     1       1.659   7.919  20.304  0.00  0.00    +0.000 NA
ATOM      5  N   UNL     1       1.069   9.091  20.492  0.00  0.00    +0.000 NA
ENDROOT
BRANCH   3   6
ATOM      6  C   UNL     1       2.830   6.712  18.422  0.00  0.00    +0.000 A 
ATOM      7  C   UNL     1       2.295   5.441  18.480  0.00  0.00    +0.000 A 
ATOM      8  C   UNL     1       2.992   4.506  17.640  0.00  0.00    +0.000 A 
ATOM      9  C   UNL     1       4.139   5.088  17.128  0.00  0.00    +0.000 A 
ATOM     10  S   UNL     1       4.276   6.745  17.523  0.00  0.00    +0.000 S 
BRANCH   8  11
ATOM     11  C   UNL     1       2.560   3.088  17.373  0.00  0.00    +0.000 C 
BRANCH  11  12
ATOM     12  N   UNL     1       2.639   2.203  18.541  0.00  0.00    +0.000 NA
ATOM     13  C   UNL     1       1.381   1.919  19.230  0.00  0.00    +0.000 C 
ATOM     14  C   UNL     1       1.416   2.747  20.500  0.00  0.00    +0.000 C 
ATOM     15  C   UNL     1       2.889   2.788  20.861  0.00  0.00    +0.000 C 
ATOM     16  C   UNL     1       3.633   2.575  19.549  0.00  0.00    +0.000 C 
ENDBRANCH  11  12
ENDBRANCH   8  11
ENDBRANCH   3   6
BRANCH   1  18
ATOM     17  C   UNL     1       1.331  12.101  18.463  0.00  0.00    +0.000 C 
ATOM     18  C   UNL     1       0.484  11.063  19.202  0.00  0.00    +0.000 C 
BRANCH  18  19
ATOM     19  C   UNL     1      -0.839  10.840  18.532  0.00  0.00    +0.000 A 
ATOM     20  N   UNL     1      -1.079   9.990  17.551  0.00  0.00    +0.000 NA
ATOM     21  N   UNL     1      -2.407  10.081  17.215  0.00  0.00    +0.000 NA
ATOM     22  C   UNL     1      -2.955  10.978  17.998  0.00  0.00    +0.000 A 
ATOM     23  N   UNL     1      -2.013  11.483  18.842  0.00  0.00    +0.000 N 
ATOM     24  C   UNL     1      -2.244  12.497  19.834  0.00  0.00    +0.000 C 
ENDBRANCH  18  19
ENDBRANCH   1  18
TORSDOF 5
ENDMDL
MODEL 5
REMARK VINA RESULT:      -6.7      2.657      8.213
REMARK  Name = 
REMARK  7 active torsions:
REMARK  status: ('A' for Active; 'I' for Inactive)
REMARK    1  A    between atoms: C_1  and  C_2
REMARK    2  A    between atoms: C_2  and  C_3
REMARK    3  A    between atoms: C_2  and  N_9
REMARK    4  A    between atoms: N_7  and  C_8
REMARK    5  A    between atoms: C_11  and  C_12
REMARK    6  A    between atoms: C_14  and  C_15
REMARK    7  A    between atoms: C_15  and  N_16
REMARK                            x       y       z     vdW  Elec       q    Type
REMARK                         _______ _______ _______ _____ _____    ______ ____
ROOT
ATOM      1  N   UNL     1       1.212   9.656  19.192  0.00  0.00    +0.000 N 
ATOM      2  C   UNL     1       1.502   8.331  19.358  0.00  0.00    +0.000 A 
ATOM      3  C   UNL     1       2.281   8.023  18.266  0.00  0.00    +0.000 A 
ATOM      4  N   UNL     1       2.384   9.128  17.460  0.00  0.00    +0.000 NA
ATOM      5  N   UNL     1       1.708  10.118  18.025  0.00  0.00    +0.000 NA
ENDROOT
BRANCH   3   6
ATOM      6  C   UNL     1       2.989   6.741  18.012  0.00  0.00    +0.000 A 
ATOM      7  C   UNL     1       2.380   5.507  18.123  0.00  0.00    +0.000 A 
ATOM      8  C   UNL     1       3.199   4.436  17.625  0.00  0.00    +0.000 A 
ATOM      9  C   UNL     1       4.468   4.905  17.329  0.00  0.00    +0.000 A 
ATOM     10  S   UNL     1       4.606   6.600  17.498  0.00  0.00    +0.000 S 
BRANCH   8  11
ATOM     11  C   UNL     1       2.759   3.004  17.471  0.00  0.00    +0.000 C 
BRANCH  11  12
ATOM     12  N   UNL     1       2.600   2.282  18.738  0.00  0.00    +0.000 NA
ATOM     13  C   UNL     1       1.233   2.121  19.231  0.00  0.00    +0.000 C 
ATOM     14  C   UNL     1       1.091   3.111  20.371  0.00  0.00    +0.000 C 
ATOM     15  C   UNL     1       2.482   3.167  20.973  0.00  0.00    +0.000 C 
ATOM     16  C   UNL     1       3.426   2.764  19.847  0.00  0.00    +0.000 C 
ENDBRANCH  11  12
ENDBRANCH   8  11
ENDBRANCH   3   6
BRANCH   1  18
ATOM     17  C   UNL     1       0.873  10.252  21.571  0.00  0.00    +0.000 C 
ATOM     18  C   UNL     1       0.553  10.575  20.112  0.00  0.00    +0.000 C 
BRANCH  18  19
ATOM     19  C   UNL     1       0.914  11.987  19.757  0.00  0.00    +0.000 A 
ATOM     20  N   UNL     1       1.975  12.648  20.183  0.00  0.00    +0.000 NA
ATOM     21  N   UNL     1       1.949  13.906  19.635  0.00  0.00    +0.000 NA
ATOM     22  C   UNL     1       0.880  13.990  18.881  0.00  0.00    +0.000 A 
ATOM     23  N   UNL     1       0.198  12.813  18.924  0.00  0.00    +0.000 N 
ATOM     24  C   UNL     1      -1.031  12.539  18.231  0.00  0.00    +0.000 C 
ENDBRANCH  18  19
ENDBRANCH   1  18
TORSDOF 5
ENDMDL
MODEL 6
REMARK VINA RESULT:      -6.6      3.277      8.527
REMARK  Name = 
REMARK  7 active torsions:
REMARK  status: ('A' for Active; 'I' for Inactive)
REMARK    1  A    between atoms: C_1  and  C_2
REMARK    2  A    between atoms: C_2  and  C_3
REMARK    3  A    between atoms: C_2  and  N_9
REMARK    4  A    between atoms: N_7  and  C_8
REMARK    5  A    between atoms: C_11  and  C_12
REMARK    6  A    between atoms: C_14  and  C_15
REMARK    7  A    between atoms: C_15  and  N_16
REMARK                            x       y       z     vdW  Elec       q    Type
REMARK                         _______ _______ _______ _____ _____    ______ ____
ROOT
ATOM      1  N   UNL     1       1.002   9.719  19.872  0.00  0.00    +0.000 N 
ATOM      2  C   UNL     1       1.658   8.776  19.134  0.00  0.00    +0.000 A 
ATOM      3  C   UNL     1       1.767   7.703  19.990  0.00  0.00    +0.000 A 
ATOM      4  N   UNL     1       1.242   8.045  21.209  0.00  0.00    +0.000 NA
ATOM      5  N   UNL     1       0.795   9.290  21.134  0.00  0.00    +0.000 NA
ENDROOT
BRANCH   3   6
ATOM      6  C   UNL     1       2.281   6.349  19.656  0.00  0.00    +0.000 A 
ATOM      7  C   UNL     1       2.912   6.053  18.465  0.00  0.00    +0.000 A 
ATOM      8  C   UNL     1       3.506   4.744  18.460  0.00  0.00    +0.000 A 
ATOM      9  C   UNL     1       3.130   4.046  19.596  0.00  0.00    +0.000 A 
ATOM     10  S   UNL     1       2.227   4.998  20.691  0.00  0.00    +0.000 S 
BRANCH   8  11
ATOM     11  C   UNL     1       4.387   4.192  17.371  0.00  0.00    +0.000 C 
BRANCH  11  12
ATOM     12  N   UNL     1       5.425   5.119  16.906  0.00  0.00    +0.000 NA
ATOM     13  C   UNL     1       5.200   5.752  15.608  0.00  0.00    +0.000 C 
ATOM     14  C   UNL     1       6.127   5.042  14.640  0.00  0.00    +0.000 C 
ATOM     15  C   UNL     1       7.323   4.671  15.495  0.00  0.00    +0.000 C 
ATOM     16  C   UNL     1       6.792   4.594  16.922  0.00  0.00    +0.000 C 
ENDBRANCH  11  12
ENDBRANCH   8  11
ENDBRANCH   3   6
BRANCH   1  18
ATOM     17  C   UNL     1      -1.025  11.140  19.779  0.00  0.00    +0.000 C 
ATOM     18  C   UNL     1       0.462  11.006  19.449  0.00  0.00    +0.000 C 
BRANCH  18  19
ATOM     19  C   UNL     1       1.272  12.115  20.053  0.00  0.00    +0.000 A 
ATOM     20  N   UNL     1       1.182  12.555  21.294  0.00  0.00    +0.000 NA
ATOM     21  N   UNL     1       2.088  13.573  21.458  0.00  0.00    +0.000 NA
ATOM     22  C   UNL     1       2.718  13.733  20.319  0.00  0.00    +0.000 A 
ATOM     23  N   UNL     1       2.243  12.842  19.407  0.00  0.00    +0.000 N 
ATOM     24  C   UNL     1       2.687  12.732  18.044  0.00  0.00    +0.000 C 
ENDBRANCH  18  19
ENDBRANCH   1  18
TORSDOF 5
ENDMDL
MODEL 7
REMARK VINA RESULT:      -6.6      3.294      8.589
REMARK  Name = 
REMARK  7 active torsions:
REMARK  status: ('A' for Active; 'I' for Inactive)
REMARK    1  A    between atoms: C_1  and  C_2
REMARK    2  A    between atoms: C_2  and  C_3
REMARK    3  A    between atoms: C_2  and  N_9
REMARK    4  A    between atoms: N_7  and  C_8
REMARK    5  A    between atoms: C_11  and  C_12
REMARK    6  A    between atoms: C_14  and  C_15
REMARK    7  A    between atoms: C_15  and  N_16
REMARK                            x       y       z     vdW  Elec       q    Type
REMARK                         _______ _______ _______ _____ _____    ______ ____
ROOT
ATOM      1  N   UNL     1       0.932   9.314  20.388  0.00  0.00    +0.000 N 
ATOM      2  C   UNL     1       1.539   8.940  19.223  0.00  0.00    +0.000 A 
ATOM      3  C   UNL     1       2.119   7.729  19.527  0.00  0.00    +0.000 A 
ATOM      4  N   UNL     1       1.904   7.446  20.851  0.00  0.00    +0.000 NA
ATOM      5  N   UNL     1       1.194   8.433  21.377  0.00  0.00    +0.000 NA
ENDROOT
BRANCH   3   6
ATOM      6  C   UNL     1       2.799   6.807  18.579  0.00  0.00    +0.000 A 
ATOM      7  C   UNL     1       3.592   7.243  17.538  0.00  0.00    +0.000 A 
ATOM      8  C   UNL     1       4.307   6.173  16.897  0.00  0.00    +0.000 A 
ATOM      9  C   UNL     1       3.868   4.952  17.379  0.00  0.00    +0.000 A 
ATOM     10  S   UNL     1       2.754   5.107  18.666  0.00  0.00    +0.000 S 
BRANCH   8  11
ATOM     11  C   UNL     1       5.359   6.345  15.834  0.00  0.00    +0.000 C 
BRANCH  11  12
ATOM     12  N   UNL     1       6.738   6.251  16.328  0.00  0.00    +0.000 NA
ATOM     13  C   UNL     1       7.251   4.905  16.577  0.00  0.00    +0.000 C 
ATOM     14  C   UNL     1       7.246   4.738  18.085  0.00  0.00    +0.000 C 
ATOM     15  C   UNL     1       7.519   6.138  18.602  0.00  0.00    +0.000 C 
ATOM     16  C   UNL     1       7.045   7.076  17.498  0.00  0.00    +0.000 C 
ENDBRANCH  11  12
ENDBRANCH   8  11
ENDBRANCH   3   6
BRANCH   1  18
ATOM     17  C   UNL     1      -0.645  10.329  22.006  0.00  0.00    +0.000 C 
ATOM     18  C   UNL     1       0.027  10.430  20.636  0.00  0.00    +0.000 C 
BRANCH  18  19
ATOM     19  C   UNL     1       0.766  11.724  20.469  0.00  0.00    +0.000 A 
ATOM     20  N   UNL     1       1.716  12.185  21.262  0.00  0.00    +0.000 NA
ATOM     21  N   UNL     1       2.140  13.395  20.772  0.00  0.00    +0.000 NA
ATOM     22  C   UNL     1       1.447  13.650  19.687  0.00  0.00    +0.000 A 
ATOM     23  N   UNL     1       0.573  12.633  19.456  0.00  0.00    +0.000 N 
ATOM     24  C   UNL     1      -0.359  12.572  18.363  0.00  0.00    +0.000 C 
ENDBRANCH  18  19
ENDBRANCH   1  18
TORSDOF 5
ENDMDL
MODEL 8
REMARK VINA RESULT:      -6.6      1.935      2.871
REMARK  Name = 
REMARK  7 active torsions:
REMARK  status: ('A' for Active; 'I' for Inactive)
REMARK    1  A    between atoms: C_1  and  C_2
REMARK    2  A    between atoms: C_2  and  C_3
REMARK    3  A    between atoms: C_2  and  N_9
REMARK    4  A    between atoms: N_7  and  C_8
REMARK    5  A    between atoms: C_11  and  C_12
REMARK    6  A    between atoms: C_14  and  C_15
REMARK    7  A    between atoms: C_15  and  N_16
REMARK                            x       y       z     vdW  Elec       q    Type
REMARK                         _______ _______ _______ _____ _____    ______ ____
ROOT
ATOM      1  N   UNL     1       3.521   5.062  19.543  0.00  0.00    +0.000 N 
ATOM      2  C   UNL     1       3.218   6.347  19.190  0.00  0.00    +0.000 A 
ATOM      3  C   UNL     1       2.198   6.693  20.046  0.00  0.00    +0.000 A 
ATOM      4  N   UNL     1       1.880   5.614  20.830  0.00  0.00    +0.000 NA
ATOM      5  N   UNL     1       2.682   4.611  20.499  0.00  0.00    +0.000 NA
ENDROOT
BRANCH   3   6
ATOM      6  C   UNL     1       1.577   8.037  20.192  0.00  0.00    +0.000 A 
ATOM      7  C   UNL     1       1.110   8.773  19.122  0.00  0.00    +0.000 A 
ATOM      8  C   UNL     1       0.365   9.933  19.528  0.00  0.00    +0.000 A 
ATOM      9  C   UNL     1       0.468  10.109  20.898  0.00  0.00    +0.000 A 
ATOM     10  S   UNL     1       1.298   8.831  21.671  0.00  0.00    +0.000 S 
BRANCH   8  11
ATOM     11  C   UNL     1      -0.394  10.847  18.603  0.00  0.00    +0.000 C 
BRANCH  11  12
ATOM     12  N   UNL     1      -1.757  10.399  18.296  0.00  0.00    +0.000 NA
ATOM     13  C   UNL     1      -1.967   9.805  16.976  0.00  0.00    +0.000 C 
ATOM     14  C   UNL     1      -2.685  10.864  16.162  0.00  0.00    +0.000 C 
ATOM     15  C   UNL     1      -3.525  11.598  17.188  0.00  0.00    +0.000 C 
ATOM     16  C   UNL     1      -2.812  11.389  18.519  0.00  0.00    +0.000 C 
ENDBRANCH  11  12
ENDBRANCH   8  11
ENDBRANCH   3   6
BRANCH   1  18
ATOM     17  C   UNL     1       4.246   3.378  17.878  0.00  0.00    +0.000 C 
ATOM     18  C   UNL     1       4.625   4.222  19.096  0.00  0.00    +0.000 C 
BRANCH  18  19
ATOM     19  C   UNL     1       5.832   5.073  18.834  0.00  0.00    +0.000 A 
ATOM     20  N   UNL     1       6.804   5.327  19.691  0.00  0.00    +0.000 NA
ATOM     21  N   UNL     1       7.721   6.142  19.075  0.00  0.00    +0.000 NA
ATOM     22  C   UNL     1       7.298   6.366  17.854  0.00  0.00    +0.000 A 
ATOM     23  N   UNL     1       6.118   5.717  17.655  0.00  0.00    +0.000 N 
ATOM     24  C   UNL     1       5.351   5.743  16.439  0.00  0.00    +0.000 C 
ENDBRANCH  18  19
ENDBRANCH   1  18
TORSDOF 5
ENDMDL
MODEL 9
REMARK VINA RESULT:      -6.6      3.091      8.571
REMARK  Name = 
REMARK  7 active torsions:
REMARK  status: ('A' for Active; 'I' for Inactive)
REMARK    1  A    between atoms: C_1  and  C_2
REMARK    2  A    between atoms: C_2  and  C_3
REMARK    3  A    between atoms: C_2  and  N_9
REMARK    4  A    between atoms: N_7  and  C_8
REMARK    5  A    between atoms: C_11  and  C_12
REMARK    6  A    between atoms: C_14  and  C_15
REMARK    7  A    between atoms: C_15  and  N_16
REMARK                            x       y       z     vdW  Elec       q    Type
REMARK                         _______ _______ _______ _____ _____    ______ ____
ROOT
ATOM      1  N   UNL     1       1.370   9.203  18.957  0.00  0.00    +0.000 N 
ATOM      2  C   UNL     1       2.173   8.376  18.225  0.00  0.00    +0.000 A 
ATOM      3  C   UNL     1       2.449   7.336  19.084  0.00  0.00    +0.000 A 
ATOM      4  N   UNL     1       1.870   7.592  20.300  0.00  0.00    +0.000 NA
ATOM      5  N   UNL     1       1.229   8.749  20.220  0.00  0.00    +0.000 NA
ENDROOT
BRANCH   3   6
ATOM      6  C   UNL     1       3.176   6.081  18.756  0.00  0.00    +0.000 A 
ATOM      7  C   UNL     1       3.917   5.916  17.604  0.00  0.00    +0.000 A 
ATOM      8  C   UNL     1       4.695   4.708  17.611  0.00  0.00    +0.000 A 
ATOM      9  C   UNL     1       4.353   3.929  18.704  0.00  0.00    +0.000 A 
ATOM     10  S   UNL     1       3.254   4.706  19.757  0.00  0.00    +0.000 S 
BRANCH   8  11
ATOM     11  C   UNL     1       5.713   4.322  16.571  0.00  0.00    +0.000 C 
BRANCH  11  12
ATOM     12  N   UNL     1       7.028   4.949  16.753  0.00  0.00    +0.000 NA
ATOM     13  C   UNL     1       7.765   4.580  17.961  0.00  0.00    +0.000 C 
ATOM     14  C   UNL     1       7.642   5.771  18.892  0.00  0.00    +0.000 C 
ATOM     15  C   UNL     1       7.587   6.959  17.952  0.00  0.00    +0.000 C 
ATOM     16  C   UNL     1       7.053   6.408  16.635  0.00  0.00    +0.000 C 
ENDBRANCH  11  12
ENDBRANCH   8  11
ENDBRANCH   3   6
BRANCH   1  18
ATOM     17  C   UNL     1      -0.817  10.364  19.014  0.00  0.00    +0.000 C 
ATOM     18  C   UNL     1       0.633  10.386  18.528  0.00  0.00    +0.000 C 
BRANCH  18  19
ATOM     19  C   UNL     1       1.356  11.620  18.977  0.00  0.00    +0.000 A 
ATOM     20  N   UNL     1       2.267  12.281  18.287  0.00  0.00    +0.000 NA
ATOM     21  N   UNL     1       2.688  13.350  19.039  0.00  0.00    +0.000 NA
ATOM     22  C   UNL     1       2.024  13.328  20.170  0.00  0.00    +0.000 A 
ATOM     23  N   UNL     1       1.177  12.263  20.179  0.00  0.00    +0.000 N 
ATOM     24  C   UNL     1       0.298  11.910  21.261  0.00  0.00    +0.000 C 
ENDBRANCH  18  19
ENDBRANCH   1  18
TORSDOF 5
ENDMDL
