MODEL 1
REMARK VINA RESULT:      -7.1      0.000      0.000
REMARK  Name = 
REMARK  6 active torsions:
REMARK  status: ('A' for Active; 'I' for Inactive)
REMARK    1  A    between atoms: C_1  and  O_2
REMARK    2  A    between atoms: O_2  and  C_3
REMARK    3  A    between atoms: C_6  and  C_7
REMARK    4  A    between atoms: N_11  and  C_12
REMARK    5  A    between atoms: C_12  and  C_13
REMARK    6  A    between atoms: C_12  and  C_14
REMARK                            x       y       z     vdW  Elec       q    Type
REMARK                         _______ _______ _______ _____ _____    ______ ____
ROOT
ATOM      1  C   UNL     1       2.084   3.879  18.688  0.00  0.00    +0.000 A 
ATOM      2  C   UNL     1       2.346   5.224  18.456  0.00  0.00    +0.000 A 
ATOM      3  C   UNL     1       3.446   5.610  17.685  0.00  0.00    +0.000 A 
ATOM      4  C   UNL     1       4.302   4.665  17.113  0.00  0.00    +0.000 A 
ATOM      5  C   UNL     1       4.053   3.313  17.400  0.00  0.00    +0.000 A 
ATOM      6  C   UNL     1       2.954   2.921  18.178  0.00  0.00    +0.000 A 
ENDROOT
BRANCH   4   7
ATOM      7  C   UNL     1       5.463   5.016  16.278  0.00  0.00    +0.000 A 
ATOM      8  N   UNL     1       5.612   4.654  15.013  0.00  0.00    +0.000 NA
ATOM      9  N   UNL     1       6.812   5.163  14.586  0.00  0.00    +0.000 NA
ATOM     10  N   UNL     1       7.402   5.847  15.551  0.00  0.00    +0.000 NA
ATOM     11  N   UNL     1       6.561   5.789  16.602  0.00  0.00    +0.000 N 
BRANCH  11  12
ATOM     12  C   UNL     1       6.898   6.498  17.825  0.00  0.00    +0.000 C 
ATOM     13  C   UNL     1       7.623   5.574  18.806  0.00  0.00    +0.000 C 
ATOM     14  C   UNL     1       7.736   7.761  17.591  0.00  0.00    +0.000 C 
ENDBRANCH  11  12
ENDBRANCH   4   7
BRANCH   1  16
ATOM     15  C   UNL     1       1.266   3.277  20.813  0.00  0.00    +0.000 C 
ATOM     16  O   UNL     1       0.987   3.631  19.463  0.00  0.00    +0.000 OA
ENDBRANCH   1  16
TORSDOF 3
ENDMDL
MODEL 2
REMARK VINA RESULT:      -6.9      0.368      1.242
REMARK  Name = 
REMARK  6 active torsions:
REMARK  status: ('A' for Active; 'I' for Inactive)
REMARK    1  A    between atoms: C_1  and  O_2
REMARK    2  A    between atoms: O_2  and  C_3
REMARK    3  A    between atoms: C_6  and  C_7
REMARK    4  A    between atoms: N_11  and  C_12
REMARK    5  A    between atoms: C_12  and  C_13
REMARK    6  A    between atoms: C_12  and  C_14
REMARK                            x       y       z     vdW  Elec       q    Type
REMARK                         _______ _______ _______ _____ _____    ______ ____
ROOT
ATOM      1  C   UNL     1       2.298   3.773  19.112  0.00  0.00    +0.000 A 
ATOM      2  C   UNL     1       3.236   2.834  18.704  0.00  0.00    +0.000 A 
ATOM      3  C   UNL     1       4.258   3.188  17.818  0.00  0.00    +0.000 A 
ATOM      4  C   UNL     1       4.377   4.493  17.330  0.00  0.00    +0.000 A 
ATOM      5  C   UNL     1       3.390   5.417  17.711  0.00  0.00    +0.000 A 
ATOM      6  C   UNL     1       2.361   5.063  18.596  0.00  0.00    +0.000 A 
ENDROOT
BRANCH   4   7
ATOM      7  C   UNL     1       5.443   4.926  16.411  0.00  0.00    +0.000 A 
ATOM      8  N   UNL     1       5.501   4.606  15.127  0.00  0.00    +0.000 NA
ATOM      9  N   UNL     1       6.632   5.188  14.616  0.00  0.00    +0.000 NA
ATOM     10  N   UNL     1       7.269   5.875  15.549  0.00  0.00    +0.000 NA
ATOM     11  N   UNL     1       6.526   5.745  16.665  0.00  0.00    +0.000 N 
BRANCH  11  12
ATOM     12  C   UNL     1       6.931   6.438  17.877  0.00  0.00    +0.000 C 
ATOM     13  C   UNL     1       7.771   5.522  18.770  0.00  0.00    +0.000 C 
ATOM     14  C   UNL     1       7.696   7.741  17.613  0.00  0.00    +0.000 C 
ENDBRANCH  11  12
ENDBRANCH   4   7
BRANCH   1  16
ATOM     15  C   UNL     1       1.762   3.173  21.326  0.00  0.00    +0.000 C 
ATOM     16  O   UNL     1       1.346   3.301  19.971  0.00  0.00    +0.000 OA
ENDBRANCH   1  16
TORSDOF 3
ENDMDL
MODEL 3
REMARK VINA RESULT:      -6.6      3.538      5.698
REMARK  Name = 
REMARK  6 active torsions:
REMARK  status: ('A' for Active; 'I' for Inactive)
REMARK    1  A    between atoms: C_1  and  O_2
REMARK    2  A    between atoms: O_2  and  C_3
REMARK    3  A    between atoms: C_6  and  C_7
REMARK    4  A    between atoms: N_11  and  C_12
REMARK    5  A    between atoms: C_12  and  C_13
REMARK    6  A    between atoms: C_12  and  C_14
REMARK                            x       y       z     vdW  Elec       q    Type
REMARK                         _______ _______ _______ _____ _____    ______ ____
ROOT
ATOM      1  C   UNL     1       6.365   6.255  17.053  0.00  0.00    +0.000 A 
ATOM      2  C   UNL     1       6.500   4.895  17.298  0.00  0.00    +0.000 A 
ATOM      3  C   UNL     1       5.385   4.118  17.624  0.00  0.00    +0.000 A 
ATOM      4  C   UNL     1       4.105   4.677  17.700  0.00  0.00    +0.000 A 
ATOM      5  C   UNL     1       3.995   6.063  17.500  0.00  0.00    +0.000 A 
ATOM      6  C   UNL     1       5.112   6.847  17.177  0.00  0.00    +0.000 A 
ENDROOT
BRANCH   4   7
ATOM      7  C   UNL     1       2.894   3.903  18.021  0.00  0.00    +0.000 A 
ATOM      8  N   UNL     1       2.259   3.117  17.165  0.00  0.00    +0.000 NA
ATOM      9  N   UNL     1       1.187   2.580  17.830  0.00  0.00    +0.000 NA
ATOM     10  N   UNL     1       1.152   3.001  19.083  0.00  0.00    +0.000 NA
ATOM     11  N   UNL     1       2.225   3.803  19.225  0.00  0.00    +0.000 N 
BRANCH  11  12
ATOM     12  C   UNL     1       2.508   4.393  20.523  0.00  0.00    +0.000 C 
ATOM     13  C   UNL     1       1.795   5.738  20.674  0.00  0.00    +0.000 C 
ATOM     14  C   UNL     1       2.146   3.482  21.703  0.00  0.00    +0.000 C 
ENDBRANCH  11  12
ENDBRANCH   4   7
BRANCH   1  16
ATOM     15  C   UNL     1       7.815   8.042  17.560  0.00  0.00    +0.000 C 
ATOM     16  O   UNL     1       7.530   6.905  16.753  0.00  0.00    +0.000 OA
ENDBRANCH   1  16
TORSDOF 3
ENDMDL
MODEL 4
REMARK VINA RESULT:      -6.5      1.057      1.112
REMARK  Name = 
REMARK  6 active torsions:
REMARK  status: ('A' for Active; 'I' for Inactive)
REMARK    1  A    between atoms: C_1  and  O_2
REMARK    2  A    between atoms: O_2  and  C_3
REMARK    3  A    between atoms: C_6  and  C_7
REMARK    4  A    between atoms: N_11  and  C_12
REMARK    5  A    between atoms: C_12  and  C_13
REMARK    6  A    between atoms: C_12  and  C_14
REMARK                            x       y       z     vdW  Elec       q    Type
REMARK                         _______ _______ _______ _____ _____    ______ ____
ROOT
ATOM      1  C   UNL     1       2.967   3.027  19.059  0.00  0.00    +0.000 A 
ATOM      2  C   UNL     1       4.034   3.715  19.623  0.00  0.00    +0.000 A 
ATOM      3  C   UNL     1       5.038   4.255  18.814  0.00  0.00    +0.000 A 
ATOM      4  C   UNL     1       4.995   4.134  17.422  0.00  0.00    +0.000 A 
ATOM      5  C   UNL     1       3.938   3.390  16.872  0.00  0.00    +0.000 A 
ATOM      6  C   UNL     1       2.931   2.843  17.681  0.00  0.00    +0.000 A 
ENDROOT
BRANCH   4   7
ATOM      7  C   UNL     1       6.015   4.698  16.522  0.00  0.00    +0.000 A 
ATOM      8  N   UNL     1       6.235   4.282  15.285  0.00  0.00    +0.000 NA
ATOM      9  N   UNL     1       7.257   5.042  14.778  0.00  0.00    +0.000 NA
ATOM     10  N   UNL     1       7.664   5.933  15.667  0.00  0.00    +0.000 NA
ATOM     11  N   UNL     1       6.881   5.751  16.747  0.00  0.00    +0.000 N 
BRANCH  11  12
ATOM     12  C   UNL     1       7.040   6.622  17.900  0.00  0.00    +0.000 C 
ATOM     13  C   UNL     1       7.899   5.951  18.973  0.00  0.00    +0.000 C 
ATOM     14  C   UNL     1       7.629   7.995  17.553  0.00  0.00    +0.000 C 
ENDBRANCH  11  12
ENDBRANCH   4   7
BRANCH   1  16
ATOM     15  C   UNL     1       1.221   3.519  20.561  0.00  0.00    +0.000 C 
ATOM     16  O   UNL     1       2.057   2.540  19.955  0.00  0.00    +0.000 OA
ENDBRANCH   1  16
TORSDOF 3
ENDMDL
MODEL 5
REMARK VINA RESULT:      -6.5      3.773      5.831
REMARK  Name = 
REMARK  6 active torsions:
REMARK  status: ('A' for Active; 'I' for Inactive)
REMARK    1  A    between atoms: C_1  and  O_2
REMARK    2  A    between atoms: O_2  and  C_3
REMARK    3  A    between atoms: C_6  and  C_7
REMARK    4  A    between atoms: N_11  and  C_12
REMARK    5  A    between atoms: C_12  and  C_13
REMARK    6  A    between atoms: C_12  and  C_14
REMARK                            x       y       z     vdW  Elec       q    Type
REMARK                         _______ _______ _______ _____ _____    ______ ____
ROOT
ATOM      1  C   UNL     1       6.772   5.032  15.993  0.00  0.00    +0.000 A 
ATOM      2  C   UNL     1       5.584   4.359  15.739  0.00  0.00    +0.000 A 
ATOM      3  C   UNL     1       4.840   3.811  16.787  0.00  0.00    +0.000 A 
ATOM      4  C   UNL     1       5.254   3.933  18.116  0.00  0.00    +0.000 A 
ATOM      5  C   UNL     1       6.484   4.571  18.352  0.00  0.00    +0.000 A 
ATOM      6  C   UNL     1       7.236   5.119  17.302  0.00  0.00    +0.000 A 
ENDROOT
BRANCH   4   7
ATOM      7  C   UNL     1       4.501   3.391  19.259  0.00  0.00    +0.000 A 
ATOM      8  N   UNL     1       4.943   2.437  20.063  0.00  0.00    +0.000 NA
ATOM      9  N   UNL     1       3.962   2.205  20.993  0.00  0.00    +0.000 NA
ATOM     10  N   UNL     1       2.929   3.006  20.795  0.00  0.00    +0.000 NA
ATOM     11  N   UNL     1       3.261   3.771  19.737  0.00  0.00    +0.000 N 
BRANCH  11  12
ATOM     12  C   UNL     1       2.346   4.809  19.291  0.00  0.00    +0.000 C 
ATOM     13  C   UNL     1       1.494   4.313  18.120  0.00  0.00    +0.000 C 
ATOM     14  C   UNL     1       1.434   5.341  20.403  0.00  0.00    +0.000 C 
ENDBRANCH  11  12
ENDBRANCH   4   7
BRANCH   1  16
ATOM     15  C   UNL     1       7.143   4.811  13.678  0.00  0.00    +0.000 C 
ATOM     16  O   UNL     1       7.410   5.514  14.885  0.00  0.00    +0.000 OA
ENDBRANCH   1  16
TORSDOF 3
ENDMDL
MODEL 6
REMARK VINA RESULT:      -6.4      3.658      5.690
REMARK  Name = 
REMARK  6 active torsions:
REMARK  status: ('A' for Active; 'I' for Inactive)
REMARK    1  A    between atoms: C_1  and  O_2
REMARK    2  A    between atoms: O_2  and  C_3
REMARK    3  A    between atoms: C_6  and  C_7
REMARK    4  A    between atoms: N_11  and  C_12
REMARK    5  A    between atoms: C_12  and  C_13
REMARK    6  A    between atoms: C_12  and  C_14
REMARK                            x       y       z     vdW  Elec       q    Type
REMARK                         _______ _______ _______ _____ _____    ______ ____
ROOT
ATOM      1  C   UNL     1       5.770   6.338  16.891  0.00  0.00    +0.000 A 
ATOM      2  C   UNL     1       5.743   4.983  16.583  0.00  0.00    +0.000 A 
ATOM      3  C   UNL     1       4.669   4.184  16.987  0.00  0.00    +0.000 A 
ATOM      4  C   UNL     1       3.589   4.720  17.695  0.00  0.00    +0.000 A 
ATOM      5  C   UNL     1       3.657   6.079  18.043  0.00  0.00    +0.000 A 
ATOM      6  C   UNL     1       4.735   6.883  17.644  0.00  0.00    +0.000 A 
ENDROOT
BRANCH   4   7
ATOM      7  C   UNL     1       2.425   3.929  18.129  0.00  0.00    +0.000 A 
ATOM      8  N   UNL     1       1.368   3.677  17.374  0.00  0.00    +0.000 NA
ATOM      9  N   UNL     1       0.505   2.923  18.126  0.00  0.00    +0.000 NA
ATOM     10  N   UNL     1       1.010   2.686  19.325  0.00  0.00    +0.000 NA
ATOM     11  N   UNL     1       2.218   3.282  19.332  0.00  0.00    +0.000 N 
BRANCH  11  12
ATOM     12  C   UNL     1       3.067   3.161  20.506  0.00  0.00    +0.000 C 
ATOM     13  C   UNL     1       2.262   2.662  21.708  0.00  0.00    +0.000 C 
ATOM     14  C   UNL     1       4.286   2.255  20.290  0.00  0.00    +0.000 C 
ENDBRANCH  11  12
ENDBRANCH   4   7
BRANCH   1  16
ATOM     15  C   UNL     1       7.594   7.719  17.450  0.00  0.00    +0.000 C 
ATOM     16  O   UNL     1       6.876   7.007  16.448  0.00  0.00    +0.000 OA
ENDBRANCH   1  16
TORSDOF 3
ENDMDL
MODEL 7
REMARK VINA RESULT:      -6.4      3.522      5.572
REMARK  Name = 
REMARK  6 active torsions:
REMARK  status: ('A' for Active; 'I' for Inactive)
REMARK    1  A    between atoms: C_1  and  O_2
REMARK    2  A    between atoms: O_2  and  C_3
REMARK    3  A    between atoms: C_6  and  C_7
REMARK    4  A    between atoms: N_11  and  C_12
REMARK    5  A    between atoms: C_12  and  C_13
REMARK    6  A    between atoms: C_12  and  C_14
REMARK                            x       y       z     vdW  Elec       q    Type
REMARK                         _______ _______ _______ _____ _____    ______ ____
ROOT
ATOM      1  C   UNL     1       6.231   6.422  17.189  0.00  0.00    +0.000 A 
ATOM      2  C   UNL     1       4.931   6.876  17.009  0.00  0.00    +0.000 A 
ATOM      3  C   UNL     1       3.844   6.039  17.276  0.00  0.00    +0.000 A 
ATOM      4  C   UNL     1       4.027   4.733  17.742  0.00  0.00    +0.000 A 
ATOM      5  C   UNL     1       5.349   4.274  17.868  0.00  0.00    +0.000 A 
ATOM      6  C   UNL     1       6.442   5.110  17.597  0.00  0.00    +0.000 A 
ENDROOT
BRANCH   4   7
ATOM      7  C   UNL     1       2.919   3.816  18.055  0.00  0.00    +0.000 A 
ATOM      8  N   UNL     1       2.364   2.987  17.185  0.00  0.00    +0.000 NA
ATOM      9  N   UNL     1       1.372   2.311  17.847  0.00  0.00    +0.000 NA
ATOM     10  N   UNL     1       1.311   2.688  19.113  0.00  0.00    +0.000 NA
ATOM     11  N   UNL     1       2.287   3.603  19.266  0.00  0.00    +0.000 N 
BRANCH  11  12
ATOM     12  C   UNL     1       2.523   4.184  20.577  0.00  0.00    +0.000 C 
ATOM     13  C   UNL     1       1.818   5.536  20.706  0.00  0.00    +0.000 C 
ATOM     14  C   UNL     1       2.103   3.272  21.736  0.00  0.00    +0.000 C 
ENDBRANCH  11  12
ENDBRANCH   4   7
BRANCH   1  16
ATOM     15  C   UNL     1       7.999   7.759  17.988  0.00  0.00    +0.000 C 
ATOM     16  O   UNL     1       7.206   7.332  16.886  0.00  0.00    +0.000 OA
ENDBRANCH   1  16
TORSDOF 3
ENDMDL
MODEL 8
REMARK VINA RESULT:      -6.4      1.197      1.507
REMARK  Name = 
REMARK  6 active torsions:
REMARK  status: ('A' for Active; 'I' for Inactive)
REMARK    1  A    between atoms: C_1  and  O_2
REMARK    2  A    between atoms: O_2  and  C_3
REMARK    3  A    between atoms: C_6  and  C_7
REMARK    4  A    between atoms: N_11  and  C_12
REMARK    5  A    between atoms: C_12  and  C_13
REMARK    6  A    between atoms: C_12  and  C_14
REMARK                            x       y       z     vdW  Elec       q    Type
REMARK                         _______ _______ _______ _____ _____    ______ ____
ROOT
ATOM      1  C   UNL     1       2.360   2.985  19.269  0.00  0.00    +0.000 A 
ATOM      2  C   UNL     1       2.065   3.281  17.944  0.00  0.00    +0.000 A 
ATOM      3  C   UNL     1       3.069   3.708  17.071  0.00  0.00    +0.000 A 
ATOM      4  C   UNL     1       4.396   3.835  17.494  0.00  0.00    +0.000 A 
ATOM      5  C   UNL     1       4.667   3.582  18.848  0.00  0.00    +0.000 A 
ATOM      6  C   UNL     1       3.661   3.158  19.729  0.00  0.00    +0.000 A 
ENDROOT
BRANCH   4   7
ATOM      7  C   UNL     1       5.495   4.262  16.613  0.00  0.00    +0.000 A 
ATOM      8  N   UNL     1       5.927   3.575  15.567  0.00  0.00    +0.000 NA
ATOM      9  N   UNL     1       6.956   4.290  15.010  0.00  0.00    +0.000 NA
ATOM     10  N   UNL     1       7.161   5.414  15.676  0.00  0.00    +0.000 NA
ATOM     11  N   UNL     1       6.240   5.425  16.659  0.00  0.00    +0.000 N 
BRANCH  11  12
ATOM     12  C   UNL     1       6.162   6.570  17.551  0.00  0.00    +0.000 C 
ATOM     13  C   UNL     1       7.397   7.461  17.399  0.00  0.00    +0.000 C 
ATOM     14  C   UNL     1       4.894   7.410  17.360  0.00  0.00    +0.000 C 
ENDBRANCH  11  12
ENDBRANCH   4   7
BRANCH   1  16
ATOM     15  C   UNL     1       1.484   2.657  21.431  0.00  0.00    +0.000 C 
ATOM     16  O   UNL     1       1.292   2.587  20.023  0.00  0.00    +0.000 OA
ENDBRANCH   1  16
TORSDOF 3
ENDMDL
MODEL 9
REMARK VINA RESULT:      -6.4      0.929      1.681
REMARK  Name = 
REMARK  6 active torsions:
REMARK  status: ('A' for Active; 'I' for Inactive)
REMARK    1  A    between atoms: C_1  and  O_2
REMARK    2  A    between atoms: O_2  and  C_3
REMARK    3  A    between atoms: C_6  and  C_7
REMARK    4  A    between atoms: N_11  and  C_12
REMARK    5  A    between atoms: C_12  and  C_13
REMARK    6  A    between atoms: C_12  and  C_14
REMARK                            x       y       z     vdW  Elec       q    Type
REMARK                         _______ _______ _______ _____ _____    ______ ____
ROOT
ATOM      1  C   UNL     1       2.651   4.783  19.577  0.00  0.00    +0.000 A 
ATOM      2  C   UNL     1       3.573   3.746  19.523  0.00  0.00    +0.000 A 
ATOM      3  C   UNL     1       4.546   3.713  18.520  0.00  0.00    +0.000 A 
ATOM      4  C   UNL     1       4.631   4.720  17.554  0.00  0.00    +0.000 A 
ATOM      5  C   UNL     1       3.659   5.733  17.593  0.00  0.00    +0.000 A 
ATOM      6  C   UNL     1       2.678   5.768  18.595  0.00  0.00    +0.000 A 
ENDROOT
BRANCH   4   7
ATOM      7  C   UNL     1       5.646   4.744  16.487  0.00  0.00    +0.000 A 
ATOM      8  N   UNL     1       5.522   4.128  15.322  0.00  0.00    +0.000 NA
ATOM      9  N   UNL     1       6.665   4.380  14.609  0.00  0.00    +0.000 NA
ATOM     10  N   UNL     1       7.488   5.152  15.298  0.00  0.00    +0.000 NA
ATOM     11  N   UNL     1       6.855   5.412  16.458  0.00  0.00    +0.000 N 
BRANCH  11  12
ATOM     12  C   UNL     1       7.480   6.293  17.430  0.00  0.00    +0.000 C 
ATOM     13  C   UNL     1       6.776   7.652  17.461  0.00  0.00    +0.000 C 
ATOM     14  C   UNL     1       7.528   5.707  18.846  0.00  0.00    +0.000 C 
ENDBRANCH  11  12
ENDBRANCH   4   7
BRANCH   1  16
ATOM     15  C   UNL     1       1.410   3.375  21.001  0.00  0.00    +0.000 C 
ATOM     16  O   UNL     1       1.747   4.698  20.599  0.00  0.00    +0.000 OA
ENDBRANCH   1  16
TORSDOF 3
ENDMDL
