MODEL 1
REMARK VINA RESULT:      -8.4      0.000      0.000
REMARK  Name = 
REMARK  6 active torsions:
REMARK  status: ('A' for Active; 'I' for Inactive)
REMARK    1  A    between atoms: C_1  and  C_2
REMARK    2  A    between atoms: C_2  and  C_3
REMARK    3  A    between atoms: C_3  and  C_4
REMARK    4  A    between atoms: C_4  and  O_5
REMARK    5  A    between atoms: O_5  and  C_6
REMARK    6  A    between atoms: C_6  and  C_8
REMARK                            x       y       z     vdW  Elec       q    Type
REMARK                         _______ _______ _______ _____ _____    ______ ____
ROOT
ATOM      1  C   UNL     1       6.055   5.197  15.590  0.00  0.00    +0.000 A 
ATOM      2  C   UNL     1       4.913   4.471  15.920  0.00  0.00    +0.000 A 
ATOM      3  C   UNL     1       4.311   4.771  17.154  0.00  0.00    +0.000 A 
ATOM      4  C   UNL     1       4.890   5.765  17.943  0.00  0.00    +0.000 A 
ATOM      5  C   UNL     1       6.019   6.464  17.555  0.00  0.00    +0.000 A 
ATOM      6  N   UNL     1       6.600   6.166  16.378  0.00  0.00    +0.000 NA
ATOM      7  N   UNL     1       4.137   5.871  19.087  0.00  0.00    +0.000 N 
ATOM      8  C   UNL     1       3.096   4.975  19.075  0.00  0.00    +0.000 A 
ATOM      9  C   UNL     1       2.103   4.747  20.034  0.00  0.00    +0.000 A 
ATOM     10  C   UNL     1       1.162   3.752  19.763  0.00  0.00    +0.000 A 
ATOM     11  C   UNL     1       1.220   3.014  18.584  0.00  0.00    +0.000 A 
ATOM     12  C   UNL     1       2.220   3.259  17.633  0.00  0.00    +0.000 A 
ATOM     13  C   UNL     1       3.181   4.262  17.880  0.00  0.00    +0.000 A 
ATOM     14  H   UNL     1       4.325   6.514  19.841  0.00  0.00    +0.000 HD
ENDROOT
BRANCH   1  15
ATOM     15  C   UNL     1       6.835   4.811  14.368  0.00  0.00    +0.000 C 
ATOM     16  O   UNL     1       7.768   5.453  13.913  0.00  0.00    +0.000 OA
BRANCH  15  17
ATOM     17  O   UNL     1       6.261   3.731  13.776  0.00  0.00    +0.000 OA
BRANCH  17  18
ATOM     18  C   UNL     1       6.607   3.574  12.400  0.00  0.00    +0.000 C 
BRANCH  18  19
ATOM     19  C   UNL     1       5.573   2.739  11.655  0.00  0.00    +0.000 C 
BRANCH  19  21
ATOM     20  C   UNL     1       3.473   3.415  10.417  0.00  0.00    +0.000 C 
ATOM     21  C   UNL     1       4.193   3.394  11.754  0.00  0.00    +0.000 C 
ENDBRANCH  19  21
ENDBRANCH  18  19
ENDBRANCH  17  18
ENDBRANCH  15  17
ENDBRANCH   1  15
TORSDOF 5
ENDMDL
MODEL 2
REMARK VINA RESULT:      -8.3      1.027      1.027
REMARK  Name = 
REMARK  6 active torsions:
REMARK  status: ('A' for Active; 'I' for Inactive)
REMARK    1  A    between atoms: C_1  and  C_2
REMARK    2  A    between atoms: C_2  and  C_3
REMARK    3  A    between atoms: C_3  and  C_4
REMARK    4  A    between atoms: C_4  and  O_5
REMARK    5  A    between atoms: O_5  and  C_6
REMARK    6  A    between atoms: C_6  and  C_8
REMARK                            x       y       z     vdW  Elec       q    Type
REMARK                         _______ _______ _______ _____ _____    ______ ____
ROOT
ATOM      1  C   UNL     1       6.521   4.602  15.603  0.00  0.00    +0.000 A 
ATOM      2  C   UNL     1       5.167   4.437  15.883  0.00  0.00    +0.000 A 
ATOM      3  C   UNL     1       4.812   4.334  17.240  0.00  0.00    +0.000 A 
ATOM      4  C   UNL     1       5.828   4.412  18.191  0.00  0.00    +0.000 A 
ATOM      5  C   UNL     1       7.157   4.591  17.853  0.00  0.00    +0.000 A 
ATOM      6  N   UNL     1       7.495   4.677  16.553  0.00  0.00    +0.000 NA
ATOM      7  N   UNL     1       5.242   4.282  19.427  0.00  0.00    +0.000 N 
ATOM      8  C   UNL     1       3.885   4.110  19.313  0.00  0.00    +0.000 A 
ATOM      9  C   UNL     1       2.919   3.936  20.310  0.00  0.00    +0.000 A 
ATOM     10  C   UNL     1       1.593   3.773  19.903  0.00  0.00    +0.000 A 
ATOM     11  C   UNL     1       1.254   3.778  18.552  0.00  0.00    +0.000 A 
ATOM     12  C   UNL     1       2.235   3.958  17.567  0.00  0.00    +0.000 A 
ATOM     13  C   UNL     1       3.582   4.130  17.952  0.00  0.00    +0.000 A 
ATOM     14  H   UNL     1       5.741   4.299  20.304  0.00  0.00    +0.000 HD
ENDROOT
BRANCH   1  15
ATOM     15  C   UNL     1       6.980   4.552  14.176  0.00  0.00    +0.000 C 
ATOM     16  O   UNL     1       7.727   5.369  13.661  0.00  0.00    +0.000 OA
BRANCH  15  17
ATOM     17  O   UNL     1       6.334   3.553  13.518  0.00  0.00    +0.000 OA
BRANCH  17  18
ATOM     18  C   UNL     1       6.253   3.750  12.107  0.00  0.00    +0.000 C 
BRANCH  18  19
ATOM     19  C   UNL     1       5.395   2.680  11.442  0.00  0.00    +0.000 C 
BRANCH  19  21
ATOM     20  C   UNL     1       3.545   3.848  10.172  0.00  0.00    +0.000 C 
ATOM     21  C   UNL     1       3.925   3.106  11.441  0.00  0.00    +0.000 C 
ENDBRANCH  19  21
ENDBRANCH  18  19
ENDBRANCH  17  18
ENDBRANCH  15  17
ENDBRANCH   1  15
TORSDOF 5
ENDMDL
MODEL 3
REMARK VINA RESULT:      -8.2      0.773      1.160
REMARK  Name = 
REMARK  6 active torsions:
REMARK  status: ('A' for Active; 'I' for Inactive)
REMARK    1  A    between atoms: C_1  and  C_2
REMARK    2  A    between atoms: C_2  and  C_3
REMARK    3  A    between atoms: C_3  and  C_4
REMARK    4  A    between atoms: C_4  and  O_5
REMARK    5  A    between atoms: O_5  and  C_6
REMARK    6  A    between atoms: C_6  and  C_8
REMARK                            x       y       z     vdW  Elec       q    Type
REMARK                         _______ _______ _______ _____ _____    ______ ____
ROOT
ATOM      1  C   UNL     1       6.238   5.111  16.033  0.00  0.00    +0.000 A 
ATOM      2  C   UNL     1       4.972   4.572  16.252  0.00  0.00    +0.000 A 
ATOM      3  C   UNL     1       4.425   4.750  17.534  0.00  0.00    +0.000 A 
ATOM      4  C   UNL     1       5.177   5.450  18.477  0.00  0.00    +0.000 A 
ATOM      5  C   UNL     1       6.426   5.976  18.197  0.00  0.00    +0.000 A 
ATOM      6  N   UNL     1       6.951   5.794  16.971  0.00  0.00    +0.000 NA
ATOM      7  N   UNL     1       4.445   5.488  19.639  0.00  0.00    +0.000 N 
ATOM      8  C   UNL     1       3.250   4.828  19.489  0.00  0.00    +0.000 A 
ATOM      9  C   UNL     1       2.219   4.624  20.413  0.00  0.00    +0.000 A 
ATOM     10  C   UNL     1       1.105   3.898  19.987  0.00  0.00    +0.000 A 
ATOM     11  C   UNL     1       1.033   3.393  18.692  0.00  0.00    +0.000 A 
ATOM     12  C   UNL     1       2.074   3.610  17.778  0.00  0.00    +0.000 A 
ATOM     13  C   UNL     1       3.209   4.345  18.181  0.00  0.00    +0.000 A 
ATOM     14  H   UNL     1       4.745   5.931  20.494  0.00  0.00    +0.000 HD
ENDROOT
BRANCH   1  15
ATOM     15  C   UNL     1       6.943   4.813  14.742  0.00  0.00    +0.000 C 
ATOM     16  O   UNL     1       7.860   5.478  14.287  0.00  0.00    +0.000 OA
BRANCH  15  17
ATOM     17  O   UNL     1       6.319   3.791  14.101  0.00  0.00    +0.000 OA
BRANCH  17  18
ATOM     18  C   UNL     1       6.473   3.818  12.683  0.00  0.00    +0.000 C 
BRANCH  18  19
ATOM     19  C   UNL     1       5.296   3.155  11.979  0.00  0.00    +0.000 C 
BRANCH  19  21
ATOM     20  C   UNL     1       7.193   1.735  11.095  0.00  0.00    +0.000 C 
ATOM     21  C   UNL     1       5.711   1.793  11.420  0.00  0.00    +0.000 C 
ENDBRANCH  19  21
ENDBRANCH  18  19
ENDBRANCH  17  18
ENDBRANCH  15  17
ENDBRANCH   1  15
TORSDOF 5
ENDMDL
MODEL 4
REMARK VINA RESULT:      -8.1      0.908      1.005
REMARK  Name = 
REMARK  6 active torsions:
REMARK  status: ('A' for Active; 'I' for Inactive)
REMARK    1  A    between atoms: C_1  and  C_2
REMARK    2  A    between atoms: C_2  and  C_3
REMARK    3  A    between atoms: C_3  and  C_4
REMARK    4  A    between atoms: C_4  and  O_5
REMARK    5  A    between atoms: O_5  and  C_6
REMARK    6  A    between atoms: C_6  and  C_8
REMARK                            x       y       z     vdW  Elec       q    Type
REMARK                         _______ _______ _______ _____ _____    ______ ____
ROOT
ATOM      1  C   UNL     1       6.045   4.944  16.519  0.00  0.00    +0.000 A 
ATOM      2  C   UNL     1       4.818   4.300  16.658  0.00  0.00    +0.000 A 
ATOM      3  C   UNL     1       4.179   4.423  17.904  0.00  0.00    +0.000 A 
ATOM      4  C   UNL     1       4.810   5.179  18.893  0.00  0.00    +0.000 A 
ATOM      5  C   UNL     1       6.024   5.809  18.692  0.00  0.00    +0.000 A 
ATOM      6  N   UNL     1       6.639   5.678  17.501  0.00  0.00    +0.000 NA
ATOM      7  N   UNL     1       4.006   5.149  20.007  0.00  0.00    +0.000 N 
ATOM      8  C   UNL     1       2.882   4.392  19.782  0.00  0.00    +0.000 A 
ATOM      9  C   UNL     1       1.816   4.098  20.640  0.00  0.00    +0.000 A 
ATOM     10  C   UNL     1       0.796   3.283  20.145  0.00  0.00    +0.000 A 
ATOM     11  C   UNL     1       0.847   2.781  18.847  0.00  0.00    +0.000 A 
ATOM     12  C   UNL     1       1.921   3.090  18.001  0.00  0.00    +0.000 A 
ATOM     13  C   UNL     1       2.963   3.915  18.474  0.00  0.00    +0.000 A 
ATOM     14  H   UNL     1       4.214   5.611  20.879  0.00  0.00    +0.000 HD
ENDROOT
BRANCH   1  15
ATOM     15  C   UNL     1       6.851   4.713  15.275  0.00  0.00    +0.000 C 
ATOM     16  O   UNL     1       7.737   5.453  14.879  0.00  0.00    +0.000 OA
BRANCH  15  17
ATOM     17  O   UNL     1       6.355   3.647  14.595  0.00  0.00    +0.000 OA
BRANCH  17  18
ATOM     18  C   UNL     1       5.709   3.993  13.371  0.00  0.00    +0.000 C 
BRANCH  18  19
ATOM     19  C   UNL     1       6.352   3.291  12.181  0.00  0.00    +0.000 C 
BRANCH  19  21
ATOM     20  C   UNL     1       4.041   3.162  11.160  0.00  0.00    +0.000 C 
ATOM     21  C   UNL     1       5.325   2.411  11.466  0.00  0.00    +0.000 C 
ENDBRANCH  19  21
ENDBRANCH  18  19
ENDBRANCH  17  18
ENDBRANCH  15  17
ENDBRANCH   1  15
TORSDOF 5
ENDMDL
MODEL 5
REMARK VINA RESULT:      -7.8      1.151      1.333
REMARK  Name = 
REMARK  6 active torsions:
REMARK  status: ('A' for Active; 'I' for Inactive)
REMARK    1  A    between atoms: C_1  and  C_2
REMARK    2  A    between atoms: C_2  and  C_3
REMARK    3  A    between atoms: C_3  and  C_4
REMARK    4  A    between atoms: C_4  and  O_5
REMARK    5  A    between atoms: O_5  and  C_6
REMARK    6  A    between atoms: C_6  and  C_8
REMARK                            x       y       z     vdW  Elec       q    Type
REMARK                         _______ _______ _______ _____ _____    ______ ____
ROOT
ATOM      1  C   UNL     1       5.609   5.156  15.908  0.00  0.00    +0.000 A 
ATOM      2  C   UNL     1       4.827   4.166  16.499  0.00  0.00    +0.000 A 
ATOM      3  C   UNL     1       3.932   4.585  17.500  0.00  0.00    +0.000 A 
ATOM      4  C   UNL     1       3.889   5.943  17.816  0.00  0.00    +0.000 A 
ATOM      5  C   UNL     1       4.682   6.883  17.183  0.00  0.00    +0.000 A 
ATOM      6  N   UNL     1       5.546   6.477  16.234  0.00  0.00    +0.000 NA
ATOM      7  N   UNL     1       2.956   6.102  18.811  0.00  0.00    +0.000 N 
ATOM      8  C   UNL     1       2.400   4.896  19.161  0.00  0.00    +0.000 A 
ATOM      9  C   UNL     1       1.425   4.608  20.124  0.00  0.00    +0.000 A 
ATOM     10  C   UNL     1       1.047   3.273  20.278  0.00  0.00    +0.000 A 
ATOM     11  C   UNL     1       1.627   2.271  19.504  0.00  0.00    +0.000 A 
ATOM     12  C   UNL     1       2.599   2.579  18.543  0.00  0.00    +0.000 A 
ATOM     13  C   UNL     1       2.996   3.921  18.363  0.00  0.00    +0.000 A 
ATOM     14  H   UNL     1       2.715   6.984  19.237  0.00  0.00    +0.000 HD
ENDROOT
BRANCH   1  15
ATOM     15  C   UNL     1       6.696   4.752  14.956  0.00  0.00    +0.000 C 
ATOM     16  O   UNL     1       7.715   5.394  14.758  0.00  0.00    +0.000 OA
BRANCH  15  17
ATOM     17  O   UNL     1       6.311   3.653  14.256  0.00  0.00    +0.000 OA
BRANCH  17  18
ATOM     18  C   UNL     1       5.917   3.933  12.913  0.00  0.00    +0.000 C 
BRANCH  18  19
ATOM     19  C   UNL     1       6.592   2.990  11.924  0.00  0.00    +0.000 C 
BRANCH  19  21
ATOM     20  C   UNL     1       6.299   0.638  11.042  0.00  0.00    +0.000 C 
ATOM     21  C   UNL     1       5.603   1.924  11.448  0.00  0.00    +0.000 C 
ENDBRANCH  19  21
ENDBRANCH  18  19
ENDBRANCH  17  18
ENDBRANCH  15  17
ENDBRANCH   1  15
TORSDOF 5
ENDMDL
MODEL 6
REMARK VINA RESULT:      -7.8      1.278      1.449
REMARK  Name = 
REMARK  6 active torsions:
REMARK  status: ('A' for Active; 'I' for Inactive)
REMARK    1  A    between atoms: C_1  and  C_2
REMARK    2  A    between atoms: C_2  and  C_3
REMARK    3  A    between atoms: C_3  and  C_4
REMARK    4  A    between atoms: C_4  and  O_5
REMARK    5  A    between atoms: O_5  and  C_6
REMARK    6  A    between atoms: C_6  and  C_8
REMARK                            x       y       z     vdW  Elec       q    Type
REMARK                         _______ _______ _______ _____ _____    ______ ____
ROOT
ATOM      1  C   UNL     1       5.600   5.117  16.428  0.00  0.00    +0.000 A 
ATOM      2  C   UNL     1       4.965   4.148  17.201  0.00  0.00    +0.000 A 
ATOM      3  C   UNL     1       3.906   4.586  18.016  0.00  0.00    +0.000 A 
ATOM      4  C   UNL     1       3.569   5.939  17.983  0.00  0.00    +0.000 A 
ATOM      5  C   UNL     1       4.228   6.855  17.183  0.00  0.00    +0.000 A 
ATOM      6  N   UNL     1       5.249   6.434  16.413  0.00  0.00    +0.000 NA
ATOM      7  N   UNL     1       2.523   6.122  18.855  0.00  0.00    +0.000 N 
ATOM      8  C   UNL     1       2.176   4.940  19.461  0.00  0.00    +0.000 A 
ATOM      9  C   UNL     1       1.179   4.680  20.409  0.00  0.00    +0.000 A 
ATOM     10  C   UNL     1       1.051   3.368  20.867  0.00  0.00    +0.000 A 
ATOM     11  C   UNL     1       1.891   2.361  20.399  0.00  0.00    +0.000 A 
ATOM     12  C   UNL     1       2.882   2.639  19.447  0.00  0.00    +0.000 A 
ATOM     13  C   UNL     1       3.029   3.956  18.963  0.00  0.00    +0.000 A 
ATOM     14  H   UNL     1       2.074   7.007  19.036  0.00  0.00    +0.000 HD
ENDROOT
BRANCH   1  15
ATOM     15  C   UNL     1       6.838   4.745  15.667  0.00  0.00    +0.000 C 
ATOM     16  O   UNL     1       7.922   4.519  16.181  0.00  0.00    +0.000 OA
BRANCH  15  17
ATOM     17  O   UNL     1       6.603   4.836  14.332  0.00  0.00    +0.000 OA
BRANCH  17  18
ATOM     18  C   UNL     1       6.160   3.615  13.740  0.00  0.00    +0.000 C 
BRANCH  18  19
ATOM     19  C   UNL     1       6.186   3.691  12.218  0.00  0.00    +0.000 C 
BRANCH  19  21
ATOM     20  C   UNL     1       3.973   3.181  11.103  0.00  0.00    +0.000 C 
ATOM     21  C   UNL     1       5.282   2.611  11.618  0.00  0.00    +0.000 C 
ENDBRANCH  19  21
ENDBRANCH  18  19
ENDBRANCH  17  18
ENDBRANCH  15  17
ENDBRANCH   1  15
TORSDOF 5
ENDMDL
MODEL 7
REMARK VINA RESULT:      -7.6      1.587      2.199
REMARK  Name = 
REMARK  6 active torsions:
REMARK  status: ('A' for Active; 'I' for Inactive)
REMARK    1  A    between atoms: C_1  and  C_2
REMARK    2  A    between atoms: C_2  and  C_3
REMARK    3  A    between atoms: C_3  and  C_4
REMARK    4  A    between atoms: C_4  and  O_5
REMARK    5  A    between atoms: O_5  and  C_6
REMARK    6  A    between atoms: C_6  and  C_8
REMARK                            x       y       z     vdW  Elec       q    Type
REMARK                         _______ _______ _______ _____ _____    ______ ____
ROOT
ATOM      1  C   UNL     1       5.726   5.920  17.171  0.00  0.00    +0.000 A 
ATOM      2  C   UNL     1       5.333   4.864  17.989  0.00  0.00    +0.000 A 
ATOM      3  C   UNL     1       4.069   4.972  18.594  0.00  0.00    +0.000 A 
ATOM      4  C   UNL     1       3.309   6.110  18.327  0.00  0.00    +0.000 A 
ATOM      5  C   UNL     1       3.746   7.122  17.491  0.00  0.00    +0.000 A 
ATOM      6  N   UNL     1       4.962   7.021  16.923  0.00  0.00    +0.000 NA
ATOM      7  N   UNL     1       2.132   5.991  19.026  0.00  0.00    +0.000 N 
ATOM      8  C   UNL     1       2.105   4.822  19.747  0.00  0.00    +0.000 A 
ATOM      9  C   UNL     1       1.110   4.316  20.590  0.00  0.00    +0.000 A 
ATOM     10  C   UNL     1       1.354   3.090  21.212  0.00  0.00    +0.000 A 
ATOM     11  C   UNL     1       2.549   2.406  21.001  0.00  0.00    +0.000 A 
ATOM     12  C   UNL     1       3.533   2.928  20.150  0.00  0.00    +0.000 A 
ATOM     13  C   UNL     1       3.309   4.162  19.505  0.00  0.00    +0.000 A 
ATOM     14  H   UNL     1       1.389   6.673  19.021  0.00  0.00    +0.000 HD
ENDROOT
BRANCH   1  15
ATOM     15  C   UNL     1       7.126   5.941  16.631  0.00  0.00    +0.000 C 
ATOM     16  O   UNL     1       7.908   6.867  16.776  0.00  0.00    +0.000 OA
BRANCH  15  17
ATOM     17  O   UNL     1       7.335   4.850  15.850  0.00  0.00    +0.000 OA
BRANCH  17  18
ATOM     18  C   UNL     1       6.853   4.995  14.514  0.00  0.00    +0.000 C 
BRANCH  18  19
ATOM     19  C   UNL     1       6.032   3.787  14.081  0.00  0.00    +0.000 C 
BRANCH  19  21
ATOM     20  C   UNL     1       4.949   3.275  11.853  0.00  0.00    +0.000 C 
ATOM     21  C   UNL     1       6.255   3.499  12.595  0.00  0.00    +0.000 C 
ENDBRANCH  19  21
ENDBRANCH  18  19
ENDBRANCH  17  18
ENDBRANCH  15  17
ENDBRANCH   1  15
TORSDOF 5
ENDMDL
MODEL 8
REMARK VINA RESULT:      -7.6      2.136      2.750
REMARK  Name = 
REMARK  6 active torsions:
REMARK  status: ('A' for Active; 'I' for Inactive)
REMARK    1  A    between atoms: C_1  and  C_2
REMARK    2  A    between atoms: C_2  and  C_3
REMARK    3  A    between atoms: C_3  and  C_4
REMARK    4  A    between atoms: C_4  and  O_5
REMARK    5  A    between atoms: O_5  and  C_6
REMARK    6  A    between atoms: C_6  and  C_8
REMARK                            x       y       z     vdW  Elec       q    Type
REMARK                         _______ _______ _______ _____ _____    ______ ____
ROOT
ATOM      1  C   UNL     1       5.949   5.175  16.837  0.00  0.00    +0.000 A 
ATOM      2  C   UNL     1       5.078   6.262  16.810  0.00  0.00    +0.000 A 
ATOM      3  C   UNL     1       4.233   6.421  17.922  0.00  0.00    +0.000 A 
ATOM      4  C   UNL     1       4.335   5.495  18.961  0.00  0.00    +0.000 A 
ATOM      5  C   UNL     1       5.232   4.442  18.939  0.00  0.00    +0.000 A 
ATOM      6  N   UNL     1       6.031   4.287  17.867  0.00  0.00    +0.000 NA
ATOM      7  N   UNL     1       3.418   5.853  19.919  0.00  0.00    +0.000 N 
ATOM      8  C   UNL     1       2.716   6.969  19.536  0.00  0.00    +0.000 A 
ATOM      9  C   UNL     1       1.696   7.656  20.204  0.00  0.00    +0.000 A 
ATOM     10  C   UNL     1       1.146   8.770  19.568  0.00  0.00    +0.000 A 
ATOM     11  C   UNL     1       1.595   9.173  18.313  0.00  0.00    +0.000 A 
ATOM     12  C   UNL     1       2.620   8.474  17.660  0.00  0.00    +0.000 A 
ATOM     13  C   UNL     1       3.197   7.347  18.283  0.00  0.00    +0.000 A 
ATOM     14  H   UNL     1       3.270   5.358  20.786  0.00  0.00    +0.000 HD
ENDROOT
BRANCH   1  15
ATOM     15  C   UNL     1       6.755   4.858  15.612  0.00  0.00    +0.000 C 
ATOM     16  O   UNL     1       7.637   5.571  15.162  0.00  0.00    +0.000 OA
BRANCH  15  17
ATOM     17  O   UNL     1       6.263   3.742  15.014  0.00  0.00    +0.000 OA
BRANCH  17  18
ATOM     18  C   UNL     1       5.503   4.006  13.835  0.00  0.00    +0.000 C 
BRANCH  18  19
ATOM     19  C   UNL     1       6.264   3.603  12.577  0.00  0.00    +0.000 C 
BRANCH  19  21
ATOM     20  C   UNL     1       4.152   3.202  11.244  0.00  0.00    +0.000 C 
ATOM     21  C   UNL     1       5.445   2.599  11.762  0.00  0.00    +0.000 C 
ENDBRANCH  19  21
ENDBRANCH  18  19
ENDBRANCH  17  18
ENDBRANCH  15  17
ENDBRANCH   1  15
TORSDOF 5
ENDMDL
MODEL 9
REMARK VINA RESULT:      -7.6      2.557      6.525
REMARK  Name = 
REMARK  6 active torsions:
REMARK  status: ('A' for Active; 'I' for Inactive)
REMARK    1  A    between atoms: C_1  and  C_2
REMARK    2  A    between atoms: C_2  and  C_3
REMARK    3  A    between atoms: C_3  and  C_4
REMARK    4  A    between atoms: C_4  and  O_5
REMARK    5  A    between atoms: O_5  and  C_6
REMARK    6  A    between atoms: C_6  and  C_8
REMARK                            x       y       z     vdW  Elec       q    Type
REMARK                         _______ _______ _______ _____ _____    ______ ____
ROOT
ATOM      1  C   UNL     1       5.414   4.341  18.237  0.00  0.00    +0.000 A 
ATOM      2  C   UNL     1       5.242   3.828  16.953  0.00  0.00    +0.000 A 
ATOM      3  C   UNL     1       6.071   4.355  15.948  0.00  0.00    +0.000 A 
ATOM      4  C   UNL     1       6.998   5.333  16.308  0.00  0.00    +0.000 A 
ATOM      5  C   UNL     1       7.134   5.794  17.605  0.00  0.00    +0.000 A 
ATOM      6  N   UNL     1       6.330   5.295  18.563  0.00  0.00    +0.000 NA
ATOM      7  N   UNL     1       7.679   5.690  15.169  0.00  0.00    +0.000 N 
ATOM      8  C   UNL     1       7.220   4.989  14.081  0.00  0.00    +0.000 A 
ATOM      9  C   UNL     1       7.628   5.048  12.744  0.00  0.00    +0.000 A 
ATOM     10  C   UNL     1       6.972   4.217  11.833  0.00  0.00    +0.000 A 
ATOM     11  C   UNL     1       5.947   3.370  12.246  0.00  0.00    +0.000 A 
ATOM     12  C   UNL     1       5.555   3.322  13.591  0.00  0.00    +0.000 A 
ATOM     13  C   UNL     1       6.205   4.147  14.534  0.00  0.00    +0.000 A 
ATOM     14  H   UNL     1       8.412   6.383  15.131  0.00  0.00    +0.000 HD
ENDROOT
BRANCH   1  15
ATOM     15  C   UNL     1       4.451   3.941  19.316  0.00  0.00    +0.000 C 
ATOM     16  O   UNL     1       4.288   2.796  19.706  0.00  0.00    +0.000 OA
BRANCH  15  17
ATOM     17  O   UNL     1       3.700   5.012  19.684  0.00  0.00    +0.000 OA
BRANCH  17  18
ATOM     18  C   UNL     1       2.345   4.947  19.240  0.00  0.00    +0.000 C 
BRANCH  18  19
ATOM     19  C   UNL     1       1.384   4.754  20.407  0.00  0.00    +0.000 C 
BRANCH  19  21
ATOM     20  C   UNL     1       0.798   2.678  19.087  0.00  0.00    +0.000 C 
ATOM     21  C   UNL     1       0.908   3.301  20.467  0.00  0.00    +0.000 C 
ENDBRANCH  19  21
ENDBRANCH  18  19
ENDBRANCH  17  18
ENDBRANCH  15  17
ENDBRANCH   1  15
TORSDOF 5
ENDMDL
