MODEL 1
REMARK VINA RESULT:      -6.7      0.000      0.000
REMARK  Name = 
REMARK  8 active torsions:
REMARK  status: ('A' for Active; 'I' for Inactive)
REMARK    1  A    between atoms: C_1  and  C_2
REMARK    2  A    between atoms: C_2  and  C_3
REMARK    3  A    between atoms: C_2  and  O_4
REMARK    4  A    between atoms: O_4  and  C_5
REMARK    5  A    between atoms: C_5  and  C_6
REMARK    6  A    between atoms: C_10  and  C_11
REMARK    7  A    between atoms: C_12  and  O_13
REMARK    8  A    between atoms: C_12  and  C_14
REMARK                            x       y       z     vdW  Elec       q    Type
REMARK                         _______ _______ _______ _____ _____    ______ ____
ROOT
ATOM      1  C   UNL     1       2.979   3.485  17.666  0.00  0.00    +0.000 C 
ATOM      2  O   UNL     1       2.975   2.258  17.544  0.00  0.00    +0.000 OA
ATOM      3  N   UNL     1       3.944   4.277  17.089  0.00  0.00    +0.000 N 
ATOM      4  C   UNL     1       4.923   3.749  16.172  0.00  0.00    +0.000 C 
ATOM      5  C   UNL     1       6.129   4.660  16.364  0.00  0.00    +0.000 C 
ATOM      6  C   UNL     1       7.063   4.600  15.164  0.00  0.00    +0.000 C 
ATOM      7  C   UNL     1       5.505   6.053  16.681  0.00  0.00    +0.000 C 
ATOM      8  C   UNL     1       4.067   5.725  17.182  0.00  0.00    +0.000 C 
ENDROOT
BRANCH   7   9
ATOM      9  C   UNL     1       6.290   6.772  17.764  0.00  0.00    +0.000 C 
ATOM     10  C   UNL     1       7.575   6.226  18.340  0.00  0.00    +0.000 C 
ATOM     11  C   UNL     1       7.605   7.472  17.499  0.00  0.00    +0.000 C 
ENDBRANCH   7   9
BRANCH   7  12
ATOM     12  O   UNL     1       5.404   6.851  15.503  0.00  0.00    +0.000 OA
ATOM     13  H   UNL     1       4.511   6.725  15.142  0.00  0.00    +0.000 HD
ENDBRANCH   7  12
BRANCH   1  14
ATOM     14  C   UNL     1       1.872   4.195  18.457  0.00  0.00    +0.000 C 
BRANCH  14  15
ATOM     15  O   UNL     1       1.140   3.364  19.349  0.00  0.00    +0.000 OA
BRANCH  15  17
ATOM     16  C   UNL     1       2.009   2.807  21.576  0.00  0.00    +0.000 C 
ATOM     17  C   UNL     1       1.197   3.777  20.721  0.00  0.00    +0.000 C 
ATOM     18  C   UNL     1       1.839   5.160  20.745  0.00  0.00    +0.000 C 
ENDBRANCH  15  17
ENDBRANCH  14  15
ENDBRANCH   1  14
TORSDOF 5
ENDMDL
MODEL 2
REMARK VINA RESULT:      -6.6      1.702      5.355
REMARK  Name = 
REMARK  8 active torsions:
REMARK  status: ('A' for Active; 'I' for Inactive)
REMARK    1  A    between atoms: C_1  and  C_2
REMARK    2  A    between atoms: C_2  and  C_3
REMARK    3  A    between atoms: C_2  and  O_4
REMARK    4  A    between atoms: O_4  and  C_5
REMARK    5  A    between atoms: C_5  and  C_6
REMARK    6  A    between atoms: C_10  and  C_11
REMARK    7  A    between atoms: C_12  and  O_13
REMARK    8  A    between atoms: C_12  and  C_14
REMARK                            x       y       z     vdW  Elec       q    Type
REMARK                         _______ _______ _______ _____ _____    ______ ____
ROOT
ATOM      1  C   UNL     1       5.676   4.287  16.260  0.00  0.00    +0.000 C 
ATOM      2  O   UNL     1       5.411   4.170  15.061  0.00  0.00    +0.000 OA
ATOM      3  N   UNL     1       4.752   4.027  17.244  0.00  0.00    +0.000 N 
ATOM      4  C   UNL     1       3.464   3.448  16.954  0.00  0.00    +0.000 C 
ATOM      5  C   UNL     1       2.564   3.994  18.057  0.00  0.00    +0.000 C 
ATOM      6  C   UNL     1       1.323   3.132  18.235  0.00  0.00    +0.000 C 
ATOM      7  C   UNL     1       3.506   4.107  19.294  0.00  0.00    +0.000 C 
ATOM      8  C   UNL     1       4.939   4.151  18.683  0.00  0.00    +0.000 C 
ENDROOT
BRANCH   7   9
ATOM      9  C   UNL     1       3.228   5.376  20.081  0.00  0.00    +0.000 C 
ATOM     10  C   UNL     1       2.515   6.567  19.486  0.00  0.00    +0.000 C 
ATOM     11  C   UNL     1       1.847   5.759  20.563  0.00  0.00    +0.000 C 
ENDBRANCH   7   9
BRANCH   7  12
ATOM     12  O   UNL     1       3.403   2.954  20.126  0.00  0.00    +0.000 OA
ATOM     13  H   UNL     1       2.509   2.591  20.010  0.00  0.00    +0.000 HD
ENDBRANCH   7  12
BRANCH   1  14
ATOM     14  C   UNL     1       7.081   4.706  16.712  0.00  0.00    +0.000 C 
BRANCH  14  15
ATOM     15  O   UNL     1       7.369   6.093  16.580  0.00  0.00    +0.000 OA
BRANCH  15  17
ATOM     16  C   UNL     1       7.946   6.154  18.965  0.00  0.00    +0.000 C 
ATOM     17  C   UNL     1       7.241   6.840  17.798  0.00  0.00    +0.000 C 
ATOM     18  C   UNL     1       7.857   8.212  17.547  0.00  0.00    +0.000 C 
ENDBRANCH  15  17
ENDBRANCH  14  15
ENDBRANCH   1  14
TORSDOF 5
ENDMDL
MODEL 3
REMARK VINA RESULT:      -6.6      1.767      2.887
REMARK  Name = 
REMARK  8 active torsions:
REMARK  status: ('A' for Active; 'I' for Inactive)
REMARK    1  A    between atoms: C_1  and  C_2
REMARK    2  A    between atoms: C_2  and  C_3
REMARK    3  A    between atoms: C_2  and  O_4
REMARK    4  A    between atoms: O_4  and  C_5
REMARK    5  A    between atoms: C_5  and  C_6
REMARK    6  A    between atoms: C_10  and  C_11
REMARK    7  A    between atoms: C_12  and  O_13
REMARK    8  A    between atoms: C_12  and  C_14
REMARK                            x       y       z     vdW  Elec       q    Type
REMARK                         _______ _______ _______ _____ _____    ______ ____
ROOT
ATOM      1  C   UNL     1       2.696   5.686  18.056  0.00  0.00    +0.000 C 
ATOM      2  O   UNL     1       2.209   6.808  18.210  0.00  0.00    +0.000 OA
ATOM      3  N   UNL     1       4.040   5.493  17.835  0.00  0.00    +0.000 N 
ATOM      4  C   UNL     1       4.995   6.569  17.926  0.00  0.00    +0.000 C 
ATOM      5  C   UNL     1       6.097   6.159  16.958  0.00  0.00    +0.000 C 
ATOM      6  C   UNL     1       7.403   6.876  17.271  0.00  0.00    +0.000 C 
ATOM      7  C   UNL     1       6.127   4.604  17.053  0.00  0.00    +0.000 C 
ATOM      8  C   UNL     1       4.724   4.226  17.616  0.00  0.00    +0.000 C 
ENDROOT
BRANCH   7   9
ATOM      9  C   UNL     1       6.334   3.974  15.687  0.00  0.00    +0.000 C 
ATOM     10  C   UNL     1       5.550   4.394  14.466  0.00  0.00    +0.000 C 
ATOM     11  C   UNL     1       7.021   4.691  14.546  0.00  0.00    +0.000 C 
ENDBRANCH   7   9
BRANCH   7  12
ATOM     12  O   UNL     1       7.120   4.164  17.977  0.00  0.00    +0.000 OA
ATOM     13  H   UNL     1       7.521   3.358  17.612  0.00  0.00    +0.000 HD
ENDBRANCH   7  12
BRANCH   1  14
ATOM     14  C   UNL     1       1.814   4.433  18.136  0.00  0.00    +0.000 C 
BRANCH  14  15
ATOM     15  O   UNL     1       1.189   4.214  19.394  0.00  0.00    +0.000 OA
BRANCH  15  17
ATOM     16  C   UNL     1       2.089   1.961  19.019  0.00  0.00    +0.000 C 
ATOM     17  C   UNL     1       1.085   2.833  19.768  0.00  0.00    +0.000 C 
ATOM     18  C   UNL     1       1.342   2.756  21.269  0.00  0.00    +0.000 C 
ENDBRANCH  15  17
ENDBRANCH  14  15
ENDBRANCH   1  14
TORSDOF 5
ENDMDL
MODEL 4
REMARK VINA RESULT:      -6.5      1.667      2.915
REMARK  Name = 
REMARK  8 active torsions:
REMARK  status: ('A' for Active; 'I' for Inactive)
REMARK    1  A    between atoms: C_1  and  C_2
REMARK    2  A    between atoms: C_2  and  C_3
REMARK    3  A    between atoms: C_2  and  O_4
REMARK    4  A    between atoms: O_4  and  C_5
REMARK    5  A    between atoms: C_5  and  C_6
REMARK    6  A    between atoms: C_10  and  C_11
REMARK    7  A    between atoms: C_12  and  O_13
REMARK    8  A    between atoms: C_12  and  C_14
REMARK                            x       y       z     vdW  Elec       q    Type
REMARK                         _______ _______ _______ _____ _____    ______ ____
ROOT
ATOM      1  C   UNL     1       3.691   4.670  18.829  0.00  0.00    +0.000 C 
ATOM      2  O   UNL     1       3.245   5.445  19.678  0.00  0.00    +0.000 OA
ATOM      3  N   UNL     1       4.849   4.928  18.135  0.00  0.00    +0.000 N 
ATOM      4  C   UNL     1       5.707   6.040  18.461  0.00  0.00    +0.000 C 
ATOM      5  C   UNL     1       6.364   6.393  17.131  0.00  0.00    +0.000 C 
ATOM      6  C   UNL     1       7.650   7.181  17.342  0.00  0.00    +0.000 C 
ATOM      7  C   UNL     1       6.508   5.023  16.403  0.00  0.00    +0.000 C 
ATOM      8  C   UNL     1       5.457   4.106  17.099  0.00  0.00    +0.000 C 
ENDROOT
BRANCH   7   9
ATOM      9  C   UNL     1       6.198   5.153  14.922  0.00  0.00    +0.000 C 
ATOM     10  C   UNL     1       7.237   4.934  13.848  0.00  0.00    +0.000 C 
ATOM     11  C   UNL     1       6.099   3.962  13.995  0.00  0.00    +0.000 C 
ENDBRANCH   7   9
BRANCH   7  12
ATOM     12  O   UNL     1       7.804   4.465  16.609  0.00  0.00    +0.000 OA
ATOM     13  H   UNL     1       8.419   4.931  16.019  0.00  0.00    +0.000 HD
ENDBRANCH   7  12
BRANCH   1  14
ATOM     14  C   UNL     1       2.974   3.347  18.527  0.00  0.00    +0.000 C 
BRANCH  14  15
ATOM     15  O   UNL     1       2.978   2.403  19.590  0.00  0.00    +0.000 OA
BRANCH  15  17
ATOM     16  C   UNL     1       1.620   2.929  21.566  0.00  0.00    +0.000 C 
ATOM     17  C   UNL     1       1.702   2.217  20.219  0.00  0.00    +0.000 C 
ATOM     18  C   UNL     1       0.649   2.775  19.267  0.00  0.00    +0.000 C 
ENDBRANCH  15  17
ENDBRANCH  14  15
ENDBRANCH   1  14
TORSDOF 5
ENDMDL
MODEL 5
REMARK VINA RESULT:      -6.4      1.129      1.509
REMARK  Name = 
REMARK  8 active torsions:
REMARK  status: ('A' for Active; 'I' for Inactive)
REMARK    1  A    between atoms: C_1  and  C_2
REMARK    2  A    between atoms: C_2  and  C_3
REMARK    3  A    between atoms: C_2  and  O_4
REMARK    4  A    between atoms: O_4  and  C_5
REMARK    5  A    between atoms: C_5  and  C_6
REMARK    6  A    between atoms: C_10  and  C_11
REMARK    7  A    between atoms: C_12  and  O_13
REMARK    8  A    between atoms: C_12  and  C_14
REMARK                            x       y       z     vdW  Elec       q    Type
REMARK                         _______ _______ _______ _____ _____    ______ ____
ROOT
ATOM      1  C   UNL     1       4.133   3.379  18.484  0.00  0.00    +0.000 C 
ATOM      2  O   UNL     1       3.880   2.189  18.285  0.00  0.00    +0.000 OA
ATOM      3  N   UNL     1       4.744   4.168  17.538  0.00  0.00    +0.000 N 
ATOM      4  C   UNL     1       4.987   3.705  16.194  0.00  0.00    +0.000 C 
ATOM      5  C   UNL     1       6.228   4.477  15.764  0.00  0.00    +0.000 C 
ATOM      6  C   UNL     1       6.353   4.522  14.247  0.00  0.00    +0.000 C 
ATOM      7  C   UNL     1       6.088   5.853  16.483  0.00  0.00    +0.000 C 
ATOM      8  C   UNL     1       5.112   5.571  17.665  0.00  0.00    +0.000 C 
ENDROOT
BRANCH   7   9
ATOM      9  C   UNL     1       7.429   6.336  17.009  0.00  0.00    +0.000 C 
ATOM     10  C   UNL     1       7.627   7.714  17.596  0.00  0.00    +0.000 C 
ATOM     11  C   UNL     1       7.722   6.505  18.483  0.00  0.00    +0.000 C 
ENDBRANCH   7   9
BRANCH   7  12
ATOM     12  O   UNL     1       5.493   6.824  15.625  0.00  0.00    +0.000 OA
ATOM     13  H   UNL     1       5.964   7.662  15.764  0.00  0.00    +0.000 HD
ENDBRANCH   7  12
BRANCH   1  14
ATOM     14  C   UNL     1       3.743   4.049  19.808  0.00  0.00    +0.000 C 
BRANCH  14  15
ATOM     15  O   UNL     1       2.938   3.257  20.672  0.00  0.00    +0.000 OA
BRANCH  15  17
ATOM     16  C   UNL     1       1.536   5.271  20.657  0.00  0.00    +0.000 C 
ATOM     17  C   UNL     1       1.610   3.761  20.869  0.00  0.00    +0.000 C 
ATOM     18  C   UNL     1       0.707   3.047  19.869  0.00  0.00    +0.000 C 
ENDBRANCH  15  17
ENDBRANCH  14  15
ENDBRANCH   1  14
TORSDOF 5
ENDMDL
MODEL 6
REMARK VINA RESULT:      -6.3      2.012      6.145
REMARK  Name = 
REMARK  8 active torsions:
REMARK  status: ('A' for Active; 'I' for Inactive)
REMARK    1  A    between atoms: C_1  and  C_2
REMARK    2  A    between atoms: C_2  and  C_3
REMARK    3  A    between atoms: C_2  and  O_4
REMARK    4  A    between atoms: O_4  and  C_5
REMARK    5  A    between atoms: C_5  and  C_6
REMARK    6  A    between atoms: C_10  and  C_11
REMARK    7  A    between atoms: C_12  and  O_13
REMARK    8  A    between atoms: C_12  and  C_14
REMARK                            x       y       z     vdW  Elec       q    Type
REMARK                         _______ _______ _______ _____ _____    ______ ____
ROOT
ATOM      1  C   UNL     1       6.709   4.655  17.796  0.00  0.00    +0.000 C 
ATOM      2  O   UNL     1       7.565   4.866  18.657  0.00  0.00    +0.000 OA
ATOM      3  N   UNL     1       5.362   4.737  18.064  0.00  0.00    +0.000 N 
ATOM      4  C   UNL     1       4.859   5.229  19.322  0.00  0.00    +0.000 C 
ATOM      5  C   UNL     1       3.530   4.502  19.490  0.00  0.00    +0.000 C 
ATOM      6  C   UNL     1       2.620   5.234  20.468  0.00  0.00    +0.000 C 
ATOM      7  C   UNL     1       2.994   4.350  18.034  0.00  0.00    +0.000 C 
ATOM      8  C   UNL     1       4.264   4.489  17.141  0.00  0.00    +0.000 C 
ENDROOT
BRANCH   7   9
ATOM      9  C   UNL     1       2.348   2.991  17.827  0.00  0.00    +0.000 C 
ATOM     10  C   UNL     1       2.477   1.865  18.825  0.00  0.00    +0.000 C 
ATOM     11  C   UNL     1       1.143   2.525  18.612  0.00  0.00    +0.000 C 
ENDBRANCH   7   9
BRANCH   7  12
ATOM     12  O   UNL     1       2.091   5.404  17.706  0.00  0.00    +0.000 OA
ATOM     13  H   UNL     1       2.484   6.234  18.024  0.00  0.00    +0.000 HD
ENDBRANCH   7  12
BRANCH   1  14
ATOM     14  C   UNL     1       7.116   4.316  16.356  0.00  0.00    +0.000 C 
BRANCH  14  15
ATOM     15  O   UNL     1       7.251   5.434  15.487  0.00  0.00    +0.000 OA
BRANCH  15  17
ATOM     16  C   UNL     1       8.009   5.287  13.157  0.00  0.00    +0.000 C 
ATOM     17  C   UNL     1       6.842   5.184  14.136  0.00  0.00    +0.000 C 
ATOM     18  C   UNL     1       6.252   3.778  14.100  0.00  0.00    +0.000 C 
ENDBRANCH  15  17
ENDBRANCH  14  15
ENDBRANCH   1  14
TORSDOF 5
ENDMDL
MODEL 7
REMARK VINA RESULT:      -6.3      2.014      5.912
REMARK  Name = 
REMARK  8 active torsions:
REMARK  status: ('A' for Active; 'I' for Inactive)
REMARK    1  A    between atoms: C_1  and  C_2
REMARK    2  A    between atoms: C_2  and  C_3
REMARK    3  A    between atoms: C_2  and  O_4
REMARK    4  A    between atoms: O_4  and  C_5
REMARK    5  A    between atoms: C_5  and  C_6
REMARK    6  A    between atoms: C_10  and  C_11
REMARK    7  A    between atoms: C_12  and  O_13
REMARK    8  A    between atoms: C_12  and  C_14
REMARK                            x       y       z     vdW  Elec       q    Type
REMARK                         _______ _______ _______ _____ _____    ______ ____
ROOT
ATOM      1  C   UNL     1       6.147   4.891  18.680  0.00  0.00    +0.000 C 
ATOM      2  O   UNL     1       6.801   5.353  19.618  0.00  0.00    +0.000 OA
ATOM      3  N   UNL     1       4.773   4.848  18.693  0.00  0.00    +0.000 N 
ATOM      4  C   UNL     1       3.996   5.483  19.728  0.00  0.00    +0.000 C 
ATOM      5  C   UNL     1       2.731   4.636  19.804  0.00  0.00    +0.000 C 
ATOM      6  C   UNL     1       1.588   5.405  20.452  0.00  0.00    +0.000 C 
ATOM      7  C   UNL     1       2.500   4.168  18.335  0.00  0.00    +0.000 C 
ATOM      8  C   UNL     1       3.898   4.309  17.662  0.00  0.00    +0.000 C 
ENDROOT
BRANCH   7   9
ATOM      9  C   UNL     1       2.033   2.724  18.286  0.00  0.00    +0.000 C 
ATOM     10  C   UNL     1       1.915   1.861  19.521  0.00  0.00    +0.000 C 
ATOM     11  C   UNL     1       0.675   2.281  18.783  0.00  0.00    +0.000 C 
ENDBRANCH   7   9
BRANCH   7  12
ATOM     12  O   UNL     1       1.583   5.027  17.660  0.00  0.00    +0.000 OA
ATOM     13  H   UNL     1       0.737   4.554  17.592  0.00  0.00    +0.000 HD
ENDBRANCH   7  12
BRANCH   1  14
ATOM     14  C   UNL     1       6.851   4.361  17.423  0.00  0.00    +0.000 C 
BRANCH  14  15
ATOM     15  O   UNL     1       7.297   5.360  16.515  0.00  0.00    +0.000 OA
BRANCH  15  17
ATOM     16  C   UNL     1       6.268   3.888  14.842  0.00  0.00    +0.000 C 
ATOM     17  C   UNL     1       6.667   5.310  15.228  0.00  0.00    +0.000 C 
ATOM     18  C   UNL     1       5.431   6.200  15.300  0.00  0.00    +0.000 C 
ENDBRANCH  15  17
ENDBRANCH  14  15
ENDBRANCH   1  14
TORSDOF 5
ENDMDL
MODEL 8
REMARK VINA RESULT:      -6.3      1.614      2.867
REMARK  Name = 
REMARK  8 active torsions:
REMARK  status: ('A' for Active; 'I' for Inactive)
REMARK    1  A    between atoms: C_1  and  C_2
REMARK    2  A    between atoms: C_2  and  C_3
REMARK    3  A    between atoms: C_2  and  O_4
REMARK    4  A    between atoms: O_4  and  C_5
REMARK    5  A    between atoms: C_5  and  C_6
REMARK    6  A    between atoms: C_10  and  C_11
REMARK    7  A    between atoms: C_12  and  O_13
REMARK    8  A    between atoms: C_12  and  C_14
REMARK                            x       y       z     vdW  Elec       q    Type
REMARK                         _______ _______ _______ _____ _____    ______ ____
ROOT
ATOM      1  C   UNL     1       2.670   5.323  18.224  0.00  0.00    +0.000 C 
ATOM      2  O   UNL     1       2.280   6.233  18.959  0.00  0.00    +0.000 OA
ATOM      3  N   UNL     1       3.954   5.276  17.733  0.00  0.00    +0.000 N 
ATOM      4  C   UNL     1       4.976   6.195  18.168  0.00  0.00    +0.000 C 
ATOM      5  C   UNL     1       5.902   6.306  16.962  0.00  0.00    +0.000 C 
ATOM      6  C   UNL     1       7.280   6.808  17.368  0.00  0.00    +0.000 C 
ATOM      7  C   UNL     1       5.849   4.890  16.312  0.00  0.00    +0.000 C 
ATOM      8  C   UNL     1       4.520   4.272  16.843  0.00  0.00    +0.000 C 
ENDROOT
BRANCH   7   9
ATOM      9  C   UNL     1       5.820   4.983  14.796  0.00  0.00    +0.000 C 
ATOM     10  C   UNL     1       7.063   4.863  13.947  0.00  0.00    +0.000 C 
ATOM     11  C   UNL     1       6.017   3.785  13.895  0.00  0.00    +0.000 C 
ENDBRANCH   7   9
BRANCH   7  12
ATOM     12  O   UNL     1       6.935   4.080  16.756  0.00  0.00    +0.000 OA
ATOM     13  H   UNL     1       7.100   4.300  17.688  0.00  0.00    +0.000 HD
ENDBRANCH   7  12
BRANCH   1  14
ATOM     14  C   UNL     1       1.733   4.170  17.843  0.00  0.00    +0.000 C 
BRANCH  14  15
ATOM     15  O   UNL     1       1.847   3.006  18.653  0.00  0.00    +0.000 OA
BRANCH  15  17
ATOM     16  C   UNL     1       1.284   2.821  21.034  0.00  0.00    +0.000 C 
ATOM     17  C   UNL     1       2.305   3.260  19.988  0.00  0.00    +0.000 C 
ATOM     18  C   UNL     1       3.606   2.485  20.169  0.00  0.00    +0.000 C 
ENDBRANCH  15  17
ENDBRANCH  14  15
ENDBRANCH   1  14
TORSDOF 5
ENDMDL
MODEL 9
REMARK VINA RESULT:      -6.2      1.506      5.482
REMARK  Name = 
REMARK  8 active torsions:
REMARK  status: ('A' for Active; 'I' for Inactive)
REMARK    1  A    between atoms: C_1  and  C_2
REMARK    2  A    between atoms: C_2  and  C_3
REMARK    3  A    between atoms: C_2  and  O_4
REMARK    4  A    between atoms: O_4  and  C_5
REMARK    5  A    between atoms: C_5  and  C_6
REMARK    6  A    between atoms: C_10  and  C_11
REMARK    7  A    between atoms: C_12  and  O_13
REMARK    8  A    between atoms: C_12  and  C_14
REMARK                            x       y       z     vdW  Elec       q    Type
REMARK                         _______ _______ _______ _____ _____    ______ ____
ROOT
ATOM      1  C   UNL     1       5.113   5.363  16.060  0.00  0.00    +0.000 C 
ATOM      2  O   UNL     1       5.391   4.867  14.966  0.00  0.00    +0.000 OA
ATOM      3  N   UNL     1       4.569   4.624  17.084  0.00  0.00    +0.000 N 
ATOM      4  C   UNL     1       4.434   3.191  17.009  0.00  0.00    +0.000 C 
ATOM      5  C   UNL     1       3.222   2.894  17.884  0.00  0.00    +0.000 C 
ATOM      6  C   UNL     1       3.213   1.442  18.342  0.00  0.00    +0.000 C 
ATOM      7  C   UNL     1       3.294   3.970  19.009  0.00  0.00    +0.000 C 
ATOM      8  C   UNL     1       4.180   5.100  18.404  0.00  0.00    +0.000 C 
ENDROOT
BRANCH   7   9
ATOM      9  C   UNL     1       1.913   4.504  19.347  0.00  0.00    +0.000 C 
ATOM     10  C   UNL     1       1.069   3.936  20.463  0.00  0.00    +0.000 C 
ATOM     11  C   UNL     1       1.629   5.325  20.585  0.00  0.00    +0.000 C 
ENDBRANCH   7   9
BRANCH   7  12
ATOM     12  O   UNL     1       3.944   3.456  20.170  0.00  0.00    +0.000 OA
ATOM     13  H   UNL     1       3.359   2.786  20.559  0.00  0.00    +0.000 HD
ENDBRANCH   7  12
BRANCH   1  14
ATOM     14  C   UNL     1       5.395   6.845  16.340  0.00  0.00    +0.000 C 
BRANCH  14  15
ATOM     15  O   UNL     1       6.768   7.178  16.505  0.00  0.00    +0.000 OA
BRANCH  15  17
ATOM     16  C   UNL     1       7.759   6.223  18.537  0.00  0.00    +0.000 C 
ATOM     17  C   UNL     1       7.150   7.448  17.860  0.00  0.00    +0.000 C 
ATOM     18  C   UNL     1       8.169   8.583  17.820  0.00  0.00    +0.000 C 
ENDBRANCH  15  17
ENDBRANCH  14  15
ENDBRANCH   1  14
TORSDOF 5
ENDMDL
