MODEL 1
REMARK VINA RESULT:      -8.4      0.000      0.000
REMARK  Name = 
REMARK  4 active torsions:
REMARK  status: ('A' for Active; 'I' for Inactive)
REMARK    1  A    between atoms: C_2  and  C_5
REMARK    2  A    between atoms: C_8  and  S_9
REMARK    3  A    between atoms: S_9  and  C_10
REMARK    4  A    between atoms: C_13  and  C_14
REMARK                            x       y       z     vdW  Elec       q    Type
REMARK                         _______ _______ _______ _____ _____    ______ ____
ROOT
ATOM      1  C   UNL     1       2.803   3.711  19.071  0.00  0.00    +0.000 A 
ATOM      2  C   UNL     1       3.902   2.935  19.397  0.00  0.00    +0.000 A 
ATOM      3  N   UNL     1       5.182   3.285  19.122  0.00  0.00    +0.000 NA
ATOM      4  C   UNL     1       5.407   4.467  18.483  0.00  0.00    +0.000 A 
ATOM      5  C   UNL     1       4.355   5.303  18.098  0.00  0.00    +0.000 A 
ATOM      6 CL   UNL     1       4.569   6.763  17.201  0.00  0.00    +0.000 Cl
ATOM      7  C   UNL     1       3.046   4.923  18.412  0.00  0.00    +0.000 A 
ENDROOT
BRANCH   1   9
ATOM      8  F   UNL     1       1.361   2.088  20.082  0.00  0.00    +0.000 F 
ATOM      9  C   UNL     1       1.411   3.263  19.396  0.00  0.00    +0.000 C 
ATOM     10  F   UNL     1       0.655   3.072  18.278  0.00  0.00    +0.000 F 
ATOM     11  F   UNL     1       0.737   4.169  20.153  0.00  0.00    +0.000 F 
ENDBRANCH   1   9
BRANCH   4  12
ATOM     12  S   UNL     1       7.115   4.754  18.058  0.00  0.00    +0.000 S 
BRANCH  12  13
ATOM     13  C   UNL     1       6.999   4.850  16.326  0.00  0.00    +0.000 A 
ATOM     14  N   UNL     1       7.510   5.791  15.559  0.00  0.00    +0.000 NA
ATOM     15  N   UNL     1       7.156   5.484  14.261  0.00  0.00    +0.000 NA
ATOM     16  C   UNL     1       6.457   4.364  14.308  0.00  0.00    +0.000 A 
ATOM     17  O   UNL     1       6.309   3.913  15.598  0.00  0.00    +0.000 OA
BRANCH  16  18
ATOM     18  C   UNL     1       5.937   3.688  13.158  0.00  0.00    +0.000 A 
ATOM     19  C   UNL     1       6.587   2.804  12.310  0.00  0.00    +0.000 A 
ATOM     20  C   UNL     1       5.649   2.378  11.339  0.00  0.00    +0.000 A 
ATOM     21  C   UNL     1       4.479   3.030  11.637  0.00  0.00    +0.000 A 
ATOM     22  O   UNL     1       4.638   3.822  12.729  0.00  0.00    +0.000 OA
ENDBRANCH  16  18
ENDBRANCH  12  13
ENDBRANCH   4  12
TORSDOF 4
ENDMDL
MODEL 2
REMARK VINA RESULT:      -8.3      0.630      1.035
REMARK  Name = 
REMARK  4 active torsions:
REMARK  status: ('A' for Active; 'I' for Inactive)
REMARK    1  A    between atoms: C_2  and  C_5
REMARK    2  A    between atoms: C_8  and  S_9
REMARK    3  A    between atoms: S_9  and  C_10
REMARK    4  A    between atoms: C_13  and  C_14
REMARK                            x       y       z     vdW  Elec       q    Type
REMARK                         _______ _______ _______ _____ _____    ______ ____
ROOT
ATOM      1  C   UNL     1       2.904   3.557  19.062  0.00  0.00    +0.000 A 
ATOM      2  C   UNL     1       4.031   2.804  19.349  0.00  0.00    +0.000 A 
ATOM      3  N   UNL     1       5.296   3.202  19.068  0.00  0.00    +0.000 NA
ATOM      4  C   UNL     1       5.477   4.410  18.465  0.00  0.00    +0.000 A 
ATOM      5  C   UNL     1       4.394   5.225  18.121  0.00  0.00    +0.000 A 
ATOM      6 CL   UNL     1       4.551   6.720  17.269  0.00  0.00    +0.000 Cl
ATOM      7  C   UNL     1       3.102   4.796  18.440  0.00  0.00    +0.000 A 
ENDROOT
BRANCH   1   9
ATOM      8  F   UNL     1       1.001   2.246  18.433  0.00  0.00    +0.000 F 
ATOM      9  C   UNL     1       1.531   3.056  19.391  0.00  0.00    +0.000 C 
ATOM     10  F   UNL     1       0.637   4.070  19.556  0.00  0.00    +0.000 F 
ATOM     11  F   UNL     1       1.502   2.340  20.547  0.00  0.00    +0.000 F 
ENDBRANCH   1   9
BRANCH   4  12
ATOM     12  S   UNL     1       7.168   4.763  18.027  0.00  0.00    +0.000 S 
BRANCH  12  13
ATOM     13  C   UNL     1       7.042   4.824  16.294  0.00  0.00    +0.000 A 
ATOM     14  N   UNL     1       7.583   5.726  15.502  0.00  0.00    +0.000 NA
ATOM     15  N   UNL     1       7.206   5.403  14.214  0.00  0.00    +0.000 NA
ATOM     16  C   UNL     1       6.464   4.313  14.292  0.00  0.00    +0.000 A 
ATOM     17  O   UNL     1       6.310   3.899  15.593  0.00  0.00    +0.000 OA
BRANCH  16  18
ATOM     18  C   UNL     1       5.908   3.632  13.162  0.00  0.00    +0.000 A 
ATOM     19  C   UNL     1       4.662   3.801  12.580  0.00  0.00    +0.000 A 
ATOM     20  C   UNL     1       4.586   2.923  11.472  0.00  0.00    +0.000 A 
ATOM     21  C   UNL     1       5.786   2.256  11.440  0.00  0.00    +0.000 A 
ATOM     22  O   UNL     1       6.590   2.672  12.452  0.00  0.00    +0.000 OA
ENDBRANCH  16  18
ENDBRANCH  12  13
ENDBRANCH   4  12
TORSDOF 4
ENDMDL
MODEL 3
REMARK VINA RESULT:      -8.3      4.195      5.940
REMARK  Name = 
REMARK  4 active torsions:
REMARK  status: ('A' for Active; 'I' for Inactive)
REMARK    1  A    between atoms: C_2  and  C_5
REMARK    2  A    between atoms: C_8  and  S_9
REMARK    3  A    between atoms: S_9  and  C_10
REMARK    4  A    between atoms: C_13  and  C_14
REMARK                            x       y       z     vdW  Elec       q    Type
REMARK                         _______ _______ _______ _____ _____    ______ ____
ROOT
ATOM      1  C   UNL     1       3.108   4.276  18.174  0.00  0.00    +0.000 A 
ATOM      2  C   UNL     1       3.789   4.789  19.265  0.00  0.00    +0.000 A 
ATOM      3  N   UNL     1       5.118   5.055  19.269  0.00  0.00    +0.000 NA
ATOM      4  C   UNL     1       5.833   4.802  18.137  0.00  0.00    +0.000 A 
ATOM      5  C   UNL     1       5.230   4.265  16.996  0.00  0.00    +0.000 A 
ATOM      6 CL   UNL     1       6.097   3.832  15.566  0.00  0.00    +0.000 Cl
ATOM      7  C   UNL     1       3.854   4.018  17.016  0.00  0.00    +0.000 A 
ENDROOT
BRANCH   1   9
ATOM      8  F   UNL     1       1.329   2.674  18.123  0.00  0.00    +0.000 F 
ATOM      9  C   UNL     1       1.639   3.995  18.237  0.00  0.00    +0.000 C 
ATOM     10  F   UNL     1       0.949   4.625  17.245  0.00  0.00    +0.000 F 
ATOM     11  F   UNL     1       1.079   4.413  19.404  0.00  0.00    +0.000 F 
ENDBRANCH   1   9
BRANCH   4  12
ATOM     12  S   UNL     1       7.588   5.066  18.306  0.00  0.00    +0.000 S 
BRANCH  12  13
ATOM     13  C   UNL     1       7.679   6.781  18.035  0.00  0.00    +0.000 A 
ATOM     14  N   UNL     1       6.969   7.474  17.169  0.00  0.00    +0.000 NA
ATOM     15  N   UNL     1       7.383   8.787  17.275  0.00  0.00    +0.000 NA
ATOM     16  C   UNL     1       8.317   8.822  18.209  0.00  0.00    +0.000 A 
ATOM     17  O   UNL     1       8.562   7.573  18.726  0.00  0.00    +0.000 OA
BRANCH  16  18
ATOM     18  C   UNL     1       8.975  10.015  18.649  0.00  0.00    +0.000 A 
ATOM     19  C   UNL     1       9.297  10.396  19.942  0.00  0.00    +0.000 A 
ATOM     20  C   UNL     1       9.968  11.640  19.865  0.00  0.00    +0.000 A 
ATOM     21  C   UNL     1      10.012  11.960  18.531  0.00  0.00    +0.000 A 
ATOM     22  O   UNL     1       9.418  10.991  17.788  0.00  0.00    +0.000 OA
ENDBRANCH  16  18
ENDBRANCH  12  13
ENDBRANCH   4  12
TORSDOF 4
ENDMDL
MODEL 4
REMARK VINA RESULT:      -8.1      0.908      1.367
REMARK  Name = 
REMARK  4 active torsions:
REMARK  status: ('A' for Active; 'I' for Inactive)
REMARK    1  A    between atoms: C_2  and  C_5
REMARK    2  A    between atoms: C_8  and  S_9
REMARK    3  A    between atoms: S_9  and  C_10
REMARK    4  A    between atoms: C_13  and  C_14
REMARK                            x       y       z     vdW  Elec       q    Type
REMARK                         _______ _______ _______ _____ _____    ______ ____
ROOT
ATOM      1  C   UNL     1       2.649   3.615  19.298  0.00  0.00    +0.000 A 
ATOM      2  C   UNL     1       3.780   2.940  19.728  0.00  0.00    +0.000 A 
ATOM      3  N   UNL     1       5.036   3.442  19.646  0.00  0.00    +0.000 NA
ATOM      4  C   UNL     1       5.204   4.682  19.106  0.00  0.00    +0.000 A 
ATOM      5  C   UNL     1       4.120   5.425  18.628  0.00  0.00    +0.000 A 
ATOM      6 CL   UNL     1       4.278   6.957  17.845  0.00  0.00    +0.000 Cl
ATOM      7  C   UNL     1       2.834   4.888  18.744  0.00  0.00    +0.000 A 
ENDROOT
BRANCH   1   9
ATOM      8  F   UNL     1       0.429   3.711  20.190  0.00  0.00    +0.000 F 
ATOM      9  C   UNL     1       1.288   3.000  19.410  0.00  0.00    +0.000 C 
ATOM     10  F   UNL     1       1.329   1.749  19.948  0.00  0.00    +0.000 F 
ATOM     11  F   UNL     1       0.677   2.867  18.203  0.00  0.00    +0.000 F 
ENDBRANCH   1   9
BRANCH   4  12
ATOM     12  S   UNL     1       6.907   5.178  18.929  0.00  0.00    +0.000 S 
BRANCH  12  13
ATOM     13  C   UNL     1       7.017   5.327  17.201  0.00  0.00    +0.000 A 
ATOM     14  N   UNL     1       7.588   6.310  16.536  0.00  0.00    +0.000 NA
ATOM     15  N   UNL     1       7.421   6.034  15.194  0.00  0.00    +0.000 NA
ATOM     16  C   UNL     1       6.764   4.890  15.116  0.00  0.00    +0.000 A 
ATOM     17  O   UNL     1       6.465   4.392  16.361  0.00  0.00    +0.000 OA
BRANCH  16  18
ATOM     18  C   UNL     1       6.427   4.235  13.889  0.00  0.00    +0.000 A 
ATOM     19  C   UNL     1       5.226   3.642  13.529  0.00  0.00    +0.000 A 
ATOM     20  C   UNL     1       5.369   3.157  12.207  0.00  0.00    +0.000 A 
ATOM     21  C   UNL     1       6.653   3.468  11.831  0.00  0.00    +0.000 A 
ATOM     22  O   UNL     1       7.300   4.115  12.834  0.00  0.00    +0.000 OA
ENDBRANCH  16  18
ENDBRANCH  12  13
ENDBRANCH   4  12
TORSDOF 4
ENDMDL
MODEL 5
REMARK VINA RESULT:      -8.0      0.769      1.157
REMARK  Name = 
REMARK  4 active torsions:
REMARK  status: ('A' for Active; 'I' for Inactive)
REMARK    1  A    between atoms: C_2  and  C_5
REMARK    2  A    between atoms: C_8  and  S_9
REMARK    3  A    between atoms: S_9  and  C_10
REMARK    4  A    between atoms: C_13  and  C_14
REMARK                            x       y       z     vdW  Elec       q    Type
REMARK                         _______ _______ _______ _____ _____    ______ ____
ROOT
ATOM      1  C   UNL     1       2.647   3.593  19.102  0.00  0.00    +0.000 A 
ATOM      2  C   UNL     1       3.862   3.032  19.459  0.00  0.00    +0.000 A 
ATOM      3  N   UNL     1       5.049   3.679  19.367  0.00  0.00    +0.000 NA
ATOM      4  C   UNL     1       5.056   4.956  18.891  0.00  0.00    +0.000 A 
ATOM      5  C   UNL     1       3.878   5.593  18.488  0.00  0.00    +0.000 A 
ATOM      6 CL   UNL     1       3.833   7.171  17.788  0.00  0.00    +0.000 Cl
ATOM      7  C   UNL     1       2.667   4.906  18.613  0.00  0.00    +0.000 A 
ENDROOT
BRANCH   1   9
ATOM      8  F   UNL     1       0.546   2.958  18.145  0.00  0.00    +0.000 F 
ATOM      9  C   UNL     1       1.369   2.821  19.220  0.00  0.00    +0.000 C 
ATOM     10  F   UNL     1       0.634   3.202  20.303  0.00  0.00    +0.000 F 
ATOM     11  F   UNL     1       1.581   1.485  19.364  0.00  0.00    +0.000 F 
ENDBRANCH   1   9
BRANCH   4  12
ATOM     12  S   UNL     1       6.684   5.653  18.691  0.00  0.00    +0.000 S 
BRANCH  12  13
ATOM     13  C   UNL     1       6.873   5.529  16.968  0.00  0.00    +0.000 A 
ATOM     14  N   UNL     1       7.700   6.230  16.219  0.00  0.00    +0.000 NA
ATOM     15  N   UNL     1       7.499   5.824  14.915  0.00  0.00    +0.000 NA
ATOM     16  C   UNL     1       6.565   4.890  14.943  0.00  0.00    +0.000 A 
ATOM     17  O   UNL     1       6.114   4.663  16.221  0.00  0.00    +0.000 OA
BRANCH  16  18
ATOM     18  C   UNL     1       6.097   4.182  13.790  0.00  0.00    +0.000 A 
ATOM     19  C   UNL     1       6.840   3.583  12.785  0.00  0.00    +0.000 A 
ATOM     20  C   UNL     1       5.930   2.983  11.882  0.00  0.00    +0.000 A 
ATOM     21  C   UNL     1       4.678   3.255  12.375  0.00  0.00    +0.000 A 
ATOM     22  O   UNL     1       4.764   3.977  13.522  0.00  0.00    +0.000 OA
ENDBRANCH  16  18
ENDBRANCH  12  13
ENDBRANCH   4  12
TORSDOF 4
ENDMDL
MODEL 6
REMARK VINA RESULT:      -8.0      5.055      7.307
REMARK  Name = 
REMARK  4 active torsions:
REMARK  status: ('A' for Active; 'I' for Inactive)
REMARK    1  A    between atoms: C_2  and  C_5
REMARK    2  A    between atoms: C_8  and  S_9
REMARK    3  A    between atoms: S_9  and  C_10
REMARK    4  A    between atoms: C_13  and  C_14
REMARK                            x       y       z     vdW  Elec       q    Type
REMARK                         _______ _______ _______ _____ _____    ______ ____
ROOT
ATOM      1  C   UNL     1       6.128   3.949  13.999  0.00  0.00    +0.000 A 
ATOM      2  C   UNL     1       7.358   4.463  14.375  0.00  0.00    +0.000 A 
ATOM      3  N   UNL     1       7.699   4.744  15.656  0.00  0.00    +0.000 NA
ATOM      4  C   UNL     1       6.781   4.513  16.637  0.00  0.00    +0.000 A 
ATOM      5  C   UNL     1       5.508   4.015  16.345  0.00  0.00    +0.000 A 
ATOM      6 CL   UNL     1       4.270   3.793  17.528  0.00  0.00    +0.000 Cl
ATOM      7  C   UNL     1       5.192   3.717  15.016  0.00  0.00    +0.000 A 
ENDROOT
BRANCH   1   9
ATOM      8  F   UNL     1       4.539   4.004  12.209  0.00  0.00    +0.000 F 
ATOM      9  C   UNL     1       5.809   3.668  12.563  0.00  0.00    +0.000 C 
ATOM     10  F   UNL     1       5.945   2.349  12.252  0.00  0.00    +0.000 F 
ATOM     11  F   UNL     1       6.627   4.339  11.708  0.00  0.00    +0.000 F 
ENDBRANCH   1   9
BRANCH   4  12
ATOM     12  S   UNL     1       7.296   5.044  18.259  0.00  0.00    +0.000 S 
BRANCH  12  13
ATOM     13  C   UNL     1       7.506   6.747  17.984  0.00  0.00    +0.000 A 
ATOM     14  N   UNL     1       6.877   7.478  17.086  0.00  0.00    +0.000 NA
ATOM     15  N   UNL     1       7.369   8.762  17.202  0.00  0.00    +0.000 NA
ATOM     16  C   UNL     1       8.264   8.745  18.174  0.00  0.00    +0.000 A 
ATOM     17  O   UNL     1       8.408   7.487  18.706  0.00  0.00    +0.000 OA
BRANCH  16  18
ATOM     18  C   UNL     1       8.978   9.897  18.634  0.00  0.00    +0.000 A 
ATOM     19  C   UNL     1       9.507  10.940  17.888  0.00  0.00    +0.000 A 
ATOM     20  C   UNL     1      10.093  11.857  18.793  0.00  0.00    +0.000 A 
ATOM     21  C   UNL     1       9.902  11.323  20.044  0.00  0.00    +0.000 A 
ATOM     22  O   UNL     1       9.234  10.144  19.962  0.00  0.00    +0.000 OA
ENDBRANCH  16  18
ENDBRANCH  12  13
ENDBRANCH   4  12
TORSDOF 4
ENDMDL
MODEL 7
REMARK VINA RESULT:      -8.0      1.252      1.549
REMARK  Name = 
REMARK  4 active torsions:
REMARK  status: ('A' for Active; 'I' for Inactive)
REMARK    1  A    between atoms: C_2  and  C_5
REMARK    2  A    between atoms: C_8  and  S_9
REMARK    3  A    between atoms: S_9  and  C_10
REMARK    4  A    between atoms: C_13  and  C_14
REMARK                            x       y       z     vdW  Elec       q    Type
REMARK                         _______ _______ _______ _____ _____    ______ ____
ROOT
ATOM      1  C   UNL     1       2.383   3.685  18.786  0.00  0.00    +0.000 A 
ATOM      2  C   UNL     1       3.679   3.411  18.381  0.00  0.00    +0.000 A 
ATOM      3  N   UNL     1       4.563   4.359  17.986  0.00  0.00    +0.000 NA
ATOM      4  C   UNL     1       4.158   5.660  17.980  0.00  0.00    +0.000 A 
ATOM      5  C   UNL     1       2.862   6.025  18.353  0.00  0.00    +0.000 A 
ATOM      6 CL   UNL     1       2.259   7.642  18.275  0.00  0.00    +0.000 Cl
ATOM      7  C   UNL     1       1.978   5.026  18.774  0.00  0.00    +0.000 A 
ENDROOT
BRANCH   1   9
ATOM      8  F   UNL     1       0.415   2.395  18.342  0.00  0.00    +0.000 F 
ATOM      9  C   UNL     1       1.451   2.589  19.203  0.00  0.00    +0.000 C 
ATOM     10  F   UNL     1       0.885   2.828  20.419  0.00  0.00    +0.000 F 
ATOM     11  F   UNL     1       2.078   1.388  19.314  0.00  0.00    +0.000 F 
ENDBRANCH   1   9
BRANCH   4  12
ATOM     12  S   UNL     1       5.361   6.796  17.316  0.00  0.00    +0.000 S 
BRANCH  12  13
ATOM     13  C   UNL     1       6.065   5.818  16.064  0.00  0.00    +0.000 A 
ATOM     14  N   UNL     1       7.343   5.531  15.921  0.00  0.00    +0.000 NA
ATOM     15  N   UNL     1       7.452   4.753  14.787  0.00  0.00    +0.000 NA
ATOM     16  C   UNL     1       6.231   4.600  14.306  0.00  0.00    +0.000 A 
ATOM     17  O   UNL     1       5.301   5.265  15.067  0.00  0.00    +0.000 OA
BRANCH  16  18
ATOM     18  C   UNL     1       5.910   3.818  13.150  0.00  0.00    +0.000 A 
ATOM     19  C   UNL     1       6.761   3.068  12.352  0.00  0.00    +0.000 A 
ATOM     20  C   UNL     1       5.973   2.452  11.351  0.00  0.00    +0.000 A 
ATOM     21  C   UNL     1       4.684   2.864  11.582  0.00  0.00    +0.000 A 
ATOM     22  O   UNL     1       4.633   3.688  12.661  0.00  0.00    +0.000 OA
ENDBRANCH  16  18
ENDBRANCH  12  13
ENDBRANCH   4  12
TORSDOF 4
ENDMDL
MODEL 8
REMARK VINA RESULT:      -7.9      4.028      5.843
REMARK  Name = 
REMARK  4 active torsions:
REMARK  status: ('A' for Active; 'I' for Inactive)
REMARK    1  A    between atoms: C_2  and  C_5
REMARK    2  A    between atoms: C_8  and  S_9
REMARK    3  A    between atoms: S_9  and  C_10
REMARK    4  A    between atoms: C_13  and  C_14
REMARK                            x       y       z     vdW  Elec       q    Type
REMARK                         _______ _______ _______ _____ _____    ______ ____
ROOT
ATOM      1  C   UNL     1       3.113   4.064  18.674  0.00  0.00    +0.000 A 
ATOM      2  C   UNL     1       4.071   4.159  19.669  0.00  0.00    +0.000 A 
ATOM      3  N   UNL     1       5.372   4.458  19.438  0.00  0.00    +0.000 NA
ATOM      4  C   UNL     1       5.769   4.675  18.153  0.00  0.00    +0.000 A 
ATOM      5  C   UNL     1       4.873   4.579  17.084  0.00  0.00    +0.000 A 
ATOM      6 CL   UNL     1       5.333   4.746  15.428  0.00  0.00    +0.000 Cl
ATOM      7  C   UNL     1       3.533   4.287  17.356  0.00  0.00    +0.000 A 
ENDROOT
BRANCH   1   9
ATOM      8  F   UNL     1       1.089   4.610  19.831  0.00  0.00    +0.000 F 
ATOM      9  C   UNL     1       1.691   3.720  18.995  0.00  0.00    +0.000 C 
ATOM     10  F   UNL     1       1.577   2.505  19.600  0.00  0.00    +0.000 F 
ATOM     11  F   UNL     1       0.908   3.659  17.885  0.00  0.00    +0.000 F 
ENDBRANCH   1   9
BRANCH   4  12
ATOM     12  S   UNL     1       7.524   4.928  17.962  0.00  0.00    +0.000 S 
BRANCH  12  13
ATOM     13  C   UNL     1       7.585   6.660  17.844  0.00  0.00    +0.000 A 
ATOM     14  N   UNL     1       6.813   7.421  17.095  0.00  0.00    +0.000 NA
ATOM     15  N   UNL     1       7.225   8.724  17.293  0.00  0.00    +0.000 NA
ATOM     16  C   UNL     1       8.219   8.685  18.162  0.00  0.00    +0.000 A 
ATOM     17  O   UNL     1       8.507   7.398  18.544  0.00  0.00    +0.000 OA
BRANCH  16  18
ATOM     18  C   UNL     1       8.898   9.842  18.664  0.00  0.00    +0.000 A 
ATOM     19  C   UNL     1       9.400  10.922  17.956  0.00  0.00    +0.000 A 
ATOM     20  C   UNL     1       9.955  11.826  18.893  0.00  0.00    +0.000 A 
ATOM     21  C   UNL     1       9.774  11.246  20.125  0.00  0.00    +0.000 A 
ATOM     22  O   UNL     1       9.139  10.051  20.001  0.00  0.00    +0.000 OA
ENDBRANCH  16  18
ENDBRANCH  12  13
ENDBRANCH   4  12
TORSDOF 4
ENDMDL
MODEL 9
REMARK VINA RESULT:      -7.9      5.072      7.276
REMARK  Name = 
REMARK  4 active torsions:
REMARK  status: ('A' for Active; 'I' for Inactive)
REMARK    1  A    between atoms: C_2  and  C_5
REMARK    2  A    between atoms: C_8  and  S_9
REMARK    3  A    between atoms: S_9  and  C_10
REMARK    4  A    between atoms: C_13  and  C_14
REMARK                            x       y       z     vdW  Elec       q    Type
REMARK                         _______ _______ _______ _____ _____    ______ ____
ROOT
ATOM      1  C   UNL     1       6.113   3.994  14.152  0.00  0.00    +0.000 A 
ATOM      2  C   UNL     1       7.373   4.417  14.542  0.00  0.00    +0.000 A 
ATOM      3  N   UNL     1       7.704   4.729  15.818  0.00  0.00    +0.000 NA
ATOM      4  C   UNL     1       6.744   4.626  16.780  0.00  0.00    +0.000 A 
ATOM      5  C   UNL     1       5.440   4.226  16.472  0.00  0.00    +0.000 A 
ATOM      6 CL   UNL     1       4.156   4.170  17.626  0.00  0.00    +0.000 Cl
ATOM      7  C   UNL     1       5.134   3.893  15.149  0.00  0.00    +0.000 A 
ENDROOT
BRANCH   1   9
ATOM      8  F   UNL     1       5.993   2.361  12.404  0.00  0.00    +0.000 F 
ATOM      9  C   UNL     1       5.810   3.673  12.721  0.00  0.00    +0.000 C 
ATOM     10  F   UNL     1       6.592   4.377  11.856  0.00  0.00    +0.000 F 
ATOM     11  F   UNL     1       4.525   3.964  12.384  0.00  0.00    +0.000 F 
ENDBRANCH   1   9
BRANCH   4  12
ATOM     12  S   UNL     1       7.259   5.189  18.391  0.00  0.00    +0.000 S 
BRANCH  12  13
ATOM     13  C   UNL     1       7.540   6.872  18.065  0.00  0.00    +0.000 A 
ATOM     14  N   UNL     1       6.955   7.597  17.132  0.00  0.00    +0.000 NA
ATOM     15  N   UNL     1       7.494   8.864  17.216  0.00  0.00    +0.000 NA
ATOM     16  C   UNL     1       8.370   8.846  18.204  0.00  0.00    +0.000 A 
ATOM     17  O   UNL     1       8.457   7.601  18.780  0.00  0.00    +0.000 OA
BRANCH  16  18
ATOM     18  C   UNL     1       9.120   9.985  18.641  0.00  0.00    +0.000 A 
ATOM     19  C   UNL     1       9.413  10.380  19.937  0.00  0.00    +0.000 A 
ATOM     20  C   UNL     1      10.205  11.550  19.857  0.00  0.00    +0.000 A 
ATOM     21  C   UNL     1      10.347  11.816  18.517  0.00  0.00    +0.000 A 
ATOM     22  O   UNL     1       9.698  10.882  17.774  0.00  0.00    +0.000 OA
ENDBRANCH  16  18
ENDBRANCH  12  13
ENDBRANCH   4  12
TORSDOF 4
ENDMDL
