MODEL 1
REMARK VINA RESULT:      -7.2      0.000      0.000
REMARK  Name = 
REMARK  11 active torsions:
REMARK  status: ('A' for Active; 'I' for Inactive)
REMARK    1  A    between atoms: C_1  and  C_2
REMARK    2  A    between atoms: C_2  and  O_3
REMARK    3  A    between atoms: O_3  and  C_4
REMARK    4  A    between atoms: C_6  and  C_7
REMARK    5  A    between atoms: C_7  and  O_9
REMARK    6  A    between atoms: C_11  and  C_12
REMARK    7  A    between atoms: C_15  and  C_16
REMARK    8  A    between atoms: C_24  and  C_25
REMARK    9  A    between atoms: C_25  and  C_26
REMARK   10  A    between atoms: C_26  and  C_27
REMARK   11  A    between atoms: C_27  and  O_28
REMARK                            x       y       z     vdW  Elec       q    Type
REMARK                         _______ _______ _______ _____ _____    ______ ____
ROOT
ATOM      1  C   UNL     1       1.696   6.884  20.088  0.00  0.00    +0.000 C 
ATOM      2  O   UNL     1       1.856   5.795  21.019  0.00  0.00    +0.000 OA
ATOM      3  C   UNL     1       1.979   4.554  20.432  0.00  0.00    +0.000 C 
ATOM      4  C   UNL     1       2.333   4.377  19.154  0.00  0.00    +0.000 C 
ATOM      5  C   UNL     1       2.720   5.517  18.257  0.00  0.00    +0.000 C 
ATOM      6  C   UNL     1       2.820   6.858  19.031  0.00  0.00    +0.000 C 
ENDROOT
BRANCH   5   7
ATOM      7  C   UNL     1       3.988   5.180  17.513  0.00  0.00    +0.000 A 
ATOM      8  C   UNL     1       4.094   4.828  16.190  0.00  0.00    +0.000 A 
ATOM      9  N   UNL     1       5.425   4.651  15.817  0.00  0.00    +0.000 N 
ATOM     10  C   UNL     1       5.736   4.310  14.471  0.00  0.00    +0.000 C 
ATOM     11  C   UNL     1       7.146   4.125  14.025  0.00  0.00    +0.000 C 
ATOM     12  O   UNL     1       4.807   4.168  13.680  0.00  0.00    +0.000 OA
ATOM     13  C   UNL     1       6.203   4.877  16.968  0.00  0.00    +0.000 A 
ATOM     14  C   UNL     1       7.590   4.858  17.236  0.00  0.00    +0.000 A 
ATOM     15  C   UNL     1       8.064   5.135  18.526  0.00  0.00    +0.000 A 
ATOM     16  C   UNL     1       7.194   5.435  19.556  0.00  0.00    +0.000 A 
ATOM     17  C   UNL     1       5.826   5.470  19.310  0.00  0.00    +0.000 A 
ATOM     18  C   UNL     1       5.316   5.192  18.021  0.00  0.00    +0.000 A 
ENDBRANCH   5   7
BRANCH   3  19
ATOM     19  C   UNL     1       1.712   3.358  21.284  0.00  0.00    +0.000 C 
ATOM     20  O   UNL     1       2.406   2.987  22.215  0.00  0.00    +0.000 OA
BRANCH  19  21
ATOM     21  O   UNL     1       0.595   2.718  20.872  0.00  0.00    +0.000 OA
ATOM     22  H   UNL     1       0.734   2.331  19.981  0.00  0.00    +0.000 HD
ENDBRANCH  19  21
ENDBRANCH   3  19
BRANCH   1  23
ATOM     23  O   UNL     1       1.721   8.115  20.822  0.00  0.00    +0.000 OA
BRANCH  23  25
ATOM     24  C   UNL     1       0.119   9.830  21.374  0.00  0.00    +0.000 C 
ATOM     25  C   UNL     1       0.472   8.359  21.476  0.00  0.00    +0.000 C 
ENDBRANCH  23  25
ENDBRANCH   1  23
BRANCH   6  26
ATOM     26  C   UNL     1       2.873   8.089  18.088  0.00  0.00    +0.000 C 
BRANCH  26  27
ATOM     27  C   UNL     1       1.524   8.726  17.737  0.00  0.00    +0.000 C 
BRANCH  27  28
ATOM     28  C   UNL     1       1.508  10.220  18.046  0.00  0.00    +0.000 C 
BRANCH  28  29
ATOM     29  O   UNL     1       0.183  10.716  17.908  0.00  0.00    +0.000 OA
ATOM     30  H   UNL     1      -0.389   9.964  17.678  0.00  0.00    +0.000 HD
ENDBRANCH  28  29
ENDBRANCH  27  28
ENDBRANCH  26  27
ENDBRANCH   6  26
TORSDOF 9
ENDMDL
MODEL 2
REMARK VINA RESULT:      -6.5      3.198      7.320
REMARK  Name = 
REMARK  11 active torsions:
REMARK  status: ('A' for Active; 'I' for Inactive)
REMARK    1  A    between atoms: C_1  and  C_2
REMARK    2  A    between atoms: C_2  and  O_3
REMARK    3  A    between atoms: O_3  and  C_4
REMARK    4  A    between atoms: C_6  and  C_7
REMARK    5  A    between atoms: C_7  and  O_9
REMARK    6  A    between atoms: C_11  and  C_12
REMARK    7  A    between atoms: C_15  and  C_16
REMARK    8  A    between atoms: C_24  and  C_25
REMARK    9  A    between atoms: C_25  and  C_26
REMARK   10  A    between atoms: C_26  and  C_27
REMARK   11  A    between atoms: C_27  and  O_28
REMARK                            x       y       z     vdW  Elec       q    Type
REMARK                         _______ _______ _______ _____ _____    ______ ____
ROOT
ATOM      1  C   UNL     1       7.075   5.967  15.017  0.00  0.00    +0.000 C 
ATOM      2  O   UNL     1       7.881   6.466  16.103  0.00  0.00    +0.000 OA
ATOM      3  C   UNL     1       7.178   7.160  17.065  0.00  0.00    +0.000 C 
ATOM      4  C   UNL     1       5.855   7.049  17.231  0.00  0.00    +0.000 C 
ATOM      5  C   UNL     1       5.018   6.086  16.439  0.00  0.00    +0.000 C 
ATOM      6  C   UNL     1       5.887   5.147  15.561  0.00  0.00    +0.000 C 
ENDROOT
BRANCH   5   7
ATOM      7  C   UNL     1       4.094   5.330  17.360  0.00  0.00    +0.000 A 
ATOM      8  C   UNL     1       3.936   3.967  17.425  0.00  0.00    +0.000 A 
ATOM      9  N   UNL     1       3.050   3.607  18.439  0.00  0.00    +0.000 N 
ATOM     10  C   UNL     1       2.781   2.230  18.677  0.00  0.00    +0.000 C 
ATOM     11  C   UNL     1       1.851   1.799  19.760  0.00  0.00    +0.000 C 
ATOM     12  O   UNL     1       3.335   1.399  17.964  0.00  0.00    +0.000 OA
ATOM     13  C   UNL     1       2.603   4.803  19.031  0.00  0.00    +0.000 A 
ATOM     14  C   UNL     1       1.719   5.104  20.091  0.00  0.00    +0.000 A 
ATOM     15  C   UNL     1       1.474   6.437  20.451  0.00  0.00    +0.000 A 
ATOM     16  C   UNL     1       2.089   7.479  19.786  0.00  0.00    +0.000 A 
ATOM     17  C   UNL     1       2.971   7.203  18.747  0.00  0.00    +0.000 A 
ATOM     18  C   UNL     1       3.237   5.870  18.358  0.00  0.00    +0.000 A 
ENDBRANCH   5   7
BRANCH   3  19
ATOM     19  C   UNL     1       7.950   8.064  17.966  0.00  0.00    +0.000 C 
ATOM     20  O   UNL     1       8.052   9.272  17.834  0.00  0.00    +0.000 OA
BRANCH  19  21
ATOM     21  O   UNL     1       8.548   7.359  18.952  0.00  0.00    +0.000 OA
ATOM     22  H   UNL     1       7.933   7.243  19.708  0.00  0.00    +0.000 HD
ENDBRANCH  19  21
ENDBRANCH   3  19
BRANCH   1  23
ATOM     23  O   UNL     1       7.904   5.156  14.173  0.00  0.00    +0.000 OA
BRANCH  23  25
ATOM     24  C   UNL     1       7.797   5.815  11.856  0.00  0.00    +0.000 C 
ATOM     25  C   UNL     1       8.551   5.941  13.166  0.00  0.00    +0.000 C 
ENDBRANCH  23  25
ENDBRANCH   1  23
BRANCH   6  26
ATOM     26  C   UNL     1       5.054   4.394  14.490  0.00  0.00    +0.000 C 
BRANCH  26  27
ATOM     27  C   UNL     1       5.800   3.321  13.690  0.00  0.00    +0.000 C 
BRANCH  27  28
ATOM     28  C   UNL     1       5.305   3.245  12.248  0.00  0.00    +0.000 C 
BRANCH  28  29
ATOM     29  O   UNL     1       5.735   2.021  11.666  0.00  0.00    +0.000 OA
ATOM     30  H   UNL     1       5.978   2.205  10.743  0.00  0.00    +0.000 HD
ENDBRANCH  28  29
ENDBRANCH  27  28
ENDBRANCH  26  27
ENDBRANCH   6  26
TORSDOF 9
ENDMDL
MODEL 3
REMARK VINA RESULT:      -6.4      2.932      7.393
REMARK  Name = 
REMARK  11 active torsions:
REMARK  status: ('A' for Active; 'I' for Inactive)
REMARK    1  A    between atoms: C_1  and  C_2
REMARK    2  A    between atoms: C_2  and  O_3
REMARK    3  A    between atoms: O_3  and  C_4
REMARK    4  A    between atoms: C_6  and  C_7
REMARK    5  A    between atoms: C_7  and  O_9
REMARK    6  A    between atoms: C_11  and  C_12
REMARK    7  A    between atoms: C_15  and  C_16
REMARK    8  A    between atoms: C_24  and  C_25
REMARK    9  A    between atoms: C_25  and  C_26
REMARK   10  A    between atoms: C_26  and  C_27
REMARK   11  A    between atoms: C_27  and  O_28
REMARK                            x       y       z     vdW  Elec       q    Type
REMARK                         _______ _______ _______ _____ _____    ______ ____
ROOT
ATOM      1  C   UNL     1       3.738   4.827  19.238  0.00  0.00    +0.000 C 
ATOM      2  O   UNL     1       4.771   5.535  18.525  0.00  0.00    +0.000 OA
ATOM      3  C   UNL     1       4.311   6.530  17.689  0.00  0.00    +0.000 C 
ATOM      4  C   UNL     1       3.100   7.088  17.807  0.00  0.00    +0.000 C 
ATOM      5  C   UNL     1       2.157   6.743  18.924  0.00  0.00    +0.000 C 
ATOM      6  C   UNL     1       2.819   5.820  19.981  0.00  0.00    +0.000 C 
ENDROOT
BRANCH   5   7
ATOM      7  C   UNL     1       1.591   8.004  19.527  0.00  0.00    +0.000 A 
ATOM      8  C   UNL     1       0.852   8.101  20.680  0.00  0.00    +0.000 A 
ATOM      9  N   UNL     1       0.551   9.429  20.980  0.00  0.00    +0.000 N 
ATOM     10  C   UNL     1      -0.188   9.732  22.157  0.00  0.00    +0.000 C 
ATOM     11  C   UNL     1      -0.519  11.138  22.524  0.00  0.00    +0.000 C 
ATOM     12  O   UNL     1      -0.551   8.799  22.869  0.00  0.00    +0.000 OA
ATOM     13  C   UNL     1       1.107  10.213  19.951  0.00  0.00    +0.000 A 
ATOM     14  C   UNL     1       1.151  11.600  19.687  0.00  0.00    +0.000 A 
ATOM     15  C   UNL     1       1.801  12.082  18.543  0.00  0.00    +0.000 A 
ATOM     16  C   UNL     1       2.412  11.219  17.654  0.00  0.00    +0.000 A 
ATOM     17  C   UNL     1       2.389   9.851  17.901  0.00  0.00    +0.000 A 
ATOM     18  C   UNL     1       1.739   9.334  19.046  0.00  0.00    +0.000 A 
ENDBRANCH   5   7
BRANCH   3  19
ATOM     19  C   UNL     1       5.227   7.006  16.612  0.00  0.00    +0.000 C 
ATOM     20  O   UNL     1       4.951   7.067  15.427  0.00  0.00    +0.000 OA
BRANCH  19  21
ATOM     21  O   UNL     1       6.430   7.348  17.126  0.00  0.00    +0.000 OA
ATOM     22  H   UNL     1       6.437   8.297  17.374  0.00  0.00    +0.000 HD
ENDBRANCH  19  21
ENDBRANCH   3  19
BRANCH   1  23
ATOM     23  O   UNL     1       4.362   3.927  20.164  0.00  0.00    +0.000 OA
BRANCH  23  25
ATOM     24  C   UNL     1       3.625   2.473  18.388  0.00  0.00    +0.000 C 
ATOM     25  C   UNL     1       4.533   2.626  19.593  0.00  0.00    +0.000 C 
ENDBRANCH  23  25
ENDBRANCH   1  23
BRANCH   6  26
ATOM     26  C   UNL     1       1.785   5.176  20.942  0.00  0.00    +0.000 C 
BRANCH  26  27
ATOM     27  C   UNL     1       1.055   3.938  20.413  0.00  0.00    +0.000 C 
BRANCH  27  28
ATOM     28  C   UNL     1       1.261   2.729  21.321  0.00  0.00    +0.000 C 
BRANCH  28  29
ATOM     29  O   UNL     1       2.331   2.991  22.219  0.00  0.00    +0.000 OA
ATOM     30  H   UNL     1       3.022   2.327  22.054  0.00  0.00    +0.000 HD
ENDBRANCH  28  29
ENDBRANCH  27  28
ENDBRANCH  26  27
ENDBRANCH   6  26
TORSDOF 9
ENDMDL
MODEL 4
REMARK VINA RESULT:      -6.3      7.180      9.761
REMARK  Name = 
REMARK  11 active torsions:
REMARK  status: ('A' for Active; 'I' for Inactive)
REMARK    1  A    between atoms: C_1  and  C_2
REMARK    2  A    between atoms: C_2  and  O_3
REMARK    3  A    between atoms: O_3  and  C_4
REMARK    4  A    between atoms: C_6  and  C_7
REMARK    5  A    between atoms: C_7  and  O_9
REMARK    6  A    between atoms: C_11  and  C_12
REMARK    7  A    between atoms: C_15  and  C_16
REMARK    8  A    between atoms: C_24  and  C_25
REMARK    9  A    between atoms: C_25  and  C_26
REMARK   10  A    between atoms: C_26  and  C_27
REMARK   11  A    between atoms: C_27  and  O_28
REMARK                            x       y       z     vdW  Elec       q    Type
REMARK                         _______ _______ _______ _____ _____    ______ ____
ROOT
ATOM      1  C   UNL     1       1.150  12.855  20.765  0.00  0.00    +0.000 C 
ATOM      2  O   UNL     1       1.330  11.484  21.172  0.00  0.00    +0.000 OA
ATOM      3  C   UNL     1       0.223  10.912  21.761  0.00  0.00    +0.000 C 
ATOM      4  C   UNL     1      -1.017  11.391  21.616  0.00  0.00    +0.000 C 
ATOM      5  C   UNL     1      -1.336  12.553  20.719  0.00  0.00    +0.000 C 
ATOM      6  C   UNL     1      -0.107  12.992  19.879  0.00  0.00    +0.000 C 
ENDROOT
BRANCH   5   7
ATOM      7  C   UNL     1      -2.536  12.229  19.865  0.00  0.00    +0.000 A 
ATOM      8  C   UNL     1      -3.811  12.714  20.026  0.00  0.00    +0.000 A 
ATOM      9  N   UNL     1      -4.657  12.261  19.016  0.00  0.00    +0.000 N 
ATOM     10  C   UNL     1      -6.017  12.681  18.999  0.00  0.00    +0.000 C 
ATOM     11  C   UNL     1      -6.953  12.231  17.930  0.00  0.00    +0.000 C 
ATOM     12  O   UNL     1      -6.403  13.427  19.895  0.00  0.00    +0.000 OA
ATOM     13  C   UNL     1      -3.887  11.425  18.185  0.00  0.00    +0.000 A 
ATOM     14  C   UNL     1      -4.159  10.684  17.013  0.00  0.00    +0.000 A 
ATOM     15  C   UNL     1      -3.147   9.928  16.404  0.00  0.00    +0.000 A 
ATOM     16  C   UNL     1      -1.870   9.893  16.929  0.00  0.00    +0.000 A 
ATOM     17  C   UNL     1      -1.579  10.624  18.076  0.00  0.00    +0.000 A 
ATOM     18  C   UNL     1      -2.579  11.394  18.715  0.00  0.00    +0.000 A 
ENDBRANCH   5   7
BRANCH   3  19
ATOM     19  C   UNL     1       0.437   9.689  22.589  0.00  0.00    +0.000 C 
ATOM     20  O   UNL     1       0.336   9.632  23.802  0.00  0.00    +0.000 OA
BRANCH  19  21
ATOM     21  O   UNL     1       0.781   8.639  21.810  0.00  0.00    +0.000 OA
ATOM     22  H   UNL     1       0.775   7.810  22.334  0.00  0.00    +0.000 HD
ENDBRANCH  19  21
ENDBRANCH   3  19
BRANCH   1  23
ATOM     23  O   UNL     1       2.320  13.274  20.049  0.00  0.00    +0.000 OA
BRANCH  23  25
ATOM     24  C   UNL     1       3.186  15.523  20.093  0.00  0.00    +0.000 C 
ATOM     25  C   UNL     1       3.101  14.194  20.818  0.00  0.00    +0.000 C 
ENDBRANCH  23  25
ENDBRANCH   1  23
BRANCH   6  26
ATOM     26  C   UNL     1      -0.304  14.382  19.217  0.00  0.00    +0.000 C 
BRANCH  26  27
ATOM     27  C   UNL     1      -0.693  15.526  20.158  0.00  0.00    +0.000 C 
BRANCH  27  28
ATOM     28  C   UNL     1      -0.668  16.876  19.446  0.00  0.00    +0.000 C 
BRANCH  28  29
ATOM     29  O   UNL     1      -0.819  16.674  18.047  0.00  0.00    +0.000 OA
ATOM     30  H   UNL     1      -0.738  17.542  17.615  0.00  0.00    +0.000 HD
ENDBRANCH  28  29
ENDBRANCH  27  28
ENDBRANCH  26  27
ENDBRANCH   6  26
TORSDOF 9
ENDMDL
MODEL 5
REMARK VINA RESULT:      -6.2      2.864      7.190
REMARK  Name = 
REMARK  11 active torsions:
REMARK  status: ('A' for Active; 'I' for Inactive)
REMARK    1  A    between atoms: C_1  and  C_2
REMARK    2  A    between atoms: C_2  and  O_3
REMARK    3  A    between atoms: O_3  and  C_4
REMARK    4  A    between atoms: C_6  and  C_7
REMARK    5  A    between atoms: C_7  and  O_9
REMARK    6  A    between atoms: C_11  and  C_12
REMARK    7  A    between atoms: C_15  and  C_16
REMARK    8  A    between atoms: C_24  and  C_25
REMARK    9  A    between atoms: C_25  and  C_26
REMARK   10  A    between atoms: C_26  and  C_27
REMARK   11  A    between atoms: C_27  and  O_28
REMARK                            x       y       z     vdW  Elec       q    Type
REMARK                         _______ _______ _______ _____ _____    ______ ____
ROOT
ATOM      1  C   UNL     1       6.637   5.592  15.726  0.00  0.00    +0.000 C 
ATOM      2  O   UNL     1       7.593   6.245  16.584  0.00  0.00    +0.000 OA
ATOM      3  C   UNL     1       7.054   7.204  17.415  0.00  0.00    +0.000 C 
ATOM      4  C   UNL     1       5.754   7.263  17.723  0.00  0.00    +0.000 C 
ATOM      5  C   UNL     1       4.766   6.231  17.262  0.00  0.00    +0.000 C 
ATOM      6  C   UNL     1       5.460   5.037  16.556  0.00  0.00    +0.000 C 
ENDROOT
BRANCH   5   7
ATOM      7  C   UNL     1       3.898   5.797  18.417  0.00  0.00    +0.000 A 
ATOM      8  C   UNL     1       3.923   4.579  19.049  0.00  0.00    +0.000 A 
ATOM      9  N   UNL     1       3.034   4.545  20.121  0.00  0.00    +0.000 N 
ATOM     10  C   UNL     1       2.939   3.368  20.916  0.00  0.00    +0.000 C 
ATOM     11  C   UNL     1       2.011   3.293  22.081  0.00  0.00    +0.000 C 
ATOM     12  O   UNL     1       3.644   2.409  20.617  0.00  0.00    +0.000 OA
ATOM     13  C   UNL     1       2.392   5.797  20.157  0.00  0.00    +0.000 A 
ATOM     14  C   UNL     1       1.412   6.376  20.993  0.00  0.00    +0.000 A 
ATOM     15  C   UNL     1       0.967   7.685  20.761  0.00  0.00    +0.000 A 
ATOM     16  C   UNL     1       1.475   8.436  19.718  0.00  0.00    +0.000 A 
ATOM     17  C   UNL     1       2.449   7.888  18.890  0.00  0.00    +0.000 A 
ATOM     18  C   UNL     1       2.916   6.569  19.097  0.00  0.00    +0.000 A 
ENDBRANCH   5   7
BRANCH   3  19
ATOM     19  C   UNL     1       7.986   8.212  18.001  0.00  0.00    +0.000 C 
ATOM     20  O   UNL     1       8.104   9.365  17.626  0.00  0.00    +0.000 OA
BRANCH  19  21
ATOM     21  O   UNL     1       8.708   7.666  19.006  0.00  0.00    +0.000 OA
ATOM     22  H   UNL     1       9.065   6.794  18.733  0.00  0.00    +0.000 HD
ENDBRANCH  19  21
ENDBRANCH   3  19
BRANCH   1  23
ATOM     23  O   UNL     1       7.305   4.533  15.026  0.00  0.00    +0.000 OA
BRANCH  23  25
ATOM     24  C   UNL     1       6.447   3.821  12.888  0.00  0.00    +0.000 C 
ATOM     25  C   UNL     1       7.357   4.789  13.618  0.00  0.00    +0.000 C 
ENDBRANCH  23  25
ENDBRANCH   1  23
BRANCH   6  26
ATOM     26  C   UNL     1       4.461   4.143  15.774  0.00  0.00    +0.000 C 
BRANCH  26  27
ATOM     27  C   UNL     1       4.166   2.770  16.386  0.00  0.00    +0.000 C 
BRANCH  27  28
ATOM     28  C   UNL     1       2.747   2.691  16.942  0.00  0.00    +0.000 C 
BRANCH  28  29
ATOM     29  O   UNL     1       2.669   1.633  17.888  0.00  0.00    +0.000 OA
ATOM     30  H   UNL     1       3.463   1.681  18.448  0.00  0.00    +0.000 HD
ENDBRANCH  28  29
ENDBRANCH  27  28
ENDBRANCH  26  27
ENDBRANCH   6  26
TORSDOF 9
ENDMDL
MODEL 6
REMARK VINA RESULT:      -6.2      2.650      7.085
REMARK  Name = 
REMARK  11 active torsions:
REMARK  status: ('A' for Active; 'I' for Inactive)
REMARK    1  A    between atoms: C_1  and  C_2
REMARK    2  A    between atoms: C_2  and  O_3
REMARK    3  A    between atoms: O_3  and  C_4
REMARK    4  A    between atoms: C_6  and  C_7
REMARK    5  A    between atoms: C_7  and  O_9
REMARK    6  A    between atoms: C_11  and  C_12
REMARK    7  A    between atoms: C_15  and  C_16
REMARK    8  A    between atoms: C_24  and  C_25
REMARK    9  A    between atoms: C_25  and  C_26
REMARK   10  A    between atoms: C_26  and  C_27
REMARK   11  A    between atoms: C_27  and  O_28
REMARK                            x       y       z     vdW  Elec       q    Type
REMARK                         _______ _______ _______ _____ _____    ______ ____
ROOT
ATOM      1  C   UNL     1       3.816   4.905  19.031  0.00  0.00    +0.000 C 
ATOM      2  O   UNL     1       4.965   5.450  18.352  0.00  0.00    +0.000 OA
ATOM      3  C   UNL     1       4.672   6.430  17.429  0.00  0.00    +0.000 C 
ATOM      4  C   UNL     1       3.526   7.121  17.427  0.00  0.00    +0.000 C 
ATOM      5  C   UNL     1       2.481   6.954  18.492  0.00  0.00    +0.000 C 
ATOM      6  C   UNL     1       2.968   6.038  19.646  0.00  0.00    +0.000 C 
ENDROOT
BRANCH   5   7
ATOM      7  C   UNL     1       2.021   8.305  18.978  0.00  0.00    +0.000 A 
ATOM      8  C   UNL     1       2.318   9.523  18.417  0.00  0.00    +0.000 A 
ATOM      9  N   UNL     1       1.670  10.561  19.083  0.00  0.00    +0.000 N 
ATOM     10  C   UNL     1       1.836  11.899  18.627  0.00  0.00    +0.000 C 
ATOM     11  C   UNL     1       1.150  13.038  19.301  0.00  0.00    +0.000 C 
ATOM     12  O   UNL     1       2.563  12.094  17.658  0.00  0.00    +0.000 OA
ATOM     13  C   UNL     1       0.944   9.976  20.138  0.00  0.00    +0.000 A 
ATOM     14  C   UNL     1       0.097  10.483  21.148  0.00  0.00    +0.000 A 
ATOM     15  C   UNL     1      -0.494   9.615  22.078  0.00  0.00    +0.000 A 
ATOM     16  C   UNL     1      -0.265   8.254  22.027  0.00  0.00    +0.000 A 
ATOM     17  C   UNL     1       0.557   7.733  21.033  0.00  0.00    +0.000 A 
ATOM     18  C   UNL     1       1.169   8.583  20.082  0.00  0.00    +0.000 A 
ENDBRANCH   5   7
BRANCH   3  19
ATOM     19  C   UNL     1       5.703   6.733  16.393  0.00  0.00    +0.000 C 
ATOM     20  O   UNL     1       6.763   7.299  16.597  0.00  0.00    +0.000 OA
BRANCH  19  21
ATOM     21  O   UNL     1       5.296   6.310  15.175  0.00  0.00    +0.000 OA
ATOM     22  H   UNL     1       5.667   6.884  14.473  0.00  0.00    +0.000 HD
ENDBRANCH  19  21
ENDBRANCH   3  19
BRANCH   1  23
ATOM     23  O   UNL     1       4.275   4.007  20.050  0.00  0.00    +0.000 OA
BRANCH  23  25
ATOM     24  C   UNL     1       3.583   2.468  18.328  0.00  0.00    +0.000 C 
ATOM     25  C   UNL     1       4.479   2.689  19.532  0.00  0.00    +0.000 C 
ENDBRANCH  23  25
ENDBRANCH   1  23
BRANCH   6  26
ATOM     26  C   UNL     1       1.809   5.573  20.568  0.00  0.00    +0.000 C 
BRANCH  26  27
ATOM     27  C   UNL     1       1.042   4.330  20.109  0.00  0.00    +0.000 C 
BRANCH  27  28
ATOM     28  C   UNL     1       1.140   3.197  21.127  0.00  0.00    +0.000 C 
BRANCH  28  29
ATOM     29  O   UNL     1       2.180   3.484  22.053  0.00  0.00    +0.000 OA
ATOM     30  H   UNL     1       2.515   4.374  21.851  0.00  0.00    +0.000 HD
ENDBRANCH  28  29
ENDBRANCH  27  28
ENDBRANCH  26  27
ENDBRANCH   6  26
TORSDOF 9
ENDMDL
MODEL 7
REMARK VINA RESULT:      -6.2      2.999      7.427
REMARK  Name = 
REMARK  11 active torsions:
REMARK  status: ('A' for Active; 'I' for Inactive)
REMARK    1  A    between atoms: C_1  and  C_2
REMARK    2  A    between atoms: C_2  and  O_3
REMARK    3  A    between atoms: O_3  and  C_4
REMARK    4  A    between atoms: C_6  and  C_7
REMARK    5  A    between atoms: C_7  and  O_9
REMARK    6  A    between atoms: C_11  and  C_12
REMARK    7  A    between atoms: C_15  and  C_16
REMARK    8  A    between atoms: C_24  and  C_25
REMARK    9  A    between atoms: C_25  and  C_26
REMARK   10  A    between atoms: C_26  and  C_27
REMARK   11  A    between atoms: C_27  and  O_28
REMARK                            x       y       z     vdW  Elec       q    Type
REMARK                         _______ _______ _______ _____ _____    ______ ____
ROOT
ATOM      1  C   UNL     1       7.487   4.910  14.397  0.00  0.00    +0.000 C 
ATOM      2  O   UNL     1       6.661   4.624  13.251  0.00  0.00    +0.000 OA
ATOM      3  C   UNL     1       5.732   3.625  13.449  0.00  0.00    +0.000 C 
ATOM      4  C   UNL     1       5.325   3.230  14.661  0.00  0.00    +0.000 C 
ATOM      5  C   UNL     1       5.778   3.902  15.925  0.00  0.00    +0.000 C 
ATOM      6  C   UNL     1       6.610   5.180  15.638  0.00  0.00    +0.000 C 
ENDROOT
BRANCH   5   7
ATOM      7  C   UNL     1       4.592   4.169  16.819  0.00  0.00    +0.000 A 
ATOM      8  C   UNL     1       3.853   3.235  17.501  0.00  0.00    +0.000 A 
ATOM      9  N   UNL     1       2.873   3.838  18.286  0.00  0.00    +0.000 N 
ATOM     10  C   UNL     1       2.021   3.029  19.090  0.00  0.00    +0.000 C 
ATOM     11  C   UNL     1       0.969   3.633  19.955  0.00  0.00    +0.000 C 
ATOM     12  O   UNL     1       2.175   1.812  19.052  0.00  0.00    +0.000 OA
ATOM     13  C   UNL     1       2.978   5.225  18.072  0.00  0.00    +0.000 A 
ATOM     14  C   UNL     1       2.287   6.352  18.571  0.00  0.00    +0.000 A 
ATOM     15  C   UNL     1       2.641   7.642  18.150  0.00  0.00    +0.000 A 
ATOM     16  C   UNL     1       3.667   7.841  17.248  0.00  0.00    +0.000 A 
ATOM     17  C   UNL     1       4.367   6.746  16.753  0.00  0.00    +0.000 A 
ATOM     18  C   UNL     1       4.032   5.432  17.156  0.00  0.00    +0.000 A 
ENDBRANCH   5   7
BRANCH   3  19
ATOM     19  C   UNL     1       5.152   2.972  12.240  0.00  0.00    +0.000 C 
ATOM     20  O   UNL     1       4.136   3.325  11.667  0.00  0.00    +0.000 OA
BRANCH  19  21
ATOM     21  O   UNL     1       5.900   1.910  11.865  0.00  0.00    +0.000 OA
ATOM     22  H   UNL     1       6.386   1.547  12.637  0.00  0.00    +0.000 HD
ENDBRANCH  19  21
ENDBRANCH   3  19
BRANCH   1  23
ATOM     23  O   UNL     1       8.301   6.051  14.097  0.00  0.00    +0.000 OA
BRANCH  23  25
ATOM     24  C   UNL     1       8.242   6.455  11.721  0.00  0.00    +0.000 C 
ATOM     25  C   UNL     1       9.027   5.867  12.877  0.00  0.00    +0.000 C 
ENDBRANCH  23  25
ENDBRANCH   1  23
BRANCH   6  26
ATOM     26  C   UNL     1       7.371   5.689  16.891  0.00  0.00    +0.000 C 
BRANCH  26  27
ATOM     27  C   UNL     1       7.432   4.725  18.079  0.00  0.00    +0.000 C 
BRANCH  27  28
ATOM     28  C   UNL     1       6.932   5.379  19.364  0.00  0.00    +0.000 C 
BRANCH  28  29
ATOM     29  O   UNL     1       7.994   5.437  20.308  0.00  0.00    +0.000 OA
ATOM     30  H   UNL     1       8.828   5.474  19.809  0.00  0.00    +0.000 HD
ENDBRANCH  28  29
ENDBRANCH  27  28
ENDBRANCH  26  27
ENDBRANCH   6  26
TORSDOF 9
ENDMDL
MODEL 8
REMARK VINA RESULT:      -6.1      5.863     11.233
REMARK  Name = 
REMARK  11 active torsions:
REMARK  status: ('A' for Active; 'I' for Inactive)
REMARK    1  A    between atoms: C_1  and  C_2
REMARK    2  A    between atoms: C_2  and  O_3
REMARK    3  A    between atoms: O_3  and  C_4
REMARK    4  A    between atoms: C_6  and  C_7
REMARK    5  A    between atoms: C_7  and  O_9
REMARK    6  A    between atoms: C_11  and  C_12
REMARK    7  A    between atoms: C_15  and  C_16
REMARK    8  A    between atoms: C_24  and  C_25
REMARK    9  A    between atoms: C_25  and  C_26
REMARK   10  A    between atoms: C_26  and  C_27
REMARK   11  A    between atoms: C_27  and  O_28
REMARK                            x       y       z     vdW  Elec       q    Type
REMARK                         _______ _______ _______ _____ _____    ______ ____
ROOT
ATOM      1  C   UNL     1      -0.152  10.915  18.726  0.00  0.00    +0.000 C 
ATOM      2  O   UNL     1       0.504  11.434  19.900  0.00  0.00    +0.000 OA
ATOM      3  C   UNL     1       0.010  12.642  20.344  0.00  0.00    +0.000 C 
ATOM      4  C   UNL     1      -1.199  13.110  20.012  0.00  0.00    +0.000 C 
ATOM      5  C   UNL     1      -2.175  12.317  19.190  0.00  0.00    +0.000 C 
ATOM      6  C   UNL     1      -1.680  10.868  18.939  0.00  0.00    +0.000 C 
ENDROOT
BRANCH   5   7
ATOM      7  C   UNL     1      -3.540  12.361  19.829  0.00  0.00    +0.000 A 
ATOM      8  C   UNL     1      -3.815  12.433  21.172  0.00  0.00    +0.000 A 
ATOM      9  N   UNL     1      -5.185  12.527  21.406  0.00  0.00    +0.000 N 
ATOM     10  C   UNL     1      -5.663  12.638  22.742  0.00  0.00    +0.000 C 
ATOM     11  C   UNL     1      -7.120  12.755  23.036  0.00  0.00    +0.000 C 
ATOM     12  O   UNL     1      -4.840  12.634  23.653  0.00  0.00    +0.000 OA
ATOM     13  C   UNL     1      -5.815  12.488  20.148  0.00  0.00    +0.000 A 
ATOM     14  C   UNL     1      -7.160  12.547  19.719  0.00  0.00    +0.000 A 
ATOM     15  C   UNL     1      -7.471  12.480  18.354  0.00  0.00    +0.000 A 
ATOM     16  C   UNL     1      -6.478  12.359  17.402  0.00  0.00    +0.000 A 
ATOM     17  C   UNL     1      -5.147  12.310  17.802  0.00  0.00    +0.000 A 
ATOM     18  C   UNL     1      -4.801  12.373  19.172  0.00  0.00    +0.000 A 
ENDBRANCH   5   7
BRANCH   3  19
ATOM     19  C   UNL     1       0.876  13.450  21.252  0.00  0.00    +0.000 C 
ATOM     20  O   UNL     1       2.095  13.428  21.268  0.00  0.00    +0.000 OA
BRANCH  19  21
ATOM     21  O   UNL     1       0.123  14.209  22.080  0.00  0.00    +0.000 OA
ATOM     22  H   UNL     1      -0.084  13.713  22.901  0.00  0.00    +0.000 HD
ENDBRANCH  19  21
ENDBRANCH   3  19
BRANCH   1  23
ATOM     23  O   UNL     1       0.363   9.603  18.462  0.00  0.00    +0.000 OA
BRANCH  23  25
ATOM     24  C   UNL     1       2.352   8.313  18.025  0.00  0.00    +0.000 C 
ATOM     25  C   UNL     1       1.673   9.662  17.888  0.00  0.00    +0.000 C 
ENDBRANCH  23  25
ENDBRANCH   1  23
BRANCH   6  26
ATOM     26  C   UNL     1      -2.483  10.149  17.823  0.00  0.00    +0.000 C 
BRANCH  26  27
ATOM     27  C   UNL     1      -2.338  10.726  16.411  0.00  0.00    +0.000 C 
BRANCH  27  28
ATOM     28  C   UNL     1      -2.965   9.814  15.360  0.00  0.00    +0.000 C 
BRANCH  28  29
ATOM     29  O   UNL     1      -4.231  10.335  14.978  0.00  0.00    +0.000 OA
ATOM     30  H   UNL     1      -4.710   9.630  14.510  0.00  0.00    +0.000 HD
ENDBRANCH  28  29
ENDBRANCH  27  28
ENDBRANCH  26  27
ENDBRANCH   6  26
TORSDOF 9
ENDMDL
MODEL 9
REMARK VINA RESULT:      -6.1      6.110     10.043
REMARK  Name = 
REMARK  11 active torsions:
REMARK  status: ('A' for Active; 'I' for Inactive)
REMARK    1  A    between atoms: C_1  and  C_2
REMARK    2  A    between atoms: C_2  and  O_3
REMARK    3  A    between atoms: O_3  and  C_4
REMARK    4  A    between atoms: C_6  and  C_7
REMARK    5  A    between atoms: C_7  and  O_9
REMARK    6  A    between atoms: C_11  and  C_12
REMARK    7  A    between atoms: C_15  and  C_16
REMARK    8  A    between atoms: C_24  and  C_25
REMARK    9  A    between atoms: C_25  and  C_26
REMARK   10  A    between atoms: C_26  and  C_27
REMARK   11  A    between atoms: C_27  and  O_28
REMARK                            x       y       z     vdW  Elec       q    Type
REMARK                         _______ _______ _______ _____ _____    ______ ____
ROOT
ATOM      1  C   UNL     1      -3.380  15.350  22.644  0.00  0.00    +0.000 C 
ATOM      2  O   UNL     1      -3.737  14.512  23.760  0.00  0.00    +0.000 OA
ATOM      3  C   UNL     1      -4.235  13.275  23.411  0.00  0.00    +0.000 C 
ATOM      4  C   UNL     1      -4.038  12.715  22.212  0.00  0.00    +0.000 C 
ATOM      5  C   UNL     1      -3.175  13.346  21.156  0.00  0.00    +0.000 C 
ATOM      6  C   UNL     1      -2.429  14.598  21.688  0.00  0.00    +0.000 C 
ENDROOT
BRANCH   5   7
ATOM      7  C   UNL     1      -2.240  12.316  20.574  0.00  0.00    +0.000 A 
ATOM      8  C   UNL     1      -1.146  11.761  21.190  0.00  0.00    +0.000 A 
ATOM      9  N   UNL     1      -0.548  10.792  20.387  0.00  0.00    +0.000 N 
ATOM     10  C   UNL     1       0.588  10.084  20.870  0.00  0.00    +0.000 C 
ATOM     11  C   UNL     1       1.250   9.029  20.050  0.00  0.00    +0.000 C 
ATOM     12  O   UNL     1       1.015  10.366  21.986  0.00  0.00    +0.000 OA
ATOM     13  C   UNL     1      -1.286  10.746  19.189  0.00  0.00    +0.000 A 
ATOM     14  C   UNL     1      -1.191   9.982  18.004  0.00  0.00    +0.000 A 
ATOM     15  C   UNL     1      -2.105  10.180  16.960  0.00  0.00    +0.000 A 
ATOM     16  C   UNL     1      -3.115  11.116  17.065  0.00  0.00    +0.000 A 
ATOM     17  C   UNL     1      -3.233  11.870  18.227  0.00  0.00    +0.000 A 
ATOM     18  C   UNL     1      -2.325  11.697  19.297  0.00  0.00    +0.000 A 
ENDBRANCH   5   7
BRANCH   3  19
ATOM     19  C   UNL     1      -5.020  12.531  24.439  0.00  0.00    +0.000 C 
ATOM     20  O   UNL     1      -6.077  11.959  24.241  0.00  0.00    +0.000 OA
BRANCH  19  21
ATOM     21  O   UNL     1      -4.407  12.592  25.643  0.00  0.00    +0.000 OA
ATOM     22  H   UNL     1      -5.071  12.686  26.358  0.00  0.00    +0.000 HD
ENDBRANCH  19  21
ENDBRANCH   3  19
BRANCH   1  23
ATOM     23  O   UNL     1      -2.752  16.537  23.150  0.00  0.00    +0.000 OA
BRANCH  23  25
ATOM     24  C   UNL     1      -0.585  16.628  24.202  0.00  0.00    +0.000 C 
ATOM     25  C   UNL     1      -2.051  16.277  24.370  0.00  0.00    +0.000 C 
ENDBRANCH  23  25
ENDBRANCH   1  23
BRANCH   6  26
ATOM     26  C   UNL     1      -1.818  15.456  20.549  0.00  0.00    +0.000 C 
BRANCH  26  27
ATOM     27  C   UNL     1      -0.292  15.595  20.556  0.00  0.00    +0.000 C 
BRANCH  27  28
ATOM     28  C   UNL     1       0.359  14.727  19.484  0.00  0.00    +0.000 C 
BRANCH  28  29
ATOM     29  O   UNL     1      -0.542  14.565  18.396  0.00  0.00    +0.000 OA
ATOM     30  H   UNL     1      -0.709  13.613  18.292  0.00  0.00    +0.000 HD
ENDBRANCH  28  29
ENDBRANCH  27  28
ENDBRANCH  26  27
ENDBRANCH   6  26
TORSDOF 9
ENDMDL
