MODEL 1
REMARK VINA RESULT:      -7.8      0.000      0.000
REMARK  Name = 
REMARK  10 active torsions:
REMARK  status: ('A' for Active; 'I' for Inactive)
REMARK    1  A    between atoms: C_1  and  C_2
REMARK    2  A    between atoms: C_2  and  C_4
REMARK    3  A    between atoms: C_5  and  O_6
REMARK    4  A    between atoms: O_6  and  C_7
REMARK    5  A    between atoms: C_7  and  C_8
REMARK    6  A    between atoms: C_8  and  C_9
REMARK    7  A    between atoms: C_9  and  N_10
REMARK    8  A    between atoms: N_13  and  C_14
REMARK    9  A    between atoms: C_17  and  N_18
REMARK   10  A    between atoms: C_28  and  C_29
REMARK                            x       y       z     vdW  Elec       q    Type
REMARK                         _______ _______ _______ _____ _____    ______ ____
ROOT
ATOM      1  C   UNL     1       2.228  10.852  18.049  0.00  0.00    +0.000 C 
ENDROOT
BRANCH   1   2
ATOM      2  O   UNL     1       1.460   9.928  18.835  0.00  0.00    +0.000 OA
BRANCH   2   4
ATOM      3  C   UNL     1       1.654   7.792  19.902  0.00  0.00    +0.000 A 
ATOM      4  C   UNL     1       1.909   8.632  18.808  0.00  0.00    +0.000 A 
ATOM      5  C   UNL     1       2.658   8.134  17.735  0.00  0.00    +0.000 A 
ATOM      6  C   UNL     1       3.110   6.812  17.712  0.00  0.00    +0.000 A 
ATOM      7  C   UNL     1       2.853   5.950  18.772  0.00  0.00    +0.000 A 
ATOM      8  C   UNL     1       3.317   4.553  18.805  0.00  0.00    +0.000 A 
ATOM      9  C   UNL     1       4.085   3.921  17.679  0.00  0.00    +0.000 C 
ATOM     10  C   UNL     1       3.045   3.821  19.893  0.00  0.00    +0.000 A 
ATOM     11  C   UNL     1       2.281   4.316  21.043  0.00  0.00    +0.000 A 
ATOM     12  O   UNL     1       2.055   3.588  22.002  0.00  0.00    +0.000 OA
ATOM     13  O   UNL     1       1.823   5.614  20.955  0.00  0.00    +0.000 OA
ATOM     14  C   UNL     1       2.127   6.463  19.861  0.00  0.00    +0.000 A 
BRANCH   3  16
ATOM     15  C   UNL     1       1.692   9.008  22.199  0.00  0.00    +0.000 C 
ATOM     16  C   UNL     1       0.935   8.272  21.123  0.00  0.00    +0.000 C 
ATOM     17  O   UNL     1      -0.268   8.053  21.255  0.00  0.00    +0.000 OA
ENDBRANCH   3  16
ENDBRANCH   2   4
ENDBRANCH   1   2
BRANCH   1  18
ATOM     18  C   UNL     1       1.941  12.268  18.527  0.00  0.00    +0.000 C 
BRANCH  18  19
ATOM     19  C   UNL     1       1.277  12.290  19.908  0.00  0.00    +0.000 C 
BRANCH  19  20
ATOM     20  N   UNL     1       0.585  13.547  20.243  0.00  0.00    +0.000 NA
ATOM     21  C   UNL     1      -0.734  13.695  19.586  0.00  0.00    +0.000 C 
ATOM     22  C   UNL     1      -1.845  12.738  20.076  0.00  0.00    +0.000 C 
ATOM     23  N   UNL     1      -1.942  12.741  21.547  0.00  0.00    +0.000 N 
ATOM     24  C   UNL     1      -0.668  12.647  22.278  0.00  0.00    +0.000 C 
ATOM     25  C   UNL     1       0.361  13.653  21.708  0.00  0.00    +0.000 C 
BRANCH  23  26
ATOM     26  C   UNL     1      -3.173  12.812  22.170  0.00  0.00    +0.000 A 
ATOM     27  C   UNL     1      -3.335  12.440  23.517  0.00  0.00    +0.000 A 
ATOM     28  C   UNL     1      -4.591  12.380  24.131  0.00  0.00    +0.000 A 
ATOM     29  C   UNL     1      -5.725  12.720  23.395  0.00  0.00    +0.000 A 
ATOM     30  C   UNL     1      -5.601  13.153  22.074  0.00  0.00    +0.000 A 
ATOM     31  C   UNL     1      -4.334  13.200  21.480  0.00  0.00    +0.000 A 
BRANCH  29  32
ATOM     32  N   UNL     1      -7.053  12.594  24.002  0.00  0.00    +0.000 N 
ATOM     33  O   UNL     1      -7.626  11.499  23.914  0.00  0.00    +0.000 OA
ATOM     34  O   UNL     1      -7.530  13.594  24.561  0.00  0.00    +0.000 OA
ENDBRANCH  29  32
ENDBRANCH  23  26
ENDBRANCH  19  20
ENDBRANCH  18  19
ENDBRANCH   1  18
TORSDOF 8
ENDMDL
MODEL 2
REMARK VINA RESULT:      -7.8      4.472      8.213
REMARK  Name = 
REMARK  10 active torsions:
REMARK  status: ('A' for Active; 'I' for Inactive)
REMARK    1  A    between atoms: C_1  and  C_2
REMARK    2  A    between atoms: C_2  and  C_4
REMARK    3  A    between atoms: C_5  and  O_6
REMARK    4  A    between atoms: O_6  and  C_7
REMARK    5  A    between atoms: C_7  and  C_8
REMARK    6  A    between atoms: C_8  and  C_9
REMARK    7  A    between atoms: C_9  and  N_10
REMARK    8  A    between atoms: N_13  and  C_14
REMARK    9  A    between atoms: C_17  and  N_18
REMARK   10  A    between atoms: C_28  and  C_29
REMARK                            x       y       z     vdW  Elec       q    Type
REMARK                         _______ _______ _______ _____ _____    ______ ____
ROOT
ATOM      1  C   UNL     1       5.288   3.368  19.328  0.00  0.00    +0.000 C 
ENDROOT
BRANCH   1   2
ATOM      2  O   UNL     1       5.054   4.535  18.526  0.00  0.00    +0.000 OA
BRANCH   2   4
ATOM      3  C   UNL     1       6.440   5.073  16.646  0.00  0.00    +0.000 A 
ATOM      4  C   UNL     1       5.343   4.389  17.193  0.00  0.00    +0.000 A 
ATOM      5  C   UNL     1       4.544   3.609  16.347  0.00  0.00    +0.000 A 
ATOM      6  C   UNL     1       4.845   3.461  14.991  0.00  0.00    +0.000 A 
ATOM      7  C   UNL     1       5.939   4.109  14.426  0.00  0.00    +0.000 A 
ATOM      8  C   UNL     1       6.292   3.998  13.002  0.00  0.00    +0.000 A 
ATOM      9  C   UNL     1       5.521   3.149  12.032  0.00  0.00    +0.000 C 
ATOM     10  C   UNL     1       7.346   4.694  12.555  0.00  0.00    +0.000 A 
ATOM     11  C   UNL     1       8.191   5.537  13.407  0.00  0.00    +0.000 A 
ATOM     12  O   UNL     1       9.150   6.136  12.937  0.00  0.00    +0.000 OA
ATOM     13  O   UNL     1       7.857   5.578  14.745  0.00  0.00    +0.000 OA
ATOM     14  C   UNL     1       6.720   4.915  15.272  0.00  0.00    +0.000 A 
BRANCH   3  16
ATOM     15  C   UNL     1       7.112   7.484  17.347  0.00  0.00    +0.000 C 
ATOM     16  C   UNL     1       7.291   5.991  17.463  0.00  0.00    +0.000 C 
ATOM     17  O   UNL     1       8.146   5.530  18.217  0.00  0.00    +0.000 OA
ENDBRANCH   3  16
ENDBRANCH   2   4
ENDBRANCH   1   2
BRANCH   1  18
ATOM     18  C   UNL     1       4.002   2.995  20.050  0.00  0.00    +0.000 C 
BRANCH  18  19
ATOM     19  C   UNL     1       2.917   2.506  19.084  0.00  0.00    +0.000 C 
BRANCH  19  20
ATOM     20  N   UNL     1       1.580   3.082  19.310  0.00  0.00    +0.000 NA
ATOM     21  C   UNL     1       1.442   3.773  20.613  0.00  0.00    +0.000 C 
ATOM     22  C   UNL     1       2.236   5.090  20.767  0.00  0.00    +0.000 C 
ATOM     23  N   UNL     1       2.008   5.990  19.622  0.00  0.00    +0.000 N 
ATOM     24  C   UNL     1       2.080   5.368  18.290  0.00  0.00    +0.000 C 
ATOM     25  C   UNL     1       1.243   4.067  18.251  0.00  0.00    +0.000 C 
BRANCH  23  26
ATOM     26  C   UNL     1       1.761   7.334  19.823  0.00  0.00    +0.000 A 
ATOM     27  C   UNL     1       1.351   7.824  21.076  0.00  0.00    +0.000 A 
ATOM     28  C   UNL     1       0.970   9.156  21.271  0.00  0.00    +0.000 A 
ATOM     29  C   UNL     1       1.016  10.041  20.195  0.00  0.00    +0.000 A 
ATOM     30  C   UNL     1       1.475   9.609  18.950  0.00  0.00    +0.000 A 
ATOM     31  C   UNL     1       1.845   8.270  18.779  0.00  0.00    +0.000 A 
BRANCH  29  32
ATOM     32  N   UNL     1       0.552  11.421  20.367  0.00  0.00    +0.000 N 
ATOM     33  O   UNL     1       1.224  12.170  21.089  0.00  0.00    +0.000 OA
ATOM     34  O   UNL     1      -0.492  11.754  19.786  0.00  0.00    +0.000 OA
ENDBRANCH  29  32
ENDBRANCH  23  26
ENDBRANCH  19  20
ENDBRANCH  18  19
ENDBRANCH   1  18
TORSDOF 8
ENDMDL
MODEL 3
REMARK VINA RESULT:      -7.7      8.644     10.056
REMARK  Name = 
REMARK  10 active torsions:
REMARK  status: ('A' for Active; 'I' for Inactive)
REMARK    1  A    between atoms: C_1  and  C_2
REMARK    2  A    between atoms: C_2  and  C_4
REMARK    3  A    between atoms: C_5  and  O_6
REMARK    4  A    between atoms: O_6  and  C_7
REMARK    5  A    between atoms: C_7  and  C_8
REMARK    6  A    between atoms: C_8  and  C_9
REMARK    7  A    between atoms: C_9  and  N_10
REMARK    8  A    between atoms: N_13  and  C_14
REMARK    9  A    between atoms: C_17  and  N_18
REMARK   10  A    between atoms: C_28  and  C_29
REMARK                            x       y       z     vdW  Elec       q    Type
REMARK                         _______ _______ _______ _____ _____    ______ ____
ROOT
ATOM      1  C   UNL     1       6.979   8.636  17.359  0.00  0.00    +0.000 C 
ENDROOT
BRANCH   1   2
ATOM      2  O   UNL     1       7.053   7.278  16.900  0.00  0.00    +0.000 OA
BRANCH   2   4
ATOM      3  C   UNL     1       6.306   5.362  18.129  0.00  0.00    +0.000 A 
ATOM      4  C   UNL     1       6.026   6.469  17.314  0.00  0.00    +0.000 A 
ATOM      5  C   UNL     1       4.704   6.692  16.909  0.00  0.00    +0.000 A 
ATOM      6  C   UNL     1       3.661   5.866  17.337  0.00  0.00    +0.000 A 
ATOM      7  C   UNL     1       3.906   4.775  18.163  0.00  0.00    +0.000 A 
ATOM      8  C   UNL     1       2.847   3.866  18.631  0.00  0.00    +0.000 A 
ATOM      9  C   UNL     1       1.397   4.054  18.286  0.00  0.00    +0.000 C 
ATOM     10  C   UNL     1       3.199   2.823  19.394  0.00  0.00    +0.000 A 
ATOM     11  C   UNL     1       4.575   2.548  19.820  0.00  0.00    +0.000 A 
ATOM     12  O   UNL     1       4.827   1.583  20.531  0.00  0.00    +0.000 OA
ATOM     13  O   UNL     1       5.533   3.448  19.400  0.00  0.00    +0.000 OA
ATOM     14  C   UNL     1       5.238   4.537  18.543  0.00  0.00    +0.000 A 
BRANCH   3  16
ATOM     15  C   UNL     1       8.311   5.642  19.759  0.00  0.00    +0.000 C 
ATOM     16  C   UNL     1       7.701   5.007  18.535  0.00  0.00    +0.000 C 
ATOM     17  O   UNL     1       8.354   4.212  17.862  0.00  0.00    +0.000 OA
ENDBRANCH   3  16
ENDBRANCH   2   4
ENDBRANCH   1   2
BRANCH   1  18
ATOM     18  C   UNL     1       8.292   9.006  18.033  0.00  0.00    +0.000 C 
BRANCH  18  19
ATOM     19  C   UNL     1       8.536  10.519  18.036  0.00  0.00    +0.000 C 
BRANCH  19  20
ATOM     20  N   UNL     1       9.863  10.933  18.522  0.00  0.00    +0.000 NA
ATOM     21  C   UNL     1      10.148  12.372  18.325  0.00  0.00    +0.000 C 
ATOM     22  C   UNL     1       9.323  13.350  19.192  0.00  0.00    +0.000 C 
ATOM     23  N   UNL     1       9.350  12.958  20.613  0.00  0.00    +0.000 N 
ATOM     24  C   UNL     1       9.123  11.531  20.892  0.00  0.00    +0.000 C 
ATOM     25  C   UNL     1      10.005  10.651  19.974  0.00  0.00    +0.000 C 
BRANCH  23  26
ATOM     26  C   UNL     1       9.560  13.903  21.598  0.00  0.00    +0.000 A 
ATOM     27  C   UNL     1       8.826  13.886  22.798  0.00  0.00    +0.000 A 
ATOM     28  C   UNL     1       8.928  14.903  23.753  0.00  0.00    +0.000 A 
ATOM     29  C   UNL     1       9.804  15.964  23.525  0.00  0.00    +0.000 A 
ATOM     30  C   UNL     1      10.595  15.987  22.376  0.00  0.00    +0.000 A 
ATOM     31  C   UNL     1      10.470  14.959  21.433  0.00  0.00    +0.000 A 
BRANCH  29  32
ATOM     32  N   UNL     1       9.869  17.073  24.482  0.00  0.00    +0.000 N 
ATOM     33  O   UNL     1      10.484  18.094  24.141  0.00  0.00    +0.000 OA
ATOM     34  O   UNL     1       9.314  16.920  25.580  0.00  0.00    +0.000 OA
ENDBRANCH  29  32
ENDBRANCH  23  26
ENDBRANCH  19  20
ENDBRANCH  18  19
ENDBRANCH   1  18
TORSDOF 8
ENDMDL
MODEL 4
REMARK VINA RESULT:      -7.6      4.652      8.383
REMARK  Name = 
REMARK  10 active torsions:
REMARK  status: ('A' for Active; 'I' for Inactive)
REMARK    1  A    between atoms: C_1  and  C_2
REMARK    2  A    between atoms: C_2  and  C_4
REMARK    3  A    between atoms: C_5  and  O_6
REMARK    4  A    between atoms: O_6  and  C_7
REMARK    5  A    between atoms: C_7  and  C_8
REMARK    6  A    between atoms: C_8  and  C_9
REMARK    7  A    between atoms: C_9  and  N_10
REMARK    8  A    between atoms: N_13  and  C_14
REMARK    9  A    between atoms: C_17  and  N_18
REMARK   10  A    between atoms: C_28  and  C_29
REMARK                            x       y       z     vdW  Elec       q    Type
REMARK                         _______ _______ _______ _____ _____    ______ ____
ROOT
ATOM      1  C   UNL     1       5.459   3.381  19.333  0.00  0.00    +0.000 C 
ENDROOT
BRANCH   1   2
ATOM      2  O   UNL     1       5.077   4.496  18.513  0.00  0.00    +0.000 OA
BRANCH   2   4
ATOM      3  C   UNL     1       6.456   5.048  16.633  0.00  0.00    +0.000 A 
ATOM      4  C   UNL     1       5.363   4.358  17.178  0.00  0.00    +0.000 A 
ATOM      5  C   UNL     1       4.566   3.580  16.330  0.00  0.00    +0.000 A 
ATOM      6  C   UNL     1       4.864   3.441  14.972  0.00  0.00    +0.000 A 
ATOM      7  C   UNL     1       5.954   4.095  14.409  0.00  0.00    +0.000 A 
ATOM      8  C   UNL     1       6.304   3.993  12.983  0.00  0.00    +0.000 A 
ATOM      9  C   UNL     1       5.534   3.147  12.010  0.00  0.00    +0.000 C 
ATOM     10  C   UNL     1       7.355   4.696  12.537  0.00  0.00    +0.000 A 
ATOM     11  C   UNL     1       8.199   5.537  13.393  0.00  0.00    +0.000 A 
ATOM     12  O   UNL     1       9.155   6.142  12.923  0.00  0.00    +0.000 OA
ATOM     13  O   UNL     1       7.867   5.569  14.731  0.00  0.00    +0.000 OA
ATOM     14  C   UNL     1       6.734   4.899  15.257  0.00  0.00    +0.000 A 
BRANCH   3  16
ATOM     15  C   UNL     1       7.099   7.457  17.370  0.00  0.00    +0.000 C 
ATOM     16  C   UNL     1       7.306   5.966  17.453  0.00  0.00    +0.000 C 
ATOM     17  O   UNL     1       8.183   5.505  18.182  0.00  0.00    +0.000 OA
ENDBRANCH   3  16
ENDBRANCH   2   4
ENDBRANCH   1   2
BRANCH   1  18
ATOM     18  C   UNL     1       4.261   2.936  20.157  0.00  0.00    +0.000 C 
BRANCH  18  19
ATOM     19  C   UNL     1       3.112   2.425  19.280  0.00  0.00    +0.000 C 
BRANCH  19  20
ATOM     20  N   UNL     1       1.779   2.935  19.645  0.00  0.00    +0.000 NA
ATOM     21  C   UNL     1       1.774   3.767  20.870  0.00  0.00    +0.000 C 
ATOM     22  C   UNL     1       2.469   5.142  20.756  0.00  0.00    +0.000 C 
ATOM     23  N   UNL     1       2.002   5.881  19.568  0.00  0.00    +0.000 N 
ATOM     24  C   UNL     1       1.931   5.109  18.317  0.00  0.00    +0.000 C 
ATOM     25  C   UNL     1       1.209   3.760  18.550  0.00  0.00    +0.000 C 
BRANCH  23  26
ATOM     26  C   UNL     1       1.675   7.220  19.657  0.00  0.00    +0.000 A 
ATOM     27  C   UNL     1       1.854   8.091  18.567  0.00  0.00    +0.000 A 
ATOM     28  C   UNL     1       1.653   9.472  18.672  0.00  0.00    +0.000 A 
ATOM     29  C   UNL     1       1.241  10.009  19.890  0.00  0.00    +0.000 A 
ATOM     30  C   UNL     1       0.993   9.171  20.978  0.00  0.00    +0.000 A 
ATOM     31  C   UNL     1       1.206   7.793  20.850  0.00  0.00    +0.000 A 
BRANCH  29  32
ATOM     32  N   UNL     1       1.096  11.460  20.035  0.00  0.00    +0.000 N 
ATOM     33  O   UNL     1       0.722  12.105  19.046  0.00  0.00    +0.000 OA
ATOM     34  O   UNL     1       1.366  11.959  21.138  0.00  0.00    +0.000 OA
ENDBRANCH  29  32
ENDBRANCH  23  26
ENDBRANCH  19  20
ENDBRANCH  18  19
ENDBRANCH   1  18
TORSDOF 8
ENDMDL
MODEL 5
REMARK VINA RESULT:      -7.4      2.016      3.342
REMARK  Name = 
REMARK  10 active torsions:
REMARK  status: ('A' for Active; 'I' for Inactive)
REMARK    1  A    between atoms: C_1  and  C_2
REMARK    2  A    between atoms: C_2  and  C_4
REMARK    3  A    between atoms: C_5  and  O_6
REMARK    4  A    between atoms: O_6  and  C_7
REMARK    5  A    between atoms: C_7  and  C_8
REMARK    6  A    between atoms: C_8  and  C_9
REMARK    7  A    between atoms: C_9  and  N_10
REMARK    8  A    between atoms: N_13  and  C_14
REMARK    9  A    between atoms: C_17  and  N_18
REMARK   10  A    between atoms: C_28  and  C_29
REMARK                            x       y       z     vdW  Elec       q    Type
REMARK                         _______ _______ _______ _____ _____    ______ ____
ROOT
ATOM      1  C   UNL     1       2.125   8.515  17.598  0.00  0.00    +0.000 C 
ENDROOT
BRANCH   1   2
ATOM      2  O   UNL     1       3.308   7.809  18.003  0.00  0.00    +0.000 OA
BRANCH   2   4
ATOM      3  C   UNL     1       4.007   5.630  18.710  0.00  0.00    +0.000 A 
ATOM      4  C   UNL     1       3.083   6.685  18.755  0.00  0.00    +0.000 A 
ATOM      5  C   UNL     1       1.930   6.540  19.537  0.00  0.00    +0.000 A 
ATOM      6  C   UNL     1       1.708   5.393  20.304  0.00  0.00    +0.000 A 
ATOM      7  C   UNL     1       2.617   4.341  20.296  0.00  0.00    +0.000 A 
ATOM      8  C   UNL     1       2.425   3.106  21.074  0.00  0.00    +0.000 A 
ATOM      9  C   UNL     1       1.244   2.883  21.975  0.00  0.00    +0.000 C 
ATOM     10  C   UNL     1       3.346   2.139  20.965  0.00  0.00    +0.000 A 
ATOM     11  C   UNL     1       4.554   2.249  20.140  0.00  0.00    +0.000 A 
ATOM     12  O   UNL     1       5.365   1.331  20.096  0.00  0.00    +0.000 OA
ATOM     13  O   UNL     1       4.722   3.439  19.464  0.00  0.00    +0.000 OA
ATOM     14  C   UNL     1       3.758   4.478  19.487  0.00  0.00    +0.000 A 
BRANCH   3  16
ATOM     15  C   UNL     1       5.136   5.179  16.413  0.00  0.00    +0.000 C 
ATOM     16  C   UNL     1       5.219   5.672  17.835  0.00  0.00    +0.000 C 
ATOM     17  O   UNL     1       6.285   6.093  18.281  0.00  0.00    +0.000 OA
ENDBRANCH   3  16
ENDBRANCH   2   4
ENDBRANCH   1   2
BRANCH   1  18
ATOM     18  C   UNL     1       2.142   9.907  18.211  0.00  0.00    +0.000 C 
BRANCH  18  19
ATOM     19  C   UNL     1       0.757  10.338  18.708  0.00  0.00    +0.000 C 
BRANCH  19  20
ATOM     20  N   UNL     1       0.615  11.779  18.977  0.00  0.00    +0.000 NA
ATOM     21  C   UNL     1      -0.648  12.359  18.466  0.00  0.00    +0.000 C 
ATOM     22  C   UNL     1      -1.939  11.910  19.189  0.00  0.00    +0.000 C 
ATOM     23  N   UNL     1      -1.806  12.042  20.651  0.00  0.00    +0.000 N 
ATOM     24  C   UNL     1      -0.554  11.533  21.233  0.00  0.00    +0.000 C 
ATOM     25  C   UNL     1       0.666  12.052  20.436  0.00  0.00    +0.000 C 
BRANCH  23  26
ATOM     26  C   UNL     1      -2.823  12.600  21.401  0.00  0.00    +0.000 A 
ATOM     27  C   UNL     1      -3.789  13.439  20.816  0.00  0.00    +0.000 A 
ATOM     28  C   UNL     1      -4.749  14.118  21.575  0.00  0.00    +0.000 A 
ATOM     29  C   UNL     1      -4.769  13.946  22.958  0.00  0.00    +0.000 A 
ATOM     30  C   UNL     1      -3.867  13.075  23.570  0.00  0.00    +0.000 A 
ATOM     31  C   UNL     1      -2.912  12.411  22.790  0.00  0.00    +0.000 A 
BRANCH  29  32
ATOM     32  N   UNL     1      -5.722  14.706  23.773  0.00  0.00    +0.000 N 
ATOM     33  O   UNL     1      -6.810  14.175  24.034  0.00  0.00    +0.000 OA
ATOM     34  O   UNL     1      -5.386  15.841  24.145  0.00  0.00    +0.000 OA
ENDBRANCH  29  32
ENDBRANCH  23  26
ENDBRANCH  19  20
ENDBRANCH  18  19
ENDBRANCH   1  18
TORSDOF 8
ENDMDL
MODEL 6
REMARK VINA RESULT:      -7.4      4.887     11.403
REMARK  Name = 
REMARK  10 active torsions:
REMARK  status: ('A' for Active; 'I' for Inactive)
REMARK    1  A    between atoms: C_1  and  C_2
REMARK    2  A    between atoms: C_2  and  C_4
REMARK    3  A    between atoms: C_5  and  O_6
REMARK    4  A    between atoms: O_6  and  C_7
REMARK    5  A    between atoms: C_7  and  C_8
REMARK    6  A    between atoms: C_8  and  C_9
REMARK    7  A    between atoms: C_9  and  N_10
REMARK    8  A    between atoms: N_13  and  C_14
REMARK    9  A    between atoms: C_17  and  N_18
REMARK   10  A    between atoms: C_28  and  C_29
REMARK                            x       y       z     vdW  Elec       q    Type
REMARK                         _______ _______ _______ _____ _____    ______ ____
ROOT
ATOM      1  C   UNL     1       1.273   5.594  20.761  0.00  0.00    +0.000 C 
ENDROOT
BRANCH   1   2
ATOM      2  O   UNL     1       1.991   6.751  20.306  0.00  0.00    +0.000 OA
BRANCH   2   4
ATOM      3  C   UNL     1       1.369   8.958  19.615  0.00  0.00    +0.000 A 
ATOM      4  C   UNL     1       1.395   7.952  20.593  0.00  0.00    +0.000 A 
ATOM      5  C   UNL     1       0.849   8.222  21.853  0.00  0.00    +0.000 A 
ATOM      6  C   UNL     1       0.241   9.447  22.139  0.00  0.00    +0.000 A 
ATOM      7  C   UNL     1       0.179  10.454  21.182  0.00  0.00    +0.000 A 
ATOM      8  C   UNL     1      -0.438  11.767  21.434  0.00  0.00    +0.000 A 
ATOM      9  C   UNL     1      -1.088  12.127  22.739  0.00  0.00    +0.000 C 
ATOM     10  C   UNL     1      -0.410  12.679  20.453  0.00  0.00    +0.000 A 
ATOM     11  C   UNL     1       0.172  12.438  19.128  0.00  0.00    +0.000 A 
ATOM     12  O   UNL     1       0.152  13.312  18.270  0.00  0.00    +0.000 OA
ATOM     13  O   UNL     1       0.698  11.181  18.914  0.00  0.00    +0.000 OA
ATOM     14  C   UNL     1       0.755  10.191  19.927  0.00  0.00    +0.000 A 
BRANCH   3  16
ATOM     15  C   UNL     1       2.537   7.429  17.869  0.00  0.00    +0.000 C 
ATOM     16  C   UNL     1       2.004   8.780  18.273  0.00  0.00    +0.000 C 
ATOM     17  O   UNL     1       2.106   9.737  17.508  0.00  0.00    +0.000 OA
ENDBRANCH   3  16
ENDBRANCH   2   4
ENDBRANCH   1   2
BRANCH   1  18
ATOM     18  C   UNL     1       2.258   4.461  21.004  0.00  0.00    +0.000 C 
BRANCH  18  19
ATOM     19  C   UNL     1       2.139   3.353  19.952  0.00  0.00    +0.000 C 
BRANCH  19  20
ATOM     20  N   UNL     1       3.380   2.602  19.698  0.00  0.00    +0.000 NA
ATOM     21  C   UNL     1       3.415   1.939  18.374  0.00  0.00    +0.000 C 
ATOM     22  C   UNL     1       3.517   2.878  17.151  0.00  0.00    +0.000 C 
ATOM     23  N   UNL     1       4.602   3.862  17.320  0.00  0.00    +0.000 N 
ATOM     24  C   UNL     1       4.666   4.531  18.629  0.00  0.00    +0.000 C 
ATOM     25  C   UNL     1       4.564   3.495  19.774  0.00  0.00    +0.000 C 
BRANCH  23  26
ATOM     26  C   UNL     1       5.477   4.127  16.285  0.00  0.00    +0.000 A 
ATOM     27  C   UNL     1       6.505   5.078  16.421  0.00  0.00    +0.000 A 
ATOM     28  C   UNL     1       7.321   5.457  15.349  0.00  0.00    +0.000 A 
ATOM     29  C   UNL     1       7.128   4.861  14.104  0.00  0.00    +0.000 A 
ATOM     30  C   UNL     1       6.160   3.870  13.942  0.00  0.00    +0.000 A 
ATOM     31  C   UNL     1       5.352   3.511  15.029  0.00  0.00    +0.000 A 
BRANCH  29  32
ATOM     32  N   UNL     1       7.926   5.300  12.955  0.00  0.00    +0.000 N 
ATOM     33  O   UNL     1       7.574   4.922  11.829  0.00  0.00    +0.000 OA
ATOM     34  O   UNL     1       8.914   6.016  13.179  0.00  0.00    +0.000 OA
ENDBRANCH  29  32
ENDBRANCH  23  26
ENDBRANCH  19  20
ENDBRANCH  18  19
ENDBRANCH   1  18
TORSDOF 8
ENDMDL
MODEL 7
REMARK VINA RESULT:      -7.3      4.904     11.189
REMARK  Name = 
REMARK  10 active torsions:
REMARK  status: ('A' for Active; 'I' for Inactive)
REMARK    1  A    between atoms: C_1  and  C_2
REMARK    2  A    between atoms: C_2  and  C_4
REMARK    3  A    between atoms: C_5  and  O_6
REMARK    4  A    between atoms: O_6  and  C_7
REMARK    5  A    between atoms: C_7  and  C_8
REMARK    6  A    between atoms: C_8  and  C_9
REMARK    7  A    between atoms: C_9  and  N_10
REMARK    8  A    between atoms: N_13  and  C_14
REMARK    9  A    between atoms: C_17  and  N_18
REMARK   10  A    between atoms: C_28  and  C_29
REMARK                            x       y       z     vdW  Elec       q    Type
REMARK                         _______ _______ _______ _____ _____    ______ ____
ROOT
ATOM      1  C   UNL     1       2.314   5.548  20.656  0.00  0.00    +0.000 C 
ENDROOT
BRANCH   1   2
ATOM      2  O   UNL     1       2.234   6.605  19.689  0.00  0.00    +0.000 OA
BRANCH   2   4
ATOM      3  C   UNL     1       1.563   8.870  19.291  0.00  0.00    +0.000 A 
ATOM      4  C   UNL     1       1.605   7.743  20.126  0.00  0.00    +0.000 A 
ATOM      5  C   UNL     1       1.041   7.829  21.404  0.00  0.00    +0.000 A 
ATOM      6  C   UNL     1       0.399   8.990  21.843  0.00  0.00    +0.000 A 
ATOM      7  C   UNL     1       0.322  10.115  21.029  0.00  0.00    +0.000 A 
ATOM      8  C   UNL     1      -0.330  11.367  21.446  0.00  0.00    +0.000 A 
ATOM      9  C   UNL     1      -1.001  11.534  22.779  0.00  0.00    +0.000 C 
ATOM     10  C   UNL     1      -0.315  12.403  20.596  0.00  0.00    +0.000 A 
ATOM     11  C   UNL     1       0.285  12.355  19.258  0.00  0.00    +0.000 A 
ATOM     12  O   UNL     1       0.251  13.335  18.524  0.00  0.00    +0.000 OA
ATOM     13  O   UNL     1       0.844  11.150  18.885  0.00  0.00    +0.000 OA
ATOM     14  C   UNL     1       0.916  10.035  19.757  0.00  0.00    +0.000 A 
BRANCH   3  16
ATOM     15  C   UNL     1       3.016   7.697  17.483  0.00  0.00    +0.000 C 
ATOM     16  C   UNL     1       2.215   8.888  17.945  0.00  0.00    +0.000 C 
ATOM     17  O   UNL     1       2.112   9.878  17.225  0.00  0.00    +0.000 OA
ENDBRANCH   3  16
ENDBRANCH   2   4
ENDBRANCH   1   2
BRANCH   1  18
ATOM     18  C   UNL     1       1.529   4.348  20.148  0.00  0.00    +0.000 C 
BRANCH  18  19
ATOM     19  C   UNL     1       2.119   3.020  20.636  0.00  0.00    +0.000 C 
BRANCH  19  20
ATOM     20  N   UNL     1       2.609   2.130  19.569  0.00  0.00    +0.000 NA
ATOM     21  C   UNL     1       2.158   2.519  18.214  0.00  0.00    +0.000 C 
ATOM     22  C   UNL     1       2.760   3.827  17.651  0.00  0.00    +0.000 C 
ATOM     23  N   UNL     1       4.229   3.841  17.785  0.00  0.00    +0.000 N 
ATOM     24  C   UNL     1       4.761   3.418  19.090  0.00  0.00    +0.000 C 
ATOM     25  C   UNL     1       4.094   2.098  19.547  0.00  0.00    +0.000 C 
BRANCH  23  26
ATOM     26  C   UNL     1       5.026   4.247  16.733  0.00  0.00    +0.000 A 
ATOM     27  C   UNL     1       4.554   4.234  15.408  0.00  0.00    +0.000 A 
ATOM     28  C   UNL     1       5.381   4.516  14.315  0.00  0.00    +0.000 A 
ATOM     29  C   UNL     1       6.717   4.845  14.541  0.00  0.00    +0.000 A 
ATOM     30  C   UNL     1       7.209   4.929  15.843  0.00  0.00    +0.000 A 
ATOM     31  C   UNL     1       6.363   4.636  16.920  0.00  0.00    +0.000 A 
BRANCH  29  32
ATOM     32  N   UNL     1       7.613   5.073  13.403  0.00  0.00    +0.000 N 
ATOM     33  O   UNL     1       8.653   5.715  13.607  0.00  0.00    +0.000 OA
ATOM     34  O   UNL     1       7.273   4.617  12.301  0.00  0.00    +0.000 OA
ENDBRANCH  29  32
ENDBRANCH  23  26
ENDBRANCH  19  20
ENDBRANCH  18  19
ENDBRANCH   1  18
TORSDOF 8
ENDMDL
MODEL 8
REMARK VINA RESULT:      -7.3      3.108      9.688
REMARK  Name = 
REMARK  10 active torsions:
REMARK  status: ('A' for Active; 'I' for Inactive)
REMARK    1  A    between atoms: C_1  and  C_2
REMARK    2  A    between atoms: C_2  and  C_4
REMARK    3  A    between atoms: C_5  and  O_6
REMARK    4  A    between atoms: O_6  and  C_7
REMARK    5  A    between atoms: C_7  and  C_8
REMARK    6  A    between atoms: C_8  and  C_9
REMARK    7  A    between atoms: C_9  and  N_10
REMARK    8  A    between atoms: N_13  and  C_14
REMARK    9  A    between atoms: C_17  and  N_18
REMARK   10  A    between atoms: C_28  and  C_29
REMARK                            x       y       z     vdW  Elec       q    Type
REMARK                         _______ _______ _______ _____ _____    ______ ____
ROOT
ATOM      1  C   UNL     1      -0.407  13.230  19.289  0.00  0.00    +0.000 C 
ENDROOT
BRANCH   1   2
ATOM      2  O   UNL     1      -1.327  13.540  20.346  0.00  0.00    +0.000 OA
BRANCH   2   4
ATOM      3  C   UNL     1      -3.546  13.223  21.192  0.00  0.00    +0.000 A 
ATOM      4  C   UNL     1      -2.590  13.032  20.182  0.00  0.00    +0.000 A 
ATOM      5  C   UNL     1      -2.944  12.285  19.052  0.00  0.00    +0.000 A 
ATOM      6  C   UNL     1      -4.233  11.772  18.889  0.00  0.00    +0.000 A 
ATOM      7  C   UNL     1      -5.207  11.964  19.863  0.00  0.00    +0.000 A 
ATOM      8  C   UNL     1      -6.575  11.435  19.749  0.00  0.00    +0.000 A 
ATOM      9  C   UNL     1      -7.056  10.663  18.553  0.00  0.00    +0.000 C 
ATOM     10  C   UNL     1      -7.424  11.648  20.763  0.00  0.00    +0.000 A 
ATOM     11  C   UNL     1      -7.082  12.407  21.971  0.00  0.00    +0.000 A 
ATOM     12  O   UNL     1      -7.911  12.578  22.856  0.00  0.00    +0.000 OA
ATOM     13  O   UNL     1      -5.805  12.928  22.020  0.00  0.00    +0.000 OA
ATOM     14  C   UNL     1      -4.840  12.689  21.010  0.00  0.00    +0.000 A 
BRANCH   3  16
ATOM     15  C   UNL     1      -2.660  13.167  23.635  0.00  0.00    +0.000 C 
ATOM     16  C   UNL     1      -3.223  13.935  22.467  0.00  0.00    +0.000 C 
ATOM     17  O   UNL     1      -3.432  15.143  22.566  0.00  0.00    +0.000 OA
ENDBRANCH   3  16
ENDBRANCH   2   4
ENDBRANCH   1   2
BRANCH   1  18
ATOM     18  C   UNL     1       0.958  12.931  19.890  0.00  0.00    +0.000 C 
BRANCH  18  19
ATOM     19  C   UNL     1       1.045  11.507  20.451  0.00  0.00    +0.000 C 
BRANCH  19  20
ATOM     20  N   UNL     1       0.232  10.508  19.737  0.00  0.00    +0.000 NA
ATOM     21  C   UNL     1       0.890   9.954  18.532  0.00  0.00    +0.000 C 
ATOM     22  C   UNL     1       2.113   9.044  18.788  0.00  0.00    +0.000 C 
ATOM     23  N   UNL     1       1.809   8.009  19.793  0.00  0.00    +0.000 N 
ATOM     24  C   UNL     1       1.109   8.471  21.002  0.00  0.00    +0.000 C 
ATOM     25  C   UNL     1      -0.098   9.363  20.625  0.00  0.00    +0.000 C 
BRANCH  23  26
ATOM     26  C   UNL     1       2.188   6.697  19.587  0.00  0.00    +0.000 A 
ATOM     27  C   UNL     1       1.935   5.702  20.549  0.00  0.00    +0.000 A 
ATOM     28  C   UNL     1       2.422   4.397  20.421  0.00  0.00    +0.000 A 
ATOM     29  C   UNL     1       3.168   4.056  19.294  0.00  0.00    +0.000 A 
ATOM     30  C   UNL     1       3.390   4.997  18.288  0.00  0.00    +0.000 A 
ATOM     31  C   UNL     1       2.896   6.299  18.441  0.00  0.00    +0.000 A 
BRANCH  29  32
ATOM     32  N   UNL     1       3.745   2.713  19.180  0.00  0.00    +0.000 N 
ATOM     33  O   UNL     1       4.701   2.432  19.917  0.00  0.00    +0.000 OA
ATOM     34  O   UNL     1       3.249   1.941  18.346  0.00  0.00    +0.000 OA
ENDBRANCH  29  32
ENDBRANCH  23  26
ENDBRANCH  19  20
ENDBRANCH  18  19
ENDBRANCH   1  18
TORSDOF 8
ENDMDL
MODEL 9
REMARK VINA RESULT:      -7.2      4.309      7.588
REMARK  Name = 
REMARK  10 active torsions:
REMARK  status: ('A' for Active; 'I' for Inactive)
REMARK    1  A    between atoms: C_1  and  C_2
REMARK    2  A    between atoms: C_2  and  C_4
REMARK    3  A    between atoms: C_5  and  O_6
REMARK    4  A    between atoms: O_6  and  C_7
REMARK    5  A    between atoms: C_7  and  C_8
REMARK    6  A    between atoms: C_8  and  C_9
REMARK    7  A    between atoms: C_9  and  N_10
REMARK    8  A    between atoms: N_13  and  C_14
REMARK    9  A    between atoms: C_17  and  N_18
REMARK   10  A    between atoms: C_28  and  C_29
REMARK                            x       y       z     vdW  Elec       q    Type
REMARK                         _______ _______ _______ _____ _____    ______ ____
ROOT
ATOM      1  C   UNL     1       4.921   3.259  19.324  0.00  0.00    +0.000 C 
ENDROOT
BRANCH   1   2
ATOM      2  O   UNL     1       5.127   4.493  18.621  0.00  0.00    +0.000 OA
BRANCH   2   4
ATOM      3  C   UNL     1       6.471   5.023  16.710  0.00  0.00    +0.000 A 
ATOM      4  C   UNL     1       5.372   4.361  17.278  0.00  0.00    +0.000 A 
ATOM      5  C   UNL     1       4.528   3.617  16.445  0.00  0.00    +0.000 A 
ATOM      6  C   UNL     1       4.785   3.482  15.078  0.00  0.00    +0.000 A 
ATOM      7  C   UNL     1       5.879   4.108  14.491  0.00  0.00    +0.000 A 
ATOM      8  C   UNL     1       6.188   4.011  13.055  0.00  0.00    +0.000 A 
ATOM      9  C   UNL     1       5.366   3.198  12.096  0.00  0.00    +0.000 C 
ATOM     10  C   UNL     1       7.247   4.685  12.588  0.00  0.00    +0.000 A 
ATOM     11  C   UNL     1       8.140   5.491  13.428  0.00  0.00    +0.000 A 
ATOM     12  O   UNL     1       9.101   6.071  12.938  0.00  0.00    +0.000 OA
ATOM     13  O   UNL     1       7.846   5.519  14.775  0.00  0.00    +0.000 OA
ATOM     14  C   UNL     1       6.707   4.879  15.325  0.00  0.00    +0.000 A 
BRANCH   3  16
ATOM     15  C   UNL     1       7.249   7.403  17.405  0.00  0.00    +0.000 C 
ATOM     16  C   UNL     1       7.371   5.905  17.515  0.00  0.00    +0.000 C 
ATOM     17  O   UNL     1       8.219   5.408  18.253  0.00  0.00    +0.000 OA
ENDBRANCH   3  16
ENDBRANCH   2   4
ENDBRANCH   1   2
BRANCH   1  18
ATOM     18  C   UNL     1       3.632   3.354  20.126  0.00  0.00    +0.000 C 
BRANCH  18  19
ATOM     19  C   UNL     1       3.165   4.803  20.305  0.00  0.00    +0.000 C 
BRANCH  19  20
ATOM     20  N   UNL     1       1.858   5.113  19.701  0.00  0.00    +0.000 NA
ATOM     21  C   UNL     1       0.934   5.827  20.612  0.00  0.00    +0.000 C 
ATOM     22  C   UNL     1       1.322   7.281  20.964  0.00  0.00    +0.000 C 
ATOM     23  N   UNL     1       1.636   8.060  19.752  0.00  0.00    +0.000 N 
ATOM     24  C   UNL     1       2.511   7.399  18.770  0.00  0.00    +0.000 C 
ATOM     25  C   UNL     1       2.022   5.958  18.490  0.00  0.00    +0.000 C 
BRANCH  23  26
ATOM     26  C   UNL     1       1.134   9.336  19.588  0.00  0.00    +0.000 A 
ATOM     27  C   UNL     1       1.703  10.233  18.665  0.00  0.00    +0.000 A 
ATOM     28  C   UNL     1       1.298  11.569  18.573  0.00  0.00    +0.000 A 
ATOM     29  C   UNL     1       0.281  12.030  19.407  0.00  0.00    +0.000 A 
ATOM     30  C   UNL     1      -0.351  11.157  20.293  0.00  0.00    +0.000 A 
ATOM     31  C   UNL     1       0.076   9.825  20.370  0.00  0.00    +0.000 A 
BRANCH  29  32
ATOM     32  N   UNL     1      -0.105  13.444  19.372  0.00  0.00    +0.000 N 
ATOM     33  O   UNL     1      -0.846  13.863  20.273  0.00  0.00    +0.000 OA
ATOM     34  O   UNL     1       0.325  14.137  18.437  0.00  0.00    +0.000 OA
ENDBRANCH  29  32
ENDBRANCH  23  26
ENDBRANCH  19  20
ENDBRANCH  18  19
ENDBRANCH   1  18
TORSDOF 8
ENDMDL
