MODEL 1
REMARK VINA RESULT:      -8.0      0.000      0.000
REMARK  Name = 
REMARK  7 active torsions:
REMARK  status: ('A' for Active; 'I' for Inactive)
REMARK    1  A    between atoms: C_1  and  N_2
REMARK    2  A    between atoms: C_9  and  O_10
REMARK    3  A    between atoms: O_10  and  C_11
REMARK    4  A    between atoms: C_11  and  C_13
REMARK    5  A    between atoms: C_13  and  C_14
REMARK    6  A    between atoms: C_13  and  C_15
REMARK    7  A    between atoms: C_13  and  C_21
REMARK                            x       y       z     vdW  Elec       q    Type
REMARK                         _______ _______ _______ _____ _____    ______ ____
ROOT
ATOM      1  C   UNL     1       5.607   5.434  15.776  0.00  0.00    +0.000 C 
ATOM      2  C   UNL     1       4.687   6.662  15.495  0.00  0.00    +0.000 C 
ENDROOT
BRANCH   1   3
ATOM      3  C   UNL     1       6.604   5.913  16.879  0.00  0.00    +0.000 A 
ATOM      4  C   UNL     1       6.972   7.254  17.075  0.00  0.00    +0.000 A 
ATOM      5  C   UNL     1       7.851   7.624  18.100  0.00  0.00    +0.000 A 
ATOM      6  C   UNL     1       8.358   6.666  18.973  0.00  0.00    +0.000 A 
ATOM      7  C   UNL     1       8.004   5.333  18.810  0.00  0.00    +0.000 A 
ATOM      8  C   UNL     1       7.152   4.959  17.768  0.00  0.00    +0.000 A 
ENDBRANCH   1   3
BRANCH   1   9
ATOM      9  C   UNL     1       6.282   4.960  14.445  0.00  0.00    +0.000 A 
ATOM     10  C   UNL     1       7.475   5.523  13.938  0.00  0.00    +0.000 A 
ATOM     11  C   UNL     1       8.024   5.110  12.719  0.00  0.00    +0.000 A 
ATOM     12  C   UNL     1       7.412   4.112  11.975  0.00  0.00    +0.000 A 
ATOM     13  C   UNL     1       6.240   3.527  12.452  0.00  0.00    +0.000 A 
ATOM     14  C   UNL     1       5.684   3.945  13.659  0.00  0.00    +0.000 A 
ENDBRANCH   1   9
BRANCH   1  15
ATOM     15  C   UNL     1       4.766   4.240  16.338  0.00  0.00    +0.000 C 
ATOM     16  O   UNL     1       5.214   3.123  16.584  0.00  0.00    +0.000 OA
BRANCH  15  17
ATOM     17  O   UNL     1       3.456   4.577  16.535  0.00  0.00    +0.000 OA
BRANCH  17  26
ATOM     18  C   UNL     1       3.158   1.889  21.828  0.00  0.00    +0.000 C 
ATOM     19  N   UNL     1       2.936   2.966  20.872  0.00  0.00    +0.000 NA
ATOM     20  C   UNL     1       1.675   3.678  21.064  0.00  0.00    +0.000 C 
ATOM     21  C   UNL     1       0.546   3.397  20.070  0.00  0.00    +0.000 C 
ATOM     22  C   UNL     1       1.009   3.082  18.644  0.00  0.00    +0.000 C 
ATOM     23  C   UNL     1       2.097   2.024  18.711  0.00  0.00    +0.000 C 
ATOM     24  C   UNL     1       3.277   2.586  19.495  0.00  0.00    +0.000 C 
ATOM     25  C   UNL     1       3.906   3.784  18.770  0.00  0.00    +0.000 C 
ATOM     26  C   UNL     1       2.982   4.659  17.912  0.00  0.00    +0.000 C 
ATOM     27  C   UNL     1       1.483   4.316  17.868  0.00  0.00    +0.000 C 
ENDBRANCH  17  26
ENDBRANCH  15  17
ENDBRANCH   1  15
TORSDOF 5
ENDMDL
MODEL 2
REMARK VINA RESULT:      -7.9      0.782      1.371
REMARK  Name = 
REMARK  7 active torsions:
REMARK  status: ('A' for Active; 'I' for Inactive)
REMARK    1  A    between atoms: C_1  and  N_2
REMARK    2  A    between atoms: C_9  and  O_10
REMARK    3  A    between atoms: O_10  and  C_11
REMARK    4  A    between atoms: C_11  and  C_13
REMARK    5  A    between atoms: C_13  and  C_14
REMARK    6  A    between atoms: C_13  and  C_15
REMARK    7  A    between atoms: C_13  and  C_21
REMARK                            x       y       z     vdW  Elec       q    Type
REMARK                         _______ _______ _______ _____ _____    ______ ____
ROOT
ATOM      1  C   UNL     1       5.665   5.152  15.789  0.00  0.00    +0.000 C 
ATOM      2  C   UNL     1       4.550   6.223  15.576  0.00  0.00    +0.000 C 
ENDROOT
BRANCH   1   3
ATOM      3  C   UNL     1       6.596   5.745  16.894  0.00  0.00    +0.000 A 
ATOM      4  C   UNL     1       7.229   4.975  17.882  0.00  0.00    +0.000 A 
ATOM      5  C   UNL     1       8.074   5.564  18.831  0.00  0.00    +0.000 A 
ATOM      6  C   UNL     1       8.331   6.931  18.794  0.00  0.00    +0.000 A 
ATOM      7  C   UNL     1       7.725   7.717  17.823  0.00  0.00    +0.000 A 
ATOM      8  C   UNL     1       6.857   7.135  16.895  0.00  0.00    +0.000 A 
ENDBRANCH   1   3
BRANCH   1   9
ATOM      9  C   UNL     1       6.376   4.848  14.427  0.00  0.00    +0.000 A 
ATOM     10  C   UNL     1       7.540   5.522  13.993  0.00  0.00    +0.000 A 
ATOM     11  C   UNL     1       8.121   5.260  12.748  0.00  0.00    +0.000 A 
ATOM     12  C   UNL     1       7.571   4.308  11.902  0.00  0.00    +0.000 A 
ATOM     13  C   UNL     1       6.430   3.616  12.304  0.00  0.00    +0.000 A 
ATOM     14  C   UNL     1       5.842   3.883  13.538  0.00  0.00    +0.000 A 
ENDBRANCH   1   9
BRANCH   1  15
ATOM     15  C   UNL     1       5.043   3.815  16.314  0.00  0.00    +0.000 C 
ATOM     16  O   UNL     1       5.594   2.719  16.260  0.00  0.00    +0.000 OA
BRANCH  15  17
ATOM     17  O   UNL     1       3.800   3.999  16.854  0.00  0.00    +0.000 OA
BRANCH  17  26
ATOM     18  C   UNL     1       1.506   2.177  22.025  0.00  0.00    +0.000 C 
ATOM     19  N   UNL     1       2.322   3.017  21.158  0.00  0.00    +0.000 NA
ATOM     20  C   UNL     1       2.392   4.414  21.580  0.00  0.00    +0.000 C 
ATOM     21  C   UNL     1       1.585   5.436  20.776  0.00  0.00    +0.000 C 
ATOM     22  C   UNL     1       1.452   5.119  19.283  0.00  0.00    +0.000 C 
ATOM     23  C   UNL     1       1.008   3.675  19.132  0.00  0.00    +0.000 C 
ATOM     24  C   UNL     1       2.078   2.769  19.730  0.00  0.00    +0.000 C 
ATOM     25  C   UNL     1       3.398   2.881  18.955  0.00  0.00    +0.000 C 
ATOM     26  C   UNL     1       3.719   4.227  18.292  0.00  0.00    +0.000 C 
ATOM     27  C   UNL     1       2.732   5.391  18.483  0.00  0.00    +0.000 C 
ENDBRANCH  17  26
ENDBRANCH  15  17
ENDBRANCH   1  15
TORSDOF 5
ENDMDL
MODEL 3
REMARK VINA RESULT:      -7.8      4.118      6.017
REMARK  Name = 
REMARK  7 active torsions:
REMARK  status: ('A' for Active; 'I' for Inactive)
REMARK    1  A    between atoms: C_1  and  N_2
REMARK    2  A    between atoms: C_9  and  O_10
REMARK    3  A    between atoms: O_10  and  C_11
REMARK    4  A    between atoms: C_11  and  C_13
REMARK    5  A    between atoms: C_13  and  C_14
REMARK    6  A    between atoms: C_13  and  C_15
REMARK    7  A    between atoms: C_13  and  C_21
REMARK                            x       y       z     vdW  Elec       q    Type
REMARK                         _______ _______ _______ _____ _____    ______ ____
ROOT
ATOM      1  C   UNL     1       3.865   5.637  18.365  0.00  0.00    +0.000 C 
ATOM      2  C   UNL     1       4.632   5.922  19.694  0.00  0.00    +0.000 C 
ENDROOT
BRANCH   1   3
ATOM      3  C   UNL     1       2.716   4.655  18.759  0.00  0.00    +0.000 A 
ATOM      4  C   UNL     1       2.043   3.828  17.846  0.00  0.00    +0.000 A 
ATOM      5  C   UNL     1       1.038   2.949  18.266  0.00  0.00    +0.000 A 
ATOM      6  C   UNL     1       0.705   2.851  19.614  0.00  0.00    +0.000 A 
ATOM      7  C   UNL     1       1.359   3.651  20.542  0.00  0.00    +0.000 A 
ATOM      8  C   UNL     1       2.340   4.551  20.119  0.00  0.00    +0.000 A 
ENDBRANCH   1   3
BRANCH   1   9
ATOM      9  C   UNL     1       4.857   5.085  17.287  0.00  0.00    +0.000 A 
ATOM     10  C   UNL     1       4.435   4.527  16.059  0.00  0.00    +0.000 A 
ATOM     11  C   UNL     1       5.347   3.997  15.139  0.00  0.00    +0.000 A 
ATOM     12  C   UNL     1       6.708   4.022  15.406  0.00  0.00    +0.000 A 
ATOM     13  C   UNL     1       7.159   4.576  16.602  0.00  0.00    +0.000 A 
ATOM     14  C   UNL     1       6.253   5.093  17.525  0.00  0.00    +0.000 A 
ENDBRANCH   1   9
BRANCH   1  15
ATOM     15  C   UNL     1       3.234   6.956  17.806  0.00  0.00    +0.000 C 
ATOM     16  O   UNL     1       3.677   7.596  16.857  0.00  0.00    +0.000 OA
BRANCH  15  17
ATOM     17  O   UNL     1       2.113   7.326  18.496  0.00  0.00    +0.000 OA
BRANCH  17  26
ATOM     18  C   UNL     1      -0.463  10.801  22.572  0.00  0.00    +0.000 C 
ATOM     19  N   UNL     1       0.539  10.441  21.578  0.00  0.00    +0.000 NA
ATOM     20  C   UNL     1       1.034  11.572  20.798  0.00  0.00    +0.000 C 
ATOM     21  C   UNL     1       0.545  11.704  19.354  0.00  0.00    +0.000 C 
ATOM     22  C   UNL     1       0.278  10.373  18.643  0.00  0.00    +0.000 C 
ATOM     23  C   UNL     1      -0.580   9.504  19.545  0.00  0.00    +0.000 C 
ATOM     24  C   UNL     1       0.189   9.225  20.831  0.00  0.00    +0.000 C 
ATOM     25  C   UNL     1       1.459   8.408  20.553  0.00  0.00    +0.000 C 
ATOM     26  C   UNL     1       2.146   8.606  19.195  0.00  0.00    +0.000 C 
ATOM     27  C   UNL     1       1.556   9.639  18.219  0.00  0.00    +0.000 C 
ENDBRANCH  17  26
ENDBRANCH  15  17
ENDBRANCH   1  15
TORSDOF 5
ENDMDL
MODEL 4
REMARK VINA RESULT:      -7.8      0.481      1.042
REMARK  Name = 
REMARK  7 active torsions:
REMARK  status: ('A' for Active; 'I' for Inactive)
REMARK    1  A    between atoms: C_1  and  N_2
REMARK    2  A    between atoms: C_9  and  O_10
REMARK    3  A    between atoms: O_10  and  C_11
REMARK    4  A    between atoms: C_11  and  C_13
REMARK    5  A    between atoms: C_13  and  C_14
REMARK    6  A    between atoms: C_13  and  C_15
REMARK    7  A    between atoms: C_13  and  C_21
REMARK                            x       y       z     vdW  Elec       q    Type
REMARK                         _______ _______ _______ _____ _____    ______ ____
ROOT
ATOM      1  C   UNL     1       5.483   5.548  15.955  0.00  0.00    +0.000 C 
ATOM      2  C   UNL     1       4.651   6.830  15.644  0.00  0.00    +0.000 C 
ENDROOT
BRANCH   1   3
ATOM      3  C   UNL     1       6.509   5.982  17.050  0.00  0.00    +0.000 A 
ATOM      4  C   UNL     1       7.116   5.094  17.953  0.00  0.00    +0.000 A 
ATOM      5  C   UNL     1       8.049   5.543  18.896  0.00  0.00    +0.000 A 
ATOM      6  C   UNL     1       8.423   6.883  18.936  0.00  0.00    +0.000 A 
ATOM      7  C   UNL     1       7.846   7.783  18.049  0.00  0.00    +0.000 A 
ATOM      8  C   UNL     1       6.891   7.342  17.129  0.00  0.00    +0.000 A 
ENDBRANCH   1   3
BRANCH   1   9
ATOM      9  C   UNL     1       6.125   4.998  14.637  0.00  0.00    +0.000 A 
ATOM     10  C   UNL     1       7.376   5.434  14.143  0.00  0.00    +0.000 A 
ATOM     11  C   UNL     1       7.897   4.959  12.935  0.00  0.00    +0.000 A 
ATOM     12  C   UNL     1       7.197   4.022  12.188  0.00  0.00    +0.000 A 
ATOM     13  C   UNL     1       5.966   3.562  12.652  0.00  0.00    +0.000 A 
ATOM     14  C   UNL     1       5.438   4.043  13.848  0.00  0.00    +0.000 A 
ENDBRANCH   1   9
BRANCH   1  15
ATOM     15  C   UNL     1       4.561   4.428  16.542  0.00  0.00    +0.000 C 
ATOM     16  O   UNL     1       4.845   3.234  16.576  0.00  0.00    +0.000 OA
BRANCH  15  17
ATOM     17  O   UNL     1       3.384   4.928  17.026  0.00  0.00    +0.000 OA
BRANCH  17  26
ATOM     18  C   UNL     1       3.942   1.394  21.772  0.00  0.00    +0.000 C 
ATOM     19  N   UNL     1       3.553   2.601  21.055  0.00  0.00    +0.000 NA
ATOM     20  C   UNL     1       2.314   3.206  21.541  0.00  0.00    +0.000 C 
ATOM     21  C   UNL     1       1.059   3.034  20.682  0.00  0.00    +0.000 C 
ATOM     22  C   UNL     1       1.317   2.981  19.173  0.00  0.00    +0.000 C 
ATOM     23  C   UNL     1       2.431   1.985  18.904  0.00  0.00    +0.000 C 
ATOM     24  C   UNL     1       3.698   2.471  19.599  0.00  0.00    +0.000 C 
ATOM     25  C   UNL     1       4.180   3.803  19.008  0.00  0.00    +0.000 C 
ATOM     26  C   UNL     1       3.116   4.757  18.450  0.00  0.00    +0.000 C 
ATOM     27  C   UNL     1       1.637   4.350  18.559  0.00  0.00    +0.000 C 
ENDBRANCH  17  26
ENDBRANCH  15  17
ENDBRANCH   1  15
TORSDOF 5
ENDMDL
MODEL 5
REMARK VINA RESULT:      -7.7      5.701      7.865
REMARK  Name = 
REMARK  7 active torsions:
REMARK  status: ('A' for Active; 'I' for Inactive)
REMARK    1  A    between atoms: C_1  and  N_2
REMARK    2  A    between atoms: C_9  and  O_10
REMARK    3  A    between atoms: O_10  and  C_11
REMARK    4  A    between atoms: C_11  and  C_13
REMARK    5  A    between atoms: C_13  and  C_14
REMARK    6  A    between atoms: C_13  and  C_15
REMARK    7  A    between atoms: C_13  and  C_21
REMARK                            x       y       z     vdW  Elec       q    Type
REMARK                         _______ _______ _______ _____ _____    ______ ____
ROOT
ATOM      1  C   UNL     1       0.824  10.359  19.259  0.00  0.00    +0.000 C 
ATOM      2  C   UNL     1       0.707   9.806  20.713  0.00  0.00    +0.000 C 
ENDROOT
BRANCH   1   3
ATOM      3  C   UNL     1       1.561  11.729  19.401  0.00  0.00    +0.000 A 
ATOM      4  C   UNL     1       2.232  12.371  18.348  0.00  0.00    +0.000 A 
ATOM      5  C   UNL     1       2.853  13.613  18.533  0.00  0.00    +0.000 A 
ATOM      6  C   UNL     1       2.789  14.257  19.765  0.00  0.00    +0.000 A 
ATOM      7  C   UNL     1       2.124  13.649  20.823  0.00  0.00    +0.000 A 
ATOM      8  C   UNL     1       1.532  12.396  20.648  0.00  0.00    +0.000 A 
ENDBRANCH   1   3
BRANCH   1   9
ATOM      9  C   UNL     1      -0.597  10.445  18.607  0.00  0.00    +0.000 A 
ATOM     10  C   UNL     1      -0.998   9.643  17.514  0.00  0.00    +0.000 A 
ATOM     11  C   UNL     1      -2.259   9.781  16.923  0.00  0.00    +0.000 A 
ATOM     12  C   UNL     1      -3.166  10.710  17.413  0.00  0.00    +0.000 A 
ATOM     13  C   UNL     1      -2.807  11.508  18.497  0.00  0.00    +0.000 A 
ATOM     14  C   UNL     1      -1.548  11.382  19.080  0.00  0.00    +0.000 A 
ENDBRANCH   1   9
BRANCH   1  15
ATOM     15  C   UNL     1       1.697   9.403  18.380  0.00  0.00    +0.000 C 
ATOM     16  O   UNL     1       1.954   9.582  17.193  0.00  0.00    +0.000 OA
BRANCH  15  17
ATOM     17  O   UNL     1       2.158   8.327  19.087  0.00  0.00    +0.000 OA
BRANCH  17  26
ATOM     18  C   UNL     1       3.413   2.533  19.512  0.00  0.00    +0.000 C 
ATOM     19  N   UNL     1       2.985   3.752  18.838  0.00  0.00    +0.000 NA
ATOM     20  C   UNL     1       3.387   3.827  17.436  0.00  0.00    +0.000 C 
ATOM     21  C   UNL     1       4.538   4.769  17.079  0.00  0.00    +0.000 C 
ATOM     22  C   UNL     1       4.626   6.031  17.943  0.00  0.00    +0.000 C 
ATOM     23  C   UNL     1       4.545   5.626  19.404  0.00  0.00    +0.000 C 
ATOM     24  C   UNL     1       3.198   4.957  19.652  0.00  0.00    +0.000 C 
ATOM     25  C   UNL     1       2.040   5.940  19.429  0.00  0.00    +0.000 C 
ATOM     26  C   UNL     1       2.243   7.050  18.388  0.00  0.00    +0.000 C 
ATOM     27  C   UNL     1       3.563   7.083  17.600  0.00  0.00    +0.000 C 
ENDBRANCH  17  26
ENDBRANCH  15  17
ENDBRANCH   1  15
TORSDOF 5
ENDMDL
MODEL 6
REMARK VINA RESULT:      -7.7      0.759      1.352
REMARK  Name = 
REMARK  7 active torsions:
REMARK  status: ('A' for Active; 'I' for Inactive)
REMARK    1  A    between atoms: C_1  and  N_2
REMARK    2  A    between atoms: C_9  and  O_10
REMARK    3  A    between atoms: O_10  and  C_11
REMARK    4  A    between atoms: C_11  and  C_13
REMARK    5  A    between atoms: C_13  and  C_14
REMARK    6  A    between atoms: C_13  and  C_15
REMARK    7  A    between atoms: C_13  and  C_21
REMARK                            x       y       z     vdW  Elec       q    Type
REMARK                         _______ _______ _______ _____ _____    ______ ____
ROOT
ATOM      1  C   UNL     1       5.647   5.209  15.765  0.00  0.00    +0.000 C 
ATOM      2  C   UNL     1       4.514   6.266  15.581  0.00  0.00    +0.000 C 
ENDROOT
BRANCH   1   3
ATOM      3  C   UNL     1       6.614   5.827  16.825  0.00  0.00    +0.000 A 
ATOM      4  C   UNL     1       6.924   7.194  16.902  0.00  0.00    +0.000 A 
ATOM      5  C   UNL     1       7.779   7.690  17.894  0.00  0.00    +0.000 A 
ATOM      6  C   UNL     1       8.318   6.836  18.851  0.00  0.00    +0.000 A 
ATOM      7  C   UNL     1       8.023   5.480  18.806  0.00  0.00    +0.000 A 
ATOM      8  C   UNL     1       7.195   4.979  17.798  0.00  0.00    +0.000 A 
ENDBRANCH   1   3
BRANCH   1   9
ATOM      9  C   UNL     1       6.309   4.893  14.381  0.00  0.00    +0.000 A 
ATOM     10  C   UNL     1       5.784   3.950  13.469  0.00  0.00    +0.000 A 
ATOM     11  C   UNL     1       6.429   3.654  12.263  0.00  0.00    +0.000 A 
ATOM     12  C   UNL     1       7.607   4.301  11.920  0.00  0.00    +0.000 A 
ATOM     13  C   UNL     1       8.145   5.246  12.791  0.00  0.00    +0.000 A 
ATOM     14  C   UNL     1       7.513   5.533  13.998  0.00  0.00    +0.000 A 
ENDBRANCH   1   9
BRANCH   1  15
ATOM     15  C   UNL     1       5.060   3.874  16.332  0.00  0.00    +0.000 C 
ATOM     16  O   UNL     1       5.639   2.791  16.313  0.00  0.00    +0.000 OA
BRANCH  15  17
ATOM     17  O   UNL     1       3.813   4.042  16.866  0.00  0.00    +0.000 OA
BRANCH  17  26
ATOM     18  C   UNL     1       1.570   2.129  22.027  0.00  0.00    +0.000 C 
ATOM     19  N   UNL     1       2.360   2.998  21.164  0.00  0.00    +0.000 NA
ATOM     20  C   UNL     1       2.384   4.395  21.591  0.00  0.00    +0.000 C 
ATOM     21  C   UNL     1       1.547   5.394  20.790  0.00  0.00    +0.000 C 
ATOM     22  C   UNL     1       1.426   5.077  19.296  0.00  0.00    +0.000 C 
ATOM     23  C   UNL     1       1.029   3.620  19.139  0.00  0.00    +0.000 C 
ATOM     24  C   UNL     1       2.126   2.747  19.736  0.00  0.00    +0.000 C 
ATOM     25  C   UNL     1       3.443   2.904  18.963  0.00  0.00    +0.000 C 
ATOM     26  C   UNL     1       3.722   4.262  18.305  0.00  0.00    +0.000 C 
ATOM     27  C   UNL     1       2.698   5.393  18.498  0.00  0.00    +0.000 C 
ENDBRANCH  17  26
ENDBRANCH  15  17
ENDBRANCH   1  15
TORSDOF 5
ENDMDL
MODEL 7
REMARK VINA RESULT:      -7.7      3.895      6.166
REMARK  Name = 
REMARK  7 active torsions:
REMARK  status: ('A' for Active; 'I' for Inactive)
REMARK    1  A    between atoms: C_1  and  N_2
REMARK    2  A    between atoms: C_9  and  O_10
REMARK    3  A    between atoms: O_10  and  C_11
REMARK    4  A    between atoms: C_11  and  C_13
REMARK    5  A    between atoms: C_13  and  C_14
REMARK    6  A    between atoms: C_13  and  C_15
REMARK    7  A    between atoms: C_13  and  C_21
REMARK                            x       y       z     vdW  Elec       q    Type
REMARK                         _______ _______ _______ _____ _____    ______ ____
ROOT
ATOM      1  C   UNL     1       3.565   5.165  17.965  0.00  0.00    +0.000 C 
ATOM      2  C   UNL     1       3.319   4.407  16.623  0.00  0.00    +0.000 C 
ENDROOT
BRANCH   1   3
ATOM      3  C   UNL     1       5.113   5.134  18.174  0.00  0.00    +0.000 A 
ATOM      4  C   UNL     1       5.759   5.610  19.326  0.00  0.00    +0.000 A 
ATOM      5  C   UNL     1       7.150   5.530  19.464  0.00  0.00    +0.000 A 
ATOM      6  C   UNL     1       7.925   4.944  18.468  0.00  0.00    +0.000 A 
ATOM      7  C   UNL     1       7.313   4.456  17.320  0.00  0.00    +0.000 A 
ATOM      8  C   UNL     1       5.928   4.563  17.168  0.00  0.00    +0.000 A 
ENDBRANCH   1   3
BRANCH   1   9
ATOM      9  C   UNL     1       2.736   4.496  19.113  0.00  0.00    +0.000 A 
ATOM     10  C   UNL     1       3.074   4.609  20.480  0.00  0.00    +0.000 A 
ATOM     11  C   UNL     1       2.340   3.957  21.477  0.00  0.00    +0.000 A 
ATOM     12  C   UNL     1       1.236   3.185  21.144  0.00  0.00    +0.000 A 
ATOM     13  C   UNL     1       0.868   3.062  19.806  0.00  0.00    +0.000 A 
ATOM     14  C   UNL     1       1.604   3.700  18.810  0.00  0.00    +0.000 A 
ENDBRANCH   1   9
BRANCH   1  15
ATOM     15  C   UNL     1       3.100   6.654  17.842  0.00  0.00    +0.000 C 
ATOM     16  O   UNL     1       3.614   7.489  17.102  0.00  0.00    +0.000 OA
BRANCH  15  17
ATOM     17  O   UNL     1       2.040   6.934  18.659  0.00  0.00    +0.000 OA
BRANCH  17  26
ATOM     18  C   UNL     1      -0.433  10.173  22.986  0.00  0.00    +0.000 C 
ATOM     19  N   UNL     1       0.547   9.867  21.952  0.00  0.00    +0.000 NA
ATOM     20  C   UNL     1       1.034  11.041  21.230  0.00  0.00    +0.000 C 
ATOM     21  C   UNL     1       0.517  11.261  19.807  0.00  0.00    +0.000 C 
ATOM     22  C   UNL     1       0.228   9.976  19.024  0.00  0.00    +0.000 C 
ATOM     23  C   UNL     1      -0.618   9.059  19.890  0.00  0.00    +0.000 C 
ATOM     24  C   UNL     1       0.175   8.700  21.141  0.00  0.00    +0.000 C 
ATOM     25  C   UNL     1       1.434   7.895  20.789  0.00  0.00    +0.000 C 
ATOM     26  C   UNL     1       2.095   8.170  19.432  0.00  0.00    +0.000 C 
ATOM     27  C   UNL     1       1.493   9.262  18.532  0.00  0.00    +0.000 C 
ENDBRANCH  17  26
ENDBRANCH  15  17
ENDBRANCH   1  15
TORSDOF 5
ENDMDL
MODEL 8
REMARK VINA RESULT:      -7.7      0.111      1.311
REMARK  Name = 
REMARK  7 active torsions:
REMARK  status: ('A' for Active; 'I' for Inactive)
REMARK    1  A    between atoms: C_1  and  N_2
REMARK    2  A    between atoms: C_9  and  O_10
REMARK    3  A    between atoms: O_10  and  C_11
REMARK    4  A    between atoms: C_11  and  C_13
REMARK    5  A    between atoms: C_13  and  C_14
REMARK    6  A    between atoms: C_13  and  C_15
REMARK    7  A    between atoms: C_13  and  C_21
REMARK                            x       y       z     vdW  Elec       q    Type
REMARK                         _______ _______ _______ _____ _____    ______ ____
ROOT
ATOM      1  C   UNL     1       5.541   5.423  15.825  0.00  0.00    +0.000 C 
ATOM      2  C   UNL     1       4.616   6.655  15.576  0.00  0.00    +0.000 C 
ENDROOT
BRANCH   1   3
ATOM      3  C   UNL     1       6.537   5.878  16.940  0.00  0.00    +0.000 A 
ATOM      4  C   UNL     1       7.142   5.003  17.856  0.00  0.00    +0.000 A 
ATOM      5  C   UNL     1       8.047   5.470  18.816  0.00  0.00    +0.000 A 
ATOM      6  C   UNL     1       8.394   6.817  18.862  0.00  0.00    +0.000 A 
ATOM      7  C   UNL     1       7.819   7.705  17.963  0.00  0.00    +0.000 A 
ATOM      8  C   UNL     1       6.891   7.245  17.025  0.00  0.00    +0.000 A 
ENDBRANCH   1   3
BRANCH   1   9
ATOM      9  C   UNL     1       6.217   4.986  14.482  0.00  0.00    +0.000 A 
ATOM     10  C   UNL     1       5.671   4.005  13.623  0.00  0.00    +0.000 A 
ATOM     11  C   UNL     1       6.327   3.602  12.455  0.00  0.00    +0.000 A 
ATOM     12  C   UNL     1       7.539   4.174  12.097  0.00  0.00    +0.000 A 
ATOM     13  C   UNL     1       8.100   5.153  12.915  0.00  0.00    +0.000 A 
ATOM     14  C   UNL     1       7.455   5.548  14.085  0.00  0.00    +0.000 A 
ENDBRANCH   1   9
BRANCH   1  15
ATOM     15  C   UNL     1       4.705   4.212  16.357  0.00  0.00    +0.000 C 
ATOM     16  O   UNL     1       5.160   3.094  16.588  0.00  0.00    +0.000 OA
BRANCH  15  17
ATOM     17  O   UNL     1       3.390   4.534  16.546  0.00  0.00    +0.000 OA
BRANCH  17  26
ATOM     18  C   UNL     1       3.140   1.888  21.862  0.00  0.00    +0.000 C 
ATOM     19  N   UNL     1       2.894   2.950  20.896  0.00  0.00    +0.000 NA
ATOM     20  C   UNL     1       1.614   3.630  21.076  0.00  0.00    +0.000 C 
ATOM     21  C   UNL     1       0.497   3.311  20.081  0.00  0.00    +0.000 C 
ATOM     22  C   UNL     1       0.974   2.995  18.660  0.00  0.00    +0.000 C 
ATOM     23  C   UNL     1       2.089   1.967  18.740  0.00  0.00    +0.000 C 
ATOM     24  C   UNL     1       3.251   2.566  19.523  0.00  0.00    +0.000 C 
ATOM     25  C   UNL     1       3.851   3.774  18.791  0.00  0.00    +0.000 C 
ATOM     26  C   UNL     1       2.908   4.616  17.920  0.00  0.00    +0.000 C 
ATOM     27  C   UNL     1       1.419   4.234  17.873  0.00  0.00    +0.000 C 
ENDBRANCH  17  26
ENDBRANCH  15  17
ENDBRANCH   1  15
TORSDOF 5
ENDMDL
MODEL 9
REMARK VINA RESULT:      -7.6      5.729      7.778
REMARK  Name = 
REMARK  7 active torsions:
REMARK  status: ('A' for Active; 'I' for Inactive)
REMARK    1  A    between atoms: C_1  and  N_2
REMARK    2  A    between atoms: C_9  and  O_10
REMARK    3  A    between atoms: O_10  and  C_11
REMARK    4  A    between atoms: C_11  and  C_13
REMARK    5  A    between atoms: C_13  and  C_14
REMARK    6  A    between atoms: C_13  and  C_15
REMARK    7  A    between atoms: C_13  and  C_21
REMARK                            x       y       z     vdW  Elec       q    Type
REMARK                         _______ _______ _______ _____ _____    ______ ____
ROOT
ATOM      1  C   UNL     1       0.838  10.489  19.316  0.00  0.00    +0.000 C 
ATOM      2  C   UNL     1       0.686  10.063  20.810  0.00  0.00    +0.000 C 
ENDROOT
BRANCH   1   3
ATOM      3  C   UNL     1       1.609  11.847  19.354  0.00  0.00    +0.000 A 
ATOM      4  C   UNL     1       2.219  12.434  18.234  0.00  0.00    +0.000 A 
ATOM      5  C   UNL     1       2.874  13.668  18.328  0.00  0.00    +0.000 A 
ATOM      6  C   UNL     1       2.905  14.360  19.535  0.00  0.00    +0.000 A 
ATOM      7  C   UNL     1       2.302  13.808  20.658  0.00  0.00    +0.000 A 
ATOM      8  C   UNL     1       1.676  12.562  20.573  0.00  0.00    +0.000 A 
ENDBRANCH   1   3
BRANCH   1   9
ATOM      9  C   UNL     1      -0.571  10.554  18.636  0.00  0.00    +0.000 A 
ATOM     10  C   UNL     1      -0.969   9.686  17.594  0.00  0.00    +0.000 A 
ATOM     11  C   UNL     1      -2.218   9.805  16.974  0.00  0.00    +0.000 A 
ATOM     12  C   UNL     1      -3.115  10.781  17.383  0.00  0.00    +0.000 A 
ATOM     13  C   UNL     1      -2.759  11.645  18.416  0.00  0.00    +0.000 A 
ATOM     14  C   UNL     1      -1.512  11.538  19.027  0.00  0.00    +0.000 A 
ENDBRANCH   1   9
BRANCH   1  15
ATOM     15  C   UNL     1       1.699   9.440  18.536  0.00  0.00    +0.000 C 
ATOM     16  O   UNL     1       1.959   9.501  17.337  0.00  0.00    +0.000 OA
BRANCH  15  17
ATOM     17  O   UNL     1       2.144   8.431  19.344  0.00  0.00    +0.000 OA
BRANCH  17  26
ATOM     18  C   UNL     1       1.722   2.865  21.387  0.00  0.00    +0.000 C 
ATOM     19  N   UNL     1       1.433   3.974  20.486  0.00  0.00    +0.000 NA
ATOM     20  C   UNL     1       1.237   3.572  19.095  0.00  0.00    +0.000 C 
ATOM     21  C   UNL     1       2.366   3.873  18.107  0.00  0.00    +0.000 C 
ATOM     22  C   UNL     1       3.157   5.150  18.405  0.00  0.00    +0.000 C 
ATOM     23  C   UNL     1       3.559   5.142  19.869  0.00  0.00    +0.000 C 
ATOM     24  C   UNL     1       2.296   5.140  20.722  0.00  0.00    +0.000 C 
ATOM     25  C   UNL     1       1.486   6.428  20.521  0.00  0.00    +0.000 C 
ATOM     26  C   UNL     1       1.565   7.107  19.147  0.00  0.00    +0.000 C 
ATOM     27  C   UNL     1       2.402   6.436  18.045  0.00  0.00    +0.000 C 
ENDBRANCH  17  26
ENDBRANCH  15  17
ENDBRANCH   1  15
TORSDOF 5
ENDMDL
