MODEL 1
REMARK VINA RESULT:      -8.9      0.000      0.000
REMARK  Name = 
REMARK  10 active torsions:
REMARK  status: ('A' for Active; 'I' for Inactive)
REMARK    1  A    between atoms: C_1  and  N_2
REMARK    2  A    between atoms: N_14  and  C_15
REMARK    3  A    between atoms: C_15  and  C_16
REMARK    4  A    between atoms: C_16  and  C_17
REMARK    5  A    between atoms: C_17  and  C_18
REMARK    6  A    between atoms: C_18  and  C_19
REMARK    7  A    between atoms: C_19  and  C_20
REMARK    8  A    between atoms: C_20  and  C_21
REMARK    9  A    between atoms: C_21  and  N_22
REMARK   10  A    between atoms: N_31  and  C_32
REMARK                            x       y       z     vdW  Elec       q    Type
REMARK                         _______ _______ _______ _____ _____    ______ ____
ROOT
ATOM      1  C   UNL     1       0.544   9.539  19.671  0.00  0.00    +0.000 C 
ENDROOT
BRANCH   1   2
ATOM      2  C   UNL     1       1.385   9.848  18.425  0.00  0.00    +0.000 C 
BRANCH   2   3
ATOM      3  C   UNL     1       1.848   8.606  17.666  0.00  0.00    +0.000 C 
BRANCH   3   4
ATOM      4  C   UNL     1       3.264   8.198  18.063  0.00  0.00    +0.000 C 
BRANCH   4  18
ATOM      5  C   UNL     1       1.696   2.682  21.392  0.00  0.00    +0.000 C 
ATOM      6  N   UNL     1       2.119   3.814  20.542  0.00  0.00    +0.000 N 
ATOM      7  C   UNL     1       1.698   5.055  20.856  0.00  0.00    +0.000 A 
ATOM      8  C   UNL     1       2.058   6.157  20.105  0.00  0.00    +0.000 A 
ATOM      9  C   UNL     1       2.881   5.904  19.013  0.00  0.00    +0.000 A 
ATOM     10  C   UNL     1       3.303   4.616  18.698  0.00  0.00    +0.000 A 
ATOM     11  C   UNL     1       2.912   3.533  19.488  0.00  0.00    +0.000 A 
ATOM     12  C   UNL     1       4.120   4.709  17.522  0.00  0.00    +0.000 A 
ATOM     13  C   UNL     1       4.818   3.763  16.739  0.00  0.00    +0.000 A 
ATOM     14  C   UNL     1       5.550   4.190  15.624  0.00  0.00    +0.000 A 
ATOM     15  C   UNL     1       5.602   5.536  15.283  0.00  0.00    +0.000 A 
ATOM     16  C   UNL     1       4.926   6.490  16.045  0.00  0.00    +0.000 A 
ATOM     17  C   UNL     1       4.186   6.054  17.158  0.00  0.00    +0.000 A 
ATOM     18  N   UNL     1       3.430   6.754  18.076  0.00  0.00    +0.000 N 
ENDBRANCH   4  18
ENDBRANCH   3   4
ENDBRANCH   2   3
ENDBRANCH   1   2
BRANCH   1  19
ATOM     19  C   UNL     1       0.535  10.659  20.720  0.00  0.00    +0.000 C 
BRANCH  19  20
ATOM     20  C   UNL     1      -0.857  11.203  21.038  0.00  0.00    +0.000 C 
BRANCH  20  21
ATOM     21  C   UNL     1      -1.224  12.369  20.126  0.00  0.00    +0.000 C 
BRANCH  21  22
ATOM     22  N   UNL     1      -2.565  12.236  19.581  0.00  0.00    +0.000 N 
ATOM     23  C   UNL     1      -2.844  11.729  18.328  0.00  0.00    +0.000 A 
ATOM     24  C   UNL     1      -1.993  11.264  17.311  0.00  0.00    +0.000 A 
ATOM     25  C   UNL     1      -2.567  10.800  16.128  0.00  0.00    +0.000 A 
ATOM     26  C   UNL     1      -3.947  10.793  15.965  0.00  0.00    +0.000 A 
ATOM     27  C   UNL     1      -4.790  11.252  16.986  0.00  0.00    +0.000 A 
ATOM     28  C   UNL     1      -4.230  11.729  18.192  0.00  0.00    +0.000 A 
ATOM     29  C   UNL     1      -4.789  12.250  19.407  0.00  0.00    +0.000 A 
ATOM     30  C   UNL     1      -6.106  12.459  19.823  0.00  0.00    +0.000 A 
ATOM     31  N   UNL     1      -6.267  12.975  21.058  0.00  0.00    +0.000 N 
ATOM     32  C   UNL     1      -7.639  13.214  21.554  0.00  0.00    +0.000 C 
ATOM     33  C   UNL     1      -5.249  13.291  21.882  0.00  0.00    +0.000 A 
ATOM     34  C   UNL     1      -3.931  13.104  21.515  0.00  0.00    +0.000 A 
ATOM     35  C   UNL     1      -3.724  12.566  20.249  0.00  0.00    +0.000 A 
ENDBRANCH  21  22
ENDBRANCH  20  21
ENDBRANCH  19  20
ENDBRANCH   1  19
TORSDOF 8
ENDMDL
MODEL 2
REMARK VINA RESULT:      -8.9      1.394      4.351
REMARK  Name = 
REMARK  10 active torsions:
REMARK  status: ('A' for Active; 'I' for Inactive)
REMARK    1  A    between atoms: C_1  and  N_2
REMARK    2  A    between atoms: N_14  and  C_15
REMARK    3  A    between atoms: C_15  and  C_16
REMARK    4  A    between atoms: C_16  and  C_17
REMARK    5  A    between atoms: C_17  and  C_18
REMARK    6  A    between atoms: C_18  and  C_19
REMARK    7  A    between atoms: C_19  and  C_20
REMARK    8  A    between atoms: C_20  and  C_21
REMARK    9  A    between atoms: C_21  and  N_22
REMARK   10  A    between atoms: N_31  and  C_32
REMARK                            x       y       z     vdW  Elec       q    Type
REMARK                         _______ _______ _______ _____ _____    ______ ____
ROOT
ATOM      1  C   UNL     1       0.976  10.248  19.221  0.00  0.00    +0.000 C 
ENDROOT
BRANCH   1   2
ATOM      2  C   UNL     1       1.947   9.703  18.165  0.00  0.00    +0.000 C 
BRANCH   2   3
ATOM      3  C   UNL     1       1.824   8.199  17.926  0.00  0.00    +0.000 C 
BRANCH   3   4
ATOM      4  C   UNL     1       2.593   7.397  18.972  0.00  0.00    +0.000 C 
BRANCH   4  18
ATOM      5  C   UNL     1       6.367   4.060  14.661  0.00  0.00    +0.000 C 
ATOM      6  N   UNL     1       5.475   4.658  15.676  0.00  0.00    +0.000 N 
ATOM      7  C   UNL     1       5.492   5.995  15.848  0.00  0.00    +0.000 A 
ATOM      8  C   UNL     1       4.682   6.618  16.778  0.00  0.00    +0.000 A 
ATOM      9  C   UNL     1       3.852   5.783  17.517  0.00  0.00    +0.000 A 
ATOM     10  C   UNL     1       3.850   4.403  17.332  0.00  0.00    +0.000 A 
ATOM     11  C   UNL     1       4.687   3.819  16.379  0.00  0.00    +0.000 A 
ATOM     12  C   UNL     1       2.897   3.850  18.250  0.00  0.00    +0.000 A 
ATOM     13  C   UNL     1       2.459   2.537  18.532  0.00  0.00    +0.000 A 
ATOM     14  C   UNL     1       1.481   2.327  19.512  0.00  0.00    +0.000 A 
ATOM     15  C   UNL     1       0.932   3.398  20.206  0.00  0.00    +0.000 A 
ATOM     16  C   UNL     1       1.344   4.705  19.942  0.00  0.00    +0.000 A 
ATOM     17  C   UNL     1       2.333   4.908  18.963  0.00  0.00    +0.000 A 
ATOM     18  N   UNL     1       2.926   6.064  18.499  0.00  0.00    +0.000 N 
ENDBRANCH   4  18
ENDBRANCH   3   4
ENDBRANCH   2   3
ENDBRANCH   1   2
BRANCH   1  19
ATOM     19  C   UNL     1       1.124  11.750  19.498  0.00  0.00    +0.000 C 
BRANCH  19  20
ATOM     20  C   UNL     1      -0.204  12.479  19.699  0.00  0.00    +0.000 C 
BRANCH  20  21
ATOM     21  C   UNL     1      -1.296  11.530  20.182  0.00  0.00    +0.000 C 
BRANCH  21  22
ATOM     22  N   UNL     1      -2.510  11.646  19.392  0.00  0.00    +0.000 N 
ATOM     23  C   UNL     1      -3.645  12.309  19.812  0.00  0.00    +0.000 A 
ATOM     24  C   UNL     1      -3.933  12.974  21.015  0.00  0.00    +0.000 A 
ATOM     25  C   UNL     1      -5.189  13.563  21.163  0.00  0.00    +0.000 A 
ATOM     26  C   UNL     1      -6.128  13.497  20.140  0.00  0.00    +0.000 A 
ATOM     27  C   UNL     1      -5.831  12.837  18.940  0.00  0.00    +0.000 A 
ATOM     28  C   UNL     1      -4.567  12.231  18.770  0.00  0.00    +0.000 A 
ATOM     29  C   UNL     1      -3.952  11.503  17.696  0.00  0.00    +0.000 A 
ATOM     30  C   UNL     1      -4.403  11.144  16.424  0.00  0.00    +0.000 A 
ATOM     31  N   UNL     1      -3.541  10.445  15.659  0.00  0.00    +0.000 N 
ATOM     32  C   UNL     1      -3.962  10.041  14.301  0.00  0.00    +0.000 C 
ATOM     33  C   UNL     1      -2.304  10.085  16.055  0.00  0.00    +0.000 A 
ATOM     34  C   UNL     1      -1.815  10.415  17.304  0.00  0.00    +0.000 A 
ATOM     35  C   UNL     1      -2.674  11.143  18.119  0.00  0.00    +0.000 A 
ENDBRANCH  21  22
ENDBRANCH  20  21
ENDBRANCH  19  20
ENDBRANCH   1  19
TORSDOF 8
ENDMDL
MODEL 3
REMARK VINA RESULT:      -8.9      1.522     10.190
REMARK  Name = 
REMARK  10 active torsions:
REMARK  status: ('A' for Active; 'I' for Inactive)
REMARK    1  A    between atoms: C_1  and  N_2
REMARK    2  A    between atoms: N_14  and  C_15
REMARK    3  A    between atoms: C_15  and  C_16
REMARK    4  A    between atoms: C_16  and  C_17
REMARK    5  A    between atoms: C_17  and  C_18
REMARK    6  A    between atoms: C_18  and  C_19
REMARK    7  A    between atoms: C_19  and  C_20
REMARK    8  A    between atoms: C_20  and  C_21
REMARK    9  A    between atoms: C_21  and  N_22
REMARK   10  A    between atoms: N_31  and  C_32
REMARK                            x       y       z     vdW  Elec       q    Type
REMARK                         _______ _______ _______ _____ _____    ______ ____
ROOT
ATOM      1  C   UNL     1       1.152   9.260  22.088  0.00  0.00    +0.000 C 
ENDROOT
BRANCH   1   2
ATOM      2  C   UNL     1       0.135   9.396  23.229  0.00  0.00    +0.000 C 
BRANCH   2   3
ATOM      3  C   UNL     1      -0.848  10.551  23.049  0.00  0.00    +0.000 C 
BRANCH   3   4
ATOM      4  C   UNL     1      -0.396  11.511  21.953  0.00  0.00    +0.000 C 
BRANCH   4  18
ATOM      5  C   UNL     1      -6.089  14.851  21.306  0.00  0.00    +0.000 C 
ATOM      6  N   UNL     1      -4.837  14.065  21.292  0.00  0.00    +0.000 N 
ATOM      7  C   UNL     1      -4.056  14.069  22.392  0.00  0.00    +0.000 A 
ATOM      8  C   UNL     1      -2.874  13.356  22.446  0.00  0.00    +0.000 A 
ATOM      9  C   UNL     1      -2.547  12.635  21.303  0.00  0.00    +0.000 A 
ATOM     10  C   UNL     1      -3.361  12.645  20.174  0.00  0.00    +0.000 A 
ATOM     11  C   UNL     1      -4.546  13.382  20.166  0.00  0.00    +0.000 A 
ATOM     12  C   UNL     1      -2.732  11.816  19.186  0.00  0.00    +0.000 A 
ATOM     13  C   UNL     1      -3.066  11.445  17.866  0.00  0.00    +0.000 A 
ATOM     14  C   UNL     1      -2.219  10.589  17.150  0.00  0.00    +0.000 A 
ATOM     15  C   UNL     1      -1.055  10.098  17.728  0.00  0.00    +0.000 A 
ATOM     16  C   UNL     1      -0.706  10.446  19.034  0.00  0.00    +0.000 A 
ATOM     17  C   UNL     1      -1.557  11.312  19.743  0.00  0.00    +0.000 A 
ATOM     18  N   UNL     1      -1.470  11.821  21.023  0.00  0.00    +0.000 N 
ENDBRANCH   4  18
ENDBRANCH   3   4
ENDBRANCH   2   3
ENDBRANCH   1   2
BRANCH   1  19
ATOM     19  C   UNL     1       0.876   8.091  21.133  0.00  0.00    +0.000 C 
BRANCH  19  20
ATOM     20  C   UNL     1       2.137   7.411  20.602  0.00  0.00    +0.000 C 
BRANCH  20  21
ATOM     21  C   UNL     1       2.118   7.306  19.080  0.00  0.00    +0.000 C 
BRANCH  21  22
ATOM     22  N   UNL     1       2.654   6.039  18.613  0.00  0.00    +0.000 N 
ATOM     23  C   UNL     1       2.177   4.805  19.006  0.00  0.00    +0.000 A 
ATOM     24  C   UNL     1       1.153   4.456  19.903  0.00  0.00    +0.000 A 
ATOM     25  C   UNL     1       0.885   3.102  20.108  0.00  0.00    +0.000 A 
ATOM     26  C   UNL     1       1.611   2.126  19.436  0.00  0.00    +0.000 A 
ATOM     27  C   UNL     1       2.627   2.483  18.539  0.00  0.00    +0.000 A 
ATOM     28  C   UNL     1       2.917   3.847  18.318  0.00  0.00    +0.000 A 
ATOM     29  C   UNL     1       3.860   4.539  17.486  0.00  0.00    +0.000 A 
ATOM     30  C   UNL     1       4.829   4.088  16.586  0.00  0.00    +0.000 A 
ATOM     31  N   UNL     1       5.553   5.038  15.961  0.00  0.00    +0.000 N 
ATOM     32  C   UNL     1       6.590   4.620  14.995  0.00  0.00    +0.000 C 
ATOM     33  C   UNL     1       5.392   6.361  16.162  0.00  0.00    +0.000 A 
ATOM     34  C   UNL     1       4.450   6.855  17.042  0.00  0.00    +0.000 A 
ATOM     35  C   UNL     1       3.678   5.904  17.700  0.00  0.00    +0.000 A 
ENDBRANCH  21  22
ENDBRANCH  20  21
ENDBRANCH  19  20
ENDBRANCH   1  19
TORSDOF 8
ENDMDL
MODEL 4
REMARK VINA RESULT:      -8.8      1.324     10.551
REMARK  Name = 
REMARK  10 active torsions:
REMARK  status: ('A' for Active; 'I' for Inactive)
REMARK    1  A    between atoms: C_1  and  N_2
REMARK    2  A    between atoms: N_14  and  C_15
REMARK    3  A    between atoms: C_15  and  C_16
REMARK    4  A    between atoms: C_16  and  C_17
REMARK    5  A    between atoms: C_17  and  C_18
REMARK    6  A    between atoms: C_18  and  C_19
REMARK    7  A    between atoms: C_19  and  C_20
REMARK    8  A    between atoms: C_20  and  C_21
REMARK    9  A    between atoms: C_21  and  N_22
REMARK   10  A    between atoms: N_31  and  C_32
REMARK                            x       y       z     vdW  Elec       q    Type
REMARK                         _______ _______ _______ _____ _____    ______ ____
ROOT
ATOM      1  C   UNL     1       1.301  10.375  18.625  0.00  0.00    +0.000 C 
ENDROOT
BRANCH   1   2
ATOM      2  C   UNL     1       0.399   9.761  19.703  0.00  0.00    +0.000 C 
BRANCH   2   3
ATOM      3  C   UNL     1      -0.225  10.787  20.648  0.00  0.00    +0.000 C 
BRANCH   3   4
ATOM      4  C   UNL     1      -0.675  12.040  19.902  0.00  0.00    +0.000 C 
BRANCH   4  18
ATOM      5  C   UNL     1      -5.866  13.703  23.678  0.00  0.00    +0.000 C 
ATOM      6  N   UNL     1      -4.815  13.315  22.713  0.00  0.00    +0.000 N 
ATOM      7  C   UNL     1      -3.526  13.357  23.106  0.00  0.00    +0.000 A 
ATOM      8  C   UNL     1      -2.496  13.006  22.255  0.00  0.00    +0.000 A 
ATOM      9  C   UNL     1      -2.873  12.605  20.978  0.00  0.00    +0.000 A 
ATOM     10  C   UNL     1      -4.208  12.572  20.586  0.00  0.00    +0.000 A 
ATOM     11  C   UNL     1      -5.215  12.937  21.482  0.00  0.00    +0.000 A 
ATOM     12  C   UNL     1      -4.243  12.128  19.222  0.00  0.00    +0.000 A 
ATOM     13  C   UNL     1      -5.282  11.900  18.294  0.00  0.00    +0.000 A 
ATOM     14  C   UNL     1      -4.975  11.448  17.004  0.00  0.00    +0.000 A 
ATOM     15  C   UNL     1      -3.657  11.215  16.631  0.00  0.00    +0.000 A 
ATOM     16  C   UNL     1      -2.613  11.426  17.532  0.00  0.00    +0.000 A 
ATOM     17  C   UNL     1      -2.928  11.889  18.822  0.00  0.00    +0.000 A 
ATOM     18  N   UNL     1      -2.121  12.183  19.902  0.00  0.00    +0.000 N 
ENDBRANCH   4  18
ENDBRANCH   3   4
ENDBRANCH   2   3
ENDBRANCH   1   2
BRANCH   1  19
ATOM     19  C   UNL     1       2.140   9.353  17.847  0.00  0.00    +0.000 C 
BRANCH  19  20
ATOM     20  C   UNL     1       1.735   7.900  18.093  0.00  0.00    +0.000 C 
BRANCH  20  21
ATOM     21  C   UNL     1       2.797   7.150  18.891  0.00  0.00    +0.000 C 
BRANCH  21  22
ATOM     22  N   UNL     1       3.082   5.842  18.328  0.00  0.00    +0.000 N 
ATOM     23  C   UNL     1       2.428   4.683  18.694  0.00  0.00    +0.000 A 
ATOM     24  C   UNL     1       1.416   4.455  19.642  0.00  0.00    +0.000 A 
ATOM     25  C   UNL     1       0.936   3.155  19.800  0.00  0.00    +0.000 A 
ATOM     26  C   UNL     1       1.446   2.113  19.034  0.00  0.00    +0.000 A 
ATOM     27  C   UNL     1       2.451   2.349  18.086  0.00  0.00    +0.000 A 
ATOM     28  C   UNL     1       2.953   3.658  17.911  0.00  0.00    +0.000 A 
ATOM     29  C   UNL     1       3.947   4.232  17.049  0.00  0.00    +0.000 A 
ATOM     30  C   UNL     1       4.770   3.680  16.064  0.00  0.00    +0.000 A 
ATOM     31  N   UNL     1       5.604   4.533  15.436  0.00  0.00    +0.000 N 
ATOM     32  C   UNL     1       6.495   4.007  14.381  0.00  0.00    +0.000 C 
ATOM     33  C   UNL     1       5.681   5.850  15.710  0.00  0.00    +0.000 A 
ATOM     34  C   UNL     1       4.891   6.440  16.677  0.00  0.00    +0.000 A 
ATOM     35  C   UNL     1       4.011   5.593  17.341  0.00  0.00    +0.000 A 
ENDBRANCH  21  22
ENDBRANCH  20  21
ENDBRANCH  19  20
ENDBRANCH   1  19
TORSDOF 8
ENDMDL
MODEL 5
REMARK VINA RESULT:      -8.8      1.080     10.401
REMARK  Name = 
REMARK  10 active torsions:
REMARK  status: ('A' for Active; 'I' for Inactive)
REMARK    1  A    between atoms: C_1  and  N_2
REMARK    2  A    between atoms: N_14  and  C_15
REMARK    3  A    between atoms: C_15  and  C_16
REMARK    4  A    between atoms: C_16  and  C_17
REMARK    5  A    between atoms: C_17  and  C_18
REMARK    6  A    between atoms: C_18  and  C_19
REMARK    7  A    between atoms: C_19  and  C_20
REMARK    8  A    between atoms: C_20  and  C_21
REMARK    9  A    between atoms: C_21  and  N_22
REMARK   10  A    between atoms: N_31  and  C_32
REMARK                            x       y       z     vdW  Elec       q    Type
REMARK                         _______ _______ _______ _____ _____    ______ ____
ROOT
ATOM      1  C   UNL     1       1.027  10.180  19.189  0.00  0.00    +0.000 C 
ENDROOT
BRANCH   1   2
ATOM      2  C   UNL     1       1.157  11.605  19.742  0.00  0.00    +0.000 C 
BRANCH   2   3
ATOM      3  C   UNL     1      -0.152  12.392  19.743  0.00  0.00    +0.000 C 
BRANCH   3   4
ATOM      4  C   UNL     1      -1.316  11.549  20.254  0.00  0.00    +0.000 C 
BRANCH   4  18
ATOM      5  C   UNL     1      -7.255  14.496  20.397  0.00  0.00    +0.000 C 
ATOM      6  N   UNL     1      -5.967  13.794  20.212  0.00  0.00    +0.000 N 
ATOM      7  C   UNL     1      -5.042  13.867  21.190  0.00  0.00    +0.000 A 
ATOM      8  C   UNL     1      -3.819  13.234  21.081  0.00  0.00    +0.000 A 
ATOM      9  C   UNL     1      -3.608  12.518  19.908  0.00  0.00    +0.000 A 
ATOM     10  C   UNL     1      -4.571  12.458  18.905  0.00  0.00    +0.000 A 
ATOM     11  C   UNL     1      -5.793  13.115  19.060  0.00  0.00    +0.000 A 
ATOM     12  C   UNL     1      -4.033  11.656  17.843  0.00  0.00    +0.000 A 
ATOM     13  C   UNL     1      -4.523  11.243  16.585  0.00  0.00    +0.000 A 
ATOM     14  C   UNL     1      -3.729  10.435  15.762  0.00  0.00    +0.000 A 
ATOM     15  C   UNL     1      -2.465  10.030  16.173  0.00  0.00    +0.000 A 
ATOM     16  C   UNL     1      -1.961  10.420  17.415  0.00  0.00    +0.000 A 
ATOM     17  C   UNL     1      -2.760  11.239  18.232  0.00  0.00    +0.000 A 
ATOM     18  N   UNL     1      -2.529  11.772  19.484  0.00  0.00    +0.000 N 
ENDBRANCH   4  18
ENDBRANCH   3   4
ENDBRANCH   2   3
ENDBRANCH   1   2
BRANCH   1  19
ATOM     19  C   UNL     1       1.979   9.865  18.028  0.00  0.00    +0.000 C 
BRANCH  19  20
ATOM     20  C   UNL     1       2.104   8.374  17.714  0.00  0.00    +0.000 C 
BRANCH  20  21
ATOM     21  C   UNL     1       2.642   7.593  18.908  0.00  0.00    +0.000 C 
BRANCH  21  22
ATOM     22  N   UNL     1       2.987   6.226  18.558  0.00  0.00    +0.000 N 
ATOM     23  C   UNL     1       2.456   5.112  19.175  0.00  0.00    +0.000 A 
ATOM     24  C   UNL     1       1.539   4.993  20.233  0.00  0.00    +0.000 A 
ATOM     25  C   UNL     1       1.177   3.713  20.656  0.00  0.00    +0.000 A 
ATOM     26  C   UNL     1       1.709   2.587  20.040  0.00  0.00    +0.000 A 
ATOM     27  C   UNL     1       2.619   2.714  18.981  0.00  0.00    +0.000 A 
ATOM     28  C   UNL     1       3.001   3.999  18.539  0.00  0.00    +0.000 A 
ATOM     29  C   UNL     1       3.879   4.473  17.507  0.00  0.00    +0.000 A 
ATOM     30  C   UNL     1       4.667   3.808  16.563  0.00  0.00    +0.000 A 
ATOM     31  N   UNL     1       5.382   4.586  15.727  0.00  0.00    +0.000 N 
ATOM     32  C   UNL     1       6.230   3.939  14.705  0.00  0.00    +0.000 C 
ATOM     33  C   UNL     1       5.375   5.933  15.761  0.00  0.00    +0.000 A 
ATOM     34  C   UNL     1       4.614   6.635  16.676  0.00  0.00    +0.000 A 
ATOM     35  C   UNL     1       3.856   5.865  17.551  0.00  0.00    +0.000 A 
ENDBRANCH  21  22
ENDBRANCH  20  21
ENDBRANCH  19  20
ENDBRANCH   1  19
TORSDOF 8
ENDMDL
MODEL 6
REMARK VINA RESULT:      -8.6      1.437      3.611
REMARK  Name = 
REMARK  10 active torsions:
REMARK  status: ('A' for Active; 'I' for Inactive)
REMARK    1  A    between atoms: C_1  and  N_2
REMARK    2  A    between atoms: N_14  and  C_15
REMARK    3  A    between atoms: C_15  and  C_16
REMARK    4  A    between atoms: C_16  and  C_17
REMARK    5  A    between atoms: C_17  and  C_18
REMARK    6  A    between atoms: C_18  and  C_19
REMARK    7  A    between atoms: C_19  and  C_20
REMARK    8  A    between atoms: C_20  and  C_21
REMARK    9  A    between atoms: C_21  and  N_22
REMARK   10  A    between atoms: N_31  and  C_32
REMARK                            x       y       z     vdW  Elec       q    Type
REMARK                         _______ _______ _______ _____ _____    ______ ____
ROOT
ATOM      1  C   UNL     1       1.183  10.153  19.411  0.00  0.00    +0.000 C 
ENDROOT
BRANCH   1   2
ATOM      2  C   UNL     1       1.456   9.677  17.979  0.00  0.00    +0.000 C 
BRANCH   2   3
ATOM      3  C   UNL     1       1.582   8.161  17.841  0.00  0.00    +0.000 C 
BRANCH   3   4
ATOM      4  C   UNL     1       2.580   7.585  18.842  0.00  0.00    +0.000 C 
BRANCH   4  18
ATOM      5  C   UNL     1       6.302   3.904  14.771  0.00  0.00    +0.000 C 
ATOM      6  N   UNL     1       5.430   4.585  15.752  0.00  0.00    +0.000 N 
ATOM      7  C   UNL     1       5.394   5.932  15.763  0.00  0.00    +0.000 A 
ATOM      8  C   UNL     1       4.600   6.631  16.652  0.00  0.00    +0.000 A 
ATOM      9  C   UNL     1       3.844   5.858  17.526  0.00  0.00    +0.000 A 
ATOM     10  C   UNL     1       3.897   4.467  17.507  0.00  0.00    +0.000 A 
ATOM     11  C   UNL     1       4.715   3.806  16.590  0.00  0.00    +0.000 A 
ATOM     12  C   UNL     1       3.013   3.991  18.532  0.00  0.00    +0.000 A 
ATOM     13  C   UNL     1       2.650   2.706  18.991  0.00  0.00    +0.000 A 
ATOM     14  C   UNL     1       1.728   2.577  20.037  0.00  0.00    +0.000 A 
ATOM     15  C   UNL     1       1.164   3.701  20.627  0.00  0.00    +0.000 A 
ATOM     16  C   UNL     1       1.502   4.982  20.188  0.00  0.00    +0.000 A 
ATOM     17  C   UNL     1       2.435   5.104  19.143  0.00  0.00    +0.000 A 
ATOM     18  N   UNL     1       2.952   6.219  18.514  0.00  0.00    +0.000 N 
ENDBRANCH   4  18
ENDBRANCH   3   4
ENDBRANCH   2   3
ENDBRANCH   1   2
BRANCH   1  19
ATOM     19  C   UNL     1      -0.281  10.020  19.852  0.00  0.00    +0.000 C 
BRANCH  19  20
ATOM     20  C   UNL     1      -1.292  10.309  18.743  0.00  0.00    +0.000 C 
BRANCH  20  21
ATOM     21  C   UNL     1      -1.602  11.799  18.642  0.00  0.00    +0.000 C 
BRANCH  21  22
ATOM     22  N   UNL     1      -2.783  12.165  19.406  0.00  0.00    +0.000 N 
ATOM     23  C   UNL     1      -4.077  12.006  18.953  0.00  0.00    +0.000 A 
ATOM     24  C   UNL     1      -4.574  11.516  17.733  0.00  0.00    +0.000 A 
ATOM     25  C   UNL     1      -5.956  11.469  17.551  0.00  0.00    +0.000 A 
ATOM     26  C   UNL     1      -6.818  11.893  18.555  0.00  0.00    +0.000 A 
ATOM     27  C   UNL     1      -6.315  12.375  19.772  0.00  0.00    +0.000 A 
ATOM     28  C   UNL     1      -4.919  12.433  19.977  0.00  0.00    +0.000 A 
ATOM     29  C   UNL     1      -4.094  12.854  21.074  0.00  0.00    +0.000 A 
ATOM     30  C   UNL     1      -4.399  13.353  22.343  0.00  0.00    +0.000 A 
ATOM     31  N   UNL     1      -3.350  13.650  23.135  0.00  0.00    +0.000 N 
ATOM     32  C   UNL     1      -3.611  14.178  24.490  0.00  0.00    +0.000 C 
ATOM     33  C   UNL     1      -2.062  13.497  22.770  0.00  0.00    +0.000 A 
ATOM     34  C   UNL     1      -1.711  13.009  21.526  0.00  0.00    +0.000 A 
ATOM     35  C   UNL     1      -2.768  12.683  20.682  0.00  0.00    +0.000 A 
ENDBRANCH  21  22
ENDBRANCH  20  21
ENDBRANCH  19  20
ENDBRANCH   1  19
TORSDOF 8
ENDMDL
MODEL 7
REMARK VINA RESULT:      -8.6      1.739     10.407
REMARK  Name = 
REMARK  10 active torsions:
REMARK  status: ('A' for Active; 'I' for Inactive)
REMARK    1  A    between atoms: C_1  and  N_2
REMARK    2  A    between atoms: N_14  and  C_15
REMARK    3  A    between atoms: C_15  and  C_16
REMARK    4  A    between atoms: C_16  and  C_17
REMARK    5  A    between atoms: C_17  and  C_18
REMARK    6  A    between atoms: C_18  and  C_19
REMARK    7  A    between atoms: C_19  and  C_20
REMARK    8  A    between atoms: C_20  and  C_21
REMARK    9  A    between atoms: C_21  and  N_22
REMARK   10  A    between atoms: N_31  and  C_32
REMARK                            x       y       z     vdW  Elec       q    Type
REMARK                         _______ _______ _______ _____ _____    ______ ____
ROOT
ATOM      1  C   UNL     1       0.362   8.278  21.236  0.00  0.00    +0.000 C 
ENDROOT
BRANCH   1   2
ATOM      2  C   UNL     1       0.656   9.198  22.428  0.00  0.00    +0.000 C 
BRANCH   2   3
ATOM      3  C   UNL     1      -0.344  10.341  22.591  0.00  0.00    +0.000 C 
BRANCH   3   4
ATOM      4  C   UNL     1      -0.098  11.454  21.576  0.00  0.00    +0.000 C 
BRANCH   4  18
ATOM      5  C   UNL     1      -2.866  10.356  15.652  0.00  0.00    +0.000 C 
ATOM      6  N   UNL     1      -2.387  10.680  17.012  0.00  0.00    +0.000 N 
ATOM      7  C   UNL     1      -1.205  10.177  17.420  0.00  0.00    +0.000 A 
ATOM      8  C   UNL     1      -0.698  10.441  18.677  0.00  0.00    +0.000 A 
ATOM      9  C   UNL     1      -1.480  11.258  19.487  0.00  0.00    +0.000 A 
ATOM     10  C   UNL     1      -2.702  11.764  19.054  0.00  0.00    +0.000 A 
ATOM     11  C   UNL     1      -3.173  11.469  17.773  0.00  0.00    +0.000 A 
ATOM     12  C   UNL     1      -3.245  12.548  20.126  0.00  0.00    +0.000 A 
ATOM     13  C   UNL     1      -4.432  13.295  20.287  0.00  0.00    +0.000 A 
ATOM     14  C   UNL     1      -4.669  13.972  21.490  0.00  0.00    +0.000 A 
ATOM     15  C   UNL     1      -3.745  13.919  22.526  0.00  0.00    +0.000 A 
ATOM     16  C   UNL     1      -2.561  13.193  22.389  0.00  0.00    +0.000 A 
ATOM     17  C   UNL     1      -2.334  12.509  21.182  0.00  0.00    +0.000 A 
ATOM     18  N   UNL     1      -1.276  11.724  20.769  0.00  0.00    +0.000 N 
ENDBRANCH   4  18
ENDBRANCH   3   4
ENDBRANCH   2   3
ENDBRANCH   1   2
BRANCH   1  19
ATOM     19  C   UNL     1       1.420   7.191  21.002  0.00  0.00    +0.000 C 
BRANCH  19  20
ATOM     20  C   UNL     1       2.408   7.516  19.882  0.00  0.00    +0.000 C 
BRANCH  20  21
ATOM     21  C   UNL     1       1.932   6.970  18.540  0.00  0.00    +0.000 C 
BRANCH  21  22
ATOM     22  N   UNL     1       2.634   5.754  18.165  0.00  0.00    +0.000 N 
ATOM     23  C   UNL     1       2.231   4.485  18.529  0.00  0.00    +0.000 A 
ATOM     24  C   UNL     1       1.148   4.050  19.311  0.00  0.00    +0.000 A 
ATOM     25  C   UNL     1       0.985   2.679  19.514  0.00  0.00    +0.000 A 
ATOM     26  C   UNL     1       1.872   1.769  18.951  0.00  0.00    +0.000 A 
ATOM     27  C   UNL     1       2.947   2.211  18.167  0.00  0.00    +0.000 A 
ATOM     28  C   UNL     1       3.132   3.594  17.951  0.00  0.00    +0.000 A 
ATOM     29  C   UNL     1       4.097   4.362  17.216  0.00  0.00    +0.000 A 
ATOM     30  C   UNL     1       5.200   3.995  16.442  0.00  0.00    +0.000 A 
ATOM     31  N   UNL     1       5.899   5.003  15.883  0.00  0.00    +0.000 N 
ATOM     32  C   UNL     1       7.075   4.675  15.050  0.00  0.00    +0.000 C 
ATOM     33  C   UNL     1       5.595   6.306  16.034  0.00  0.00    +0.000 A 
ATOM     34  C   UNL     1       4.515   6.719  16.791  0.00  0.00    +0.000 A 
ATOM     35  C   UNL     1       3.764   5.706  17.378  0.00  0.00    +0.000 A 
ENDBRANCH  21  22
ENDBRANCH  20  21
ENDBRANCH  19  20
ENDBRANCH   1  19
TORSDOF 8
ENDMDL
MODEL 8
REMARK VINA RESULT:      -8.6      1.034      3.062
REMARK  Name = 
REMARK  10 active torsions:
REMARK  status: ('A' for Active; 'I' for Inactive)
REMARK    1  A    between atoms: C_1  and  N_2
REMARK    2  A    between atoms: N_14  and  C_15
REMARK    3  A    between atoms: C_15  and  C_16
REMARK    4  A    between atoms: C_16  and  C_17
REMARK    5  A    between atoms: C_17  and  C_18
REMARK    6  A    between atoms: C_18  and  C_19
REMARK    7  A    between atoms: C_19  and  C_20
REMARK    8  A    between atoms: C_20  and  C_21
REMARK    9  A    between atoms: C_21  and  N_22
REMARK   10  A    between atoms: N_31  and  C_32
REMARK                            x       y       z     vdW  Elec       q    Type
REMARK                         _______ _______ _______ _____ _____    ______ ____
ROOT
ATOM      1  C   UNL     1       1.602  10.350  19.303  0.00  0.00    +0.000 C 
ENDROOT
BRANCH   1   2
ATOM      2  C   UNL     1       0.964   9.311  18.371  0.00  0.00    +0.000 C 
BRANCH   2   3
ATOM      3  C   UNL     1       1.938   8.245  17.872  0.00  0.00    +0.000 C 
BRANCH   3   4
ATOM      4  C   UNL     1       2.459   7.378  19.014  0.00  0.00    +0.000 C 
BRANCH   4  18
ATOM      5  C   UNL     1       6.485   4.248  14.776  0.00  0.00    +0.000 C 
ATOM      6  N   UNL     1       5.544   4.797  15.775  0.00  0.00    +0.000 N 
ATOM      7  C   UNL     1       5.480   6.133  15.939  0.00  0.00    +0.000 A 
ATOM      8  C   UNL     1       4.622   6.713  16.854  0.00  0.00    +0.000 A 
ATOM      9  C   UNL     1       3.832   5.833  17.585  0.00  0.00    +0.000 A 
ATOM     10  C   UNL     1       3.913   4.455  17.408  0.00  0.00    +0.000 A 
ATOM     11  C   UNL     1       4.797   3.916  16.471  0.00  0.00    +0.000 A 
ATOM     12  C   UNL     1       2.981   3.851  18.316  0.00  0.00    +0.000 A 
ATOM     13  C   UNL     1       2.617   2.516  18.599  0.00  0.00    +0.000 A 
ATOM     14  C   UNL     1       1.639   2.253  19.566  0.00  0.00    +0.000 A 
ATOM     15  C   UNL     1       1.018   3.293  20.247  0.00  0.00    +0.000 A 
ATOM     16  C   UNL     1       1.357   4.621  19.981  0.00  0.00    +0.000 A 
ATOM     17  C   UNL     1       2.346   4.877  19.015  0.00  0.00    +0.000 A 
ATOM     18  N   UNL     1       2.877   6.064  18.553  0.00  0.00    +0.000 N 
ENDBRANCH   4  18
ENDBRANCH   3   4
ENDBRANCH   2   3
ENDBRANCH   1   2
BRANCH   1  19
ATOM     19  C   UNL     1       0.790  11.643  19.456  0.00  0.00    +0.000 C 
BRANCH  19  20
ATOM     20  C   UNL     1      -0.491  11.479  20.274  0.00  0.00    +0.000 C 
BRANCH  20  21
ATOM     21  C   UNL     1      -1.391  12.705  20.157  0.00  0.00    +0.000 C 
BRANCH  21  22
ATOM     22  N   UNL     1      -2.709  12.369  19.646  0.00  0.00    +0.000 N 
ATOM     23  C   UNL     1      -2.940  11.837  18.393  0.00  0.00    +0.000 A 
ATOM     24  C   UNL     1      -2.056  11.522  17.347  0.00  0.00    +0.000 A 
ATOM     25  C   UNL     1      -2.583  10.986  16.173  0.00  0.00    +0.000 A 
ATOM     26  C   UNL     1      -3.950  10.764  16.045  0.00  0.00    +0.000 A 
ATOM     27  C   UNL     1      -4.824  11.076  17.095  0.00  0.00    +0.000 A 
ATOM     28  C   UNL     1      -4.312  11.622  18.293  0.00  0.00    +0.000 A 
ATOM     29  C   UNL     1      -4.911  12.036  19.530  0.00  0.00    +0.000 A 
ATOM     30  C   UNL     1      -6.233  12.032  19.983  0.00  0.00    +0.000 A 
ATOM     31  N   UNL     1      -6.438  12.503  21.229  0.00  0.00    +0.000 N 
ATOM     32  C   UNL     1      -7.816  12.520  21.764  0.00  0.00    +0.000 C 
ATOM     33  C   UNL     1      -5.459  12.966  22.031  0.00  0.00    +0.000 A 
ATOM     34  C   UNL     1      -4.138  12.992  21.627  0.00  0.00    +0.000 A 
ATOM     35  C   UNL     1      -3.886  12.506  20.348  0.00  0.00    +0.000 A 
ENDBRANCH  21  22
ENDBRANCH  20  21
ENDBRANCH  19  20
ENDBRANCH   1  19
TORSDOF 8
ENDMDL
MODEL 9
REMARK VINA RESULT:      -8.5      1.613      4.463
REMARK  Name = 
REMARK  10 active torsions:
REMARK  status: ('A' for Active; 'I' for Inactive)
REMARK    1  A    between atoms: C_1  and  N_2
REMARK    2  A    between atoms: N_14  and  C_15
REMARK    3  A    between atoms: C_15  and  C_16
REMARK    4  A    between atoms: C_16  and  C_17
REMARK    5  A    between atoms: C_17  and  C_18
REMARK    6  A    between atoms: C_18  and  C_19
REMARK    7  A    between atoms: C_19  and  C_20
REMARK    8  A    between atoms: C_20  and  C_21
REMARK    9  A    between atoms: C_21  and  N_22
REMARK   10  A    between atoms: N_31  and  C_32
REMARK                            x       y       z     vdW  Elec       q    Type
REMARK                         _______ _______ _______ _____ _____    ______ ____
ROOT
ATOM      1  C   UNL     1       0.589   8.428  21.297  0.00  0.00    +0.000 C 
ENDROOT
BRANCH   1   2
ATOM      2  C   UNL     1       1.615   8.828  20.229  0.00  0.00    +0.000 C 
BRANCH   2   3
ATOM      3  C   UNL     1       1.902   7.733  19.203  0.00  0.00    +0.000 C 
BRANCH   3   4
ATOM      4  C   UNL     1       3.124   6.905  19.589  0.00  0.00    +0.000 C 
BRANCH   4  18
ATOM      5  C   UNL     1       6.387   4.235  14.470  0.00  0.00    +0.000 C 
ATOM      6  N   UNL     1       5.584   4.686  15.627  0.00  0.00    +0.000 N 
ATOM      7  C   UNL     1       5.815   5.911  16.138  0.00  0.00    +0.000 A 
ATOM      8  C   UNL     1       5.100   6.394  17.217  0.00  0.00    +0.000 A 
ATOM      9  C   UNL     1       4.131   5.541  17.734  0.00  0.00    +0.000 A 
ATOM     10  C   UNL     1       3.909   4.276  17.199  0.00  0.00    +0.000 A 
ATOM     11  C   UNL     1       4.658   3.831  16.107  0.00  0.00    +0.000 A 
ATOM     12  C   UNL     1       2.862   3.665  17.965  0.00  0.00    +0.000 A 
ATOM     13  C   UNL     1       2.211   2.413  17.908  0.00  0.00    +0.000 A 
ATOM     14  C   UNL     1       1.193   2.116  18.823  0.00  0.00    +0.000 A 
ATOM     15  C   UNL     1       0.813   3.044  19.785  0.00  0.00    +0.000 A 
ATOM     16  C   UNL     1       1.437   4.291  19.858  0.00  0.00    +0.000 A 
ATOM     17  C   UNL     1       2.463   4.578  18.941  0.00  0.00    +0.000 A 
ATOM     18  N   UNL     1       3.245   5.704  18.778  0.00  0.00    +0.000 N 
ENDBRANCH   4  18
ENDBRANCH   3   4
ENDBRANCH   2   3
ENDBRANCH   1   2
BRANCH   1  19
ATOM     19  C   UNL     1       0.552   9.359  22.516  0.00  0.00    +0.000 C 
BRANCH  19  20
ATOM     20  C   UNL     1      -0.647  10.307  22.538  0.00  0.00    +0.000 C 
BRANCH  20  21
ATOM     21  C   UNL     1      -0.426  11.510  21.627  0.00  0.00    +0.000 C 
BRANCH  21  22
ATOM     22  N   UNL     1      -1.580  11.777  20.785  0.00  0.00    +0.000 N 
ATOM     23  C   UNL     1      -2.651  12.561  21.166  0.00  0.00    +0.000 A 
ATOM     24  C   UNL     1      -2.917  13.238  22.368  0.00  0.00    +0.000 A 
ATOM     25  C   UNL     1      -4.102  13.967  22.470  0.00  0.00    +0.000 A 
ATOM     26  C   UNL     1      -4.992  14.024  21.405  0.00  0.00    +0.000 A 
ATOM     27  C   UNL     1      -4.717  13.351  20.207  0.00  0.00    +0.000 A 
ATOM     28  C   UNL     1      -3.524  12.605  20.082  0.00  0.00    +0.000 A 
ATOM     29  C   UNL     1      -2.948  11.826  19.024  0.00  0.00    +0.000 A 
ATOM     30  C   UNL     1      -3.377  11.540  17.725  0.00  0.00    +0.000 A 
ATOM     31  N   UNL     1      -2.565  10.757  16.987  0.00  0.00    +0.000 N 
ATOM     32  C   UNL     1      -2.965  10.423  15.604  0.00  0.00    +0.000 C 
ATOM     33  C   UNL     1      -1.398  10.250  17.432  0.00  0.00    +0.000 A 
ATOM     34  C   UNL     1      -0.933  10.503  18.708  0.00  0.00    +0.000 A 
ATOM     35  C   UNL     1      -1.741  11.315  19.497  0.00  0.00    +0.000 A 
ENDBRANCH  21  22
ENDBRANCH  20  21
ENDBRANCH  19  20
ENDBRANCH   1  19
TORSDOF 8
ENDMDL
