MODEL 1
REMARK VINA RESULT:      -8.9      0.000      0.000
REMARK  Name = 
REMARK  7 active torsions:
REMARK  status: ('A' for Active; 'I' for Inactive)
REMARK    1  A    between atoms: C_1  and  C_2
REMARK    2  A    between atoms: C_2  and  O_3
REMARK    3  A    between atoms: O_3  and  C_4
REMARK    4  A    between atoms: C_4  and  C_6
REMARK    5  A    between atoms: C_8  and  C_9
REMARK    6  A    between atoms: C_16  and  C_17
REMARK    7  A    between atoms: C_23  and  C_25
REMARK                            x       y       z     vdW  Elec       q    Type
REMARK                         _______ _______ _______ _____ _____    ______ ____
ROOT
ATOM      1  C   UNL     1       2.552   3.966  20.464  0.00  0.00    +0.000 A 
ATOM      2  N   UNL     1       1.963   5.142  20.377  0.00  0.00    +0.000 NA
ATOM      3  C   UNL     1       2.773   5.914  19.567  0.00  0.00    +0.000 A 
ATOM      4  C   UNL     1       3.872   5.181  19.122  0.00  0.00    +0.000 A 
ATOM      5  N   UNL     1       3.724   3.973  19.764  0.00  0.00    +0.000 N 
ATOM      6  H   UNL     1       4.315   3.159  19.651  0.00  0.00    +0.000 HD
ENDROOT
BRANCH   4   7
ATOM      7  C   UNL     1       4.953   5.426  18.164  0.00  0.00    +0.000 A 
ATOM      8  C   UNL     1       6.040   6.228  18.513  0.00  0.00    +0.000 A 
ATOM      9  C   UNL     1       7.056   6.397  17.598  0.00  0.00    +0.000 A 
ATOM     10  N   UNL     1       7.028   5.876  16.360  0.00  0.00    +0.000 NA
ATOM     11  C   UNL     1       5.969   5.143  15.991  0.00  0.00    +0.000 A 
ATOM     12  N   UNL     1       5.887   4.636  14.684  0.00  0.00    +0.000 N 
ATOM     13  C   UNL     1       6.840   4.857  13.711  0.00  0.00    +0.000 C 
ATOM     14  O   UNL     1       7.894   5.464  13.826  0.00  0.00    +0.000 OA
ATOM     15  C   UNL     1       4.920   4.883  16.870  0.00  0.00    +0.000 A 
ATOM     16  H   UNL     1       5.076   4.091  14.445  0.00  0.00    +0.000 HD
BRANCH  13  17
ATOM     17  C   UNL     1       6.551   4.284  12.362  0.00  0.00    +0.000 C 
ATOM     18  C   UNL     1       6.948   2.860  12.054  0.00  0.00    +0.000 C 
ATOM     19  C   UNL     1       5.500   3.260  12.019  0.00  0.00    +0.000 C 
ENDBRANCH  13  17
ENDBRANCH   4   7
BRANCH   3  20
ATOM     20  C   UNL     1       2.426   7.285  19.212  0.00  0.00    +0.000 A 
ATOM     21  C   UNL     1       2.744   7.814  17.951  0.00  0.00    +0.000 A 
ATOM     22  C   UNL     1       2.311   9.088  17.581  0.00  0.00    +0.000 A 
ATOM     23  C   UNL     1       1.603   9.859  18.492  0.00  0.00    +0.000 A 
ATOM     24  F   UNL     1       1.183  11.080  18.135  0.00  0.00    +0.000 F 
ATOM     25  C   UNL     1       1.326   9.383  19.768  0.00  0.00    +0.000 A 
ATOM     26  C   UNL     1       1.735   8.094  20.128  0.00  0.00    +0.000 A 
ENDBRANCH   3  20
BRANCH   1  27
ATOM     27  C   UNL     1       2.050   2.771  21.102  0.00  0.00    +0.000 C 
ATOM     28  O   UNL     1       1.887   2.666  22.313  0.00  0.00    +0.000 OA
BRANCH  27  29
ATOM     29  O   UNL     1       1.919   1.761  20.201  0.00  0.00    +0.000 OA
BRANCH  29  31
ATOM     30  C   UNL     1       2.136   1.984  17.835  0.00  0.00    +0.000 C 
ATOM     31  C   UNL     1       1.189   2.101  19.017  0.00  0.00    +0.000 C 
ENDBRANCH  29  31
ENDBRANCH  27  29
ENDBRANCH   1  27
TORSDOF 6
ENDMDL
MODEL 2
REMARK VINA RESULT:      -8.8      3.707      6.790
REMARK  Name = 
REMARK  7 active torsions:
REMARK  status: ('A' for Active; 'I' for Inactive)
REMARK    1  A    between atoms: C_1  and  C_2
REMARK    2  A    between atoms: C_2  and  O_3
REMARK    3  A    between atoms: O_3  and  C_4
REMARK    4  A    between atoms: C_4  and  C_6
REMARK    5  A    between atoms: C_8  and  C_9
REMARK    6  A    between atoms: C_16  and  C_17
REMARK    7  A    between atoms: C_23  and  C_25
REMARK                            x       y       z     vdW  Elec       q    Type
REMARK                         _______ _______ _______ _____ _____    ______ ____
ROOT
ATOM      1  C   UNL     1       6.285   4.139  14.169  0.00  0.00    +0.000 A 
ATOM      2  N   UNL     1       5.126   4.006  14.783  0.00  0.00    +0.000 NA
ATOM      3  C   UNL     1       5.275   4.614  16.014  0.00  0.00    +0.000 A 
ATOM      4  C   UNL     1       6.550   5.162  16.145  0.00  0.00    +0.000 A 
ATOM      5  N   UNL     1       7.175   4.784  14.979  0.00  0.00    +0.000 N 
ATOM      6  H   UNL     1       8.112   5.041  14.691  0.00  0.00    +0.000 HD
ENDROOT
BRANCH   4   7
ATOM      7  C   UNL     1       7.208   6.014  17.139  0.00  0.00    +0.000 A 
ATOM      8  C   UNL     1       7.503   5.521  18.410  0.00  0.00    +0.000 A 
ATOM      9  C   UNL     1       8.161   6.342  19.300  0.00  0.00    +0.000 A 
ATOM     10  N   UNL     1       8.482   7.617  19.029  0.00  0.00    +0.000 NA
ATOM     11  C   UNL     1       8.161   8.124  17.830  0.00  0.00    +0.000 A 
ATOM     12  N   UNL     1       8.433   9.471  17.542  0.00  0.00    +0.000 N 
ATOM     13  C   UNL     1       9.009  10.349  18.436  0.00  0.00    +0.000 C 
ATOM     14  O   UNL     1       9.407  10.106  19.565  0.00  0.00    +0.000 OA
ATOM     15  C   UNL     1       7.538   7.348  16.854  0.00  0.00    +0.000 A 
ATOM     16  H   UNL     1       8.177   9.813  16.631  0.00  0.00    +0.000 HD
BRANCH  13  17
ATOM     17  C   UNL     1       9.167  11.759  17.967  0.00  0.00    +0.000 C 
ATOM     18  C   UNL     1       7.961  12.525  17.480  0.00  0.00    +0.000 C 
ATOM     19  C   UNL     1       8.720  13.007  18.684  0.00  0.00    +0.000 C 
ENDBRANCH  13  17
ENDBRANCH   4   7
BRANCH   3  20
ATOM     20  C   UNL     1       4.178   4.695  16.972  0.00  0.00    +0.000 A 
ATOM     21  C   UNL     1       3.530   3.540  17.436  0.00  0.00    +0.000 A 
ATOM     22  C   UNL     1       2.557   3.620  18.433  0.00  0.00    +0.000 A 
ATOM     23  C   UNL     1       2.191   4.862  18.933  0.00  0.00    +0.000 A 
ATOM     24  F   UNL     1       1.261   4.937  19.893  0.00  0.00    +0.000 F 
ATOM     25  C   UNL     1       2.776   6.026  18.449  0.00  0.00    +0.000 A 
ATOM     26  C   UNL     1       3.772   5.944  17.469  0.00  0.00    +0.000 A 
ENDBRANCH   3  20
BRANCH   1  27
ATOM     27  C   UNL     1       6.613   3.774  12.811  0.00  0.00    +0.000 C 
ATOM     28  O   UNL     1       7.239   4.499  12.046  0.00  0.00    +0.000 OA
BRANCH  27  29
ATOM     29  O   UNL     1       6.023   2.596  12.472  0.00  0.00    +0.000 OA
BRANCH  29  31
ATOM     30  C   UNL     1       4.036   3.285  11.346  0.00  0.00    +0.000 C 
ATOM     31  C   UNL     1       5.378   2.592  11.193  0.00  0.00    +0.000 C 
ENDBRANCH  29  31
ENDBRANCH  27  29
ENDBRANCH   1  27
TORSDOF 6
ENDMDL
MODEL 3
REMARK VINA RESULT:      -8.8      3.108      7.818
REMARK  Name = 
REMARK  7 active torsions:
REMARK  status: ('A' for Active; 'I' for Inactive)
REMARK    1  A    between atoms: C_1  and  C_2
REMARK    2  A    between atoms: C_2  and  O_3
REMARK    3  A    between atoms: O_3  and  C_4
REMARK    4  A    between atoms: C_4  and  C_6
REMARK    5  A    between atoms: C_8  and  C_9
REMARK    6  A    between atoms: C_16  and  C_17
REMARK    7  A    between atoms: C_23  and  C_25
REMARK                            x       y       z     vdW  Elec       q    Type
REMARK                         _______ _______ _______ _____ _____    ______ ____
ROOT
ATOM      1  C   UNL     1       5.377   4.813  16.338  0.00  0.00    +0.000 A 
ATOM      2  N   UNL     1       4.820   3.930  17.142  0.00  0.00    +0.000 NA
ATOM      3  C   UNL     1       3.941   4.640  17.938  0.00  0.00    +0.000 A 
ATOM      4  C   UNL     1       3.939   5.990  17.590  0.00  0.00    +0.000 A 
ATOM      5  N   UNL     1       4.908   6.065  16.616  0.00  0.00    +0.000 N 
ATOM      6  H   UNL     1       5.160   6.890  16.085  0.00  0.00    +0.000 HD
ENDROOT
BRANCH   4   7
ATOM      7  C   UNL     1       3.138   7.153  17.981  0.00  0.00    +0.000 A 
ATOM      8  C   UNL     1       3.147   8.312  17.205  0.00  0.00    +0.000 A 
ATOM      9  C   UNL     1       2.345   9.366  17.585  0.00  0.00    +0.000 A 
ATOM     10  N   UNL     1       1.597   9.360  18.700  0.00  0.00    +0.000 NA
ATOM     11  C   UNL     1       1.615   8.273  19.484  0.00  0.00    +0.000 A 
ATOM     12  N   UNL     1       0.888   8.263  20.685  0.00  0.00    +0.000 N 
ATOM     13  C   UNL     1       0.144   9.330  21.146  0.00  0.00    +0.000 C 
ATOM     14  O   UNL     1      -0.040  10.403  20.590  0.00  0.00    +0.000 OA
ATOM     15  C   UNL     1       2.360   7.145  19.149  0.00  0.00    +0.000 A 
ATOM     16  H   UNL     1       0.926   7.429  21.246  0.00  0.00    +0.000 HD
BRANCH  13  17
ATOM     17  C   UNL     1      -0.515   9.151  22.474  0.00  0.00    +0.000 C 
ATOM     18  C   UNL     1       0.242   9.491  23.736  0.00  0.00    +0.000 C 
ATOM     19  C   UNL     1      -1.015  10.238  23.390  0.00  0.00    +0.000 C 
ENDBRANCH  13  17
ENDBRANCH   4   7
BRANCH   3  20
ATOM     20  C   UNL     1       3.109   3.987  18.941  0.00  0.00    +0.000 A 
ATOM     21  C   UNL     1       3.658   3.496  20.136  0.00  0.00    +0.000 A 
ATOM     22  C   UNL     1       2.839   2.972  21.136  0.00  0.00    +0.000 A 
ATOM     23  C   UNL     1       1.469   2.888  20.922  0.00  0.00    +0.000 A 
ATOM     24  F   UNL     1       0.683   2.390  21.885  0.00  0.00    +0.000 F 
ATOM     25  C   UNL     1       0.907   3.313  19.725  0.00  0.00    +0.000 A 
ATOM     26  C   UNL     1       1.726   3.865  18.733  0.00  0.00    +0.000 A 
ENDBRANCH   3  20
BRANCH   1  27
ATOM     27  C   UNL     1       6.281   4.562  15.240  0.00  0.00    +0.000 C 
ATOM     28  O   UNL     1       7.460   4.901  15.241  0.00  0.00    +0.000 OA
BRANCH  27  29
ATOM     29  O   UNL     1       5.617   4.032  14.178  0.00  0.00    +0.000 OA
BRANCH  29  31
ATOM     30  C   UNL     1       5.587   3.005  12.025  0.00  0.00    +0.000 C 
ATOM     31  C   UNL     1       6.429   3.775  13.027  0.00  0.00    +0.000 C 
ENDBRANCH  29  31
ENDBRANCH  27  29
ENDBRANCH   1  27
TORSDOF 6
ENDMDL
MODEL 4
REMARK VINA RESULT:      -8.8      3.820      6.922
REMARK  Name = 
REMARK  7 active torsions:
REMARK  status: ('A' for Active; 'I' for Inactive)
REMARK    1  A    between atoms: C_1  and  C_2
REMARK    2  A    between atoms: C_2  and  O_3
REMARK    3  A    between atoms: O_3  and  C_4
REMARK    4  A    between atoms: C_4  and  C_6
REMARK    5  A    between atoms: C_8  and  C_9
REMARK    6  A    between atoms: C_16  and  C_17
REMARK    7  A    between atoms: C_23  and  C_25
REMARK                            x       y       z     vdW  Elec       q    Type
REMARK                         _______ _______ _______ _____ _____    ______ ____
ROOT
ATOM      1  C   UNL     1       6.277   4.292  14.065  0.00  0.00    +0.000 A 
ATOM      2  N   UNL     1       5.151   4.052  14.705  0.00  0.00    +0.000 NA
ATOM      3  C   UNL     1       5.318   4.567  15.976  0.00  0.00    +0.000 A 
ATOM      4  C   UNL     1       6.570   5.167  16.107  0.00  0.00    +0.000 A 
ATOM      5  N   UNL     1       7.167   4.915  14.893  0.00  0.00    +0.000 N 
ATOM      6  H   UNL     1       8.078   5.241  14.595  0.00  0.00    +0.000 HD
ENDROOT
BRANCH   4   7
ATOM      7  C   UNL     1       7.224   5.969  17.143  0.00  0.00    +0.000 A 
ATOM      8  C   UNL     1       7.566   5.399  18.370  0.00  0.00    +0.000 A 
ATOM      9  C   UNL     1       8.218   6.177  19.300  0.00  0.00    +0.000 A 
ATOM     10  N   UNL     1       8.493   7.478  19.112  0.00  0.00    +0.000 NA
ATOM     11  C   UNL     1       8.127   8.056  17.959  0.00  0.00    +0.000 A 
ATOM     12  N   UNL     1       8.349   9.428  17.760  0.00  0.00    +0.000 N 
ATOM     13  C   UNL     1       8.919  10.261  18.701  0.00  0.00    +0.000 C 
ATOM     14  O   UNL     1       9.352   9.954  19.802  0.00  0.00    +0.000 OA
ATOM     15  C   UNL     1       7.506   7.330  16.945  0.00  0.00    +0.000 A 
ATOM     16  H   UNL     1       8.061   9.824  16.882  0.00  0.00    +0.000 HD
BRANCH  13  17
ATOM     17  C   UNL     1       9.021  11.704  18.329  0.00  0.00    +0.000 C 
ATOM     18  C   UNL     1      10.153  12.539  18.877  0.00  0.00    +0.000 C 
ATOM     19  C   UNL     1      10.024  12.330  17.395  0.00  0.00    +0.000 C 
ENDBRANCH  13  17
ENDBRANCH   4   7
BRANCH   3  20
ATOM     20  C   UNL     1       4.257   4.516  16.975  0.00  0.00    +0.000 A 
ATOM     21  C   UNL     1       3.691   5.690  17.496  0.00  0.00    +0.000 A 
ATOM     22  C   UNL     1       2.603   5.631  18.368  0.00  0.00    +0.000 A 
ATOM     23  C   UNL     1       2.110   4.395  18.763  0.00  0.00    +0.000 A 
ATOM     24  F   UNL     1       1.063   4.339  19.595  0.00  0.00    +0.000 F 
ATOM     25  C   UNL     1       2.690   3.217  18.308  0.00  0.00    +0.000 A 
ATOM     26  C   UNL     1       3.763   3.276  17.411  0.00  0.00    +0.000 A 
ENDBRANCH   3  20
BRANCH   1  27
ATOM     27  C   UNL     1       6.570   4.053  12.671  0.00  0.00    +0.000 C 
ATOM     28  O   UNL     1       7.459   4.631  12.055  0.00  0.00    +0.000 OA
BRANCH  27  29
ATOM     29  O   UNL     1       5.650   3.216  12.120  0.00  0.00    +0.000 OA
BRANCH  29  31
ATOM     30  C   UNL     1       3.555   2.862  11.034  0.00  0.00    +0.000 C 
ATOM     31  C   UNL     1       4.676   3.856  11.287  0.00  0.00    +0.000 C 
ENDBRANCH  29  31
ENDBRANCH  27  29
ENDBRANCH   1  27
TORSDOF 6
ENDMDL
MODEL 5
REMARK VINA RESULT:      -8.7      0.499      1.028
REMARK  Name = 
REMARK  7 active torsions:
REMARK  status: ('A' for Active; 'I' for Inactive)
REMARK    1  A    between atoms: C_1  and  C_2
REMARK    2  A    between atoms: C_2  and  O_3
REMARK    3  A    between atoms: O_3  and  C_4
REMARK    4  A    between atoms: C_4  and  C_6
REMARK    5  A    between atoms: C_8  and  C_9
REMARK    6  A    between atoms: C_16  and  C_17
REMARK    7  A    between atoms: C_23  and  C_25
REMARK                            x       y       z     vdW  Elec       q    Type
REMARK                         _______ _______ _______ _____ _____    ______ ____
ROOT
ATOM      1  C   UNL     1       2.761   4.020  20.551  0.00  0.00    +0.000 A 
ATOM      2  N   UNL     1       2.123   5.166  20.423  0.00  0.00    +0.000 NA
ATOM      3  C   UNL     1       2.873   5.923  19.544  0.00  0.00    +0.000 A 
ATOM      4  C   UNL     1       3.984   5.209  19.098  0.00  0.00    +0.000 A 
ATOM      5  N   UNL     1       3.907   4.033  19.808  0.00  0.00    +0.000 N 
ATOM      6  H   UNL     1       4.526   3.236  19.716  0.00  0.00    +0.000 HD
ENDROOT
BRANCH   4   7
ATOM      7  C   UNL     1       5.021   5.441  18.089  0.00  0.00    +0.000 A 
ATOM      8  C   UNL     1       6.098   6.285  18.362  0.00  0.00    +0.000 A 
ATOM      9  C   UNL     1       7.072   6.442  17.401  0.00  0.00    +0.000 A 
ATOM     10  N   UNL     1       7.011   5.870  16.187  0.00  0.00    +0.000 NA
ATOM     11  C   UNL     1       5.958   5.096  15.889  0.00  0.00    +0.000 A 
ATOM     12  N   UNL     1       5.840   4.534  14.608  0.00  0.00    +0.000 N 
ATOM     13  C   UNL     1       6.748   4.738  13.590  0.00  0.00    +0.000 C 
ATOM     14  O   UNL     1       7.789   5.377  13.639  0.00  0.00    +0.000 OA
ATOM     15  C   UNL     1       4.952   4.846  16.820  0.00  0.00    +0.000 A 
ATOM     16  H   UNL     1       5.036   3.959  14.424  0.00  0.00    +0.000 HD
BRANCH  13  17
ATOM     17  C   UNL     1       6.423   4.103  12.278  0.00  0.00    +0.000 C 
ATOM     18  C   UNL     1       6.534   2.605  12.124  0.00  0.00    +0.000 C 
ATOM     19  C   UNL     1       5.204   3.282  11.946  0.00  0.00    +0.000 C 
ENDBRANCH  13  17
ENDBRANCH   4   7
BRANCH   3  20
ATOM     20  C   UNL     1       2.459   7.259  19.129  0.00  0.00    +0.000 A 
ATOM     21  C   UNL     1       1.684   8.074  19.968  0.00  0.00    +0.000 A 
ATOM     22  C   UNL     1       1.386   9.389  19.609  0.00  0.00    +0.000 A 
ATOM     23  C   UNL     1       1.818   9.877  18.383  0.00  0.00    +0.000 A 
ATOM     24  F   UNL     1       1.536  11.140  18.042  0.00  0.00    +0.000 F 
ATOM     25  C   UNL     1       2.537   9.071  17.508  0.00  0.00    +0.000 A 
ATOM     26  C   UNL     1       2.861   7.762  17.881  0.00  0.00    +0.000 A 
ENDBRANCH   3  20
BRANCH   1  27
ATOM     27  C   UNL     1       2.330   2.844  21.270  0.00  0.00    +0.000 C 
ATOM     28  O   UNL     1       2.986   2.315  22.161  0.00  0.00    +0.000 OA
BRANCH  27  29
ATOM     29  O   UNL     1       1.185   2.342  20.733  0.00  0.00    +0.000 OA
BRANCH  29  31
ATOM     30  C   UNL     1       0.560   2.679  18.455  0.00  0.00    +0.000 C 
ATOM     31  C   UNL     1       1.327   1.791  19.418  0.00  0.00    +0.000 C 
ENDBRANCH  29  31
ENDBRANCH  27  29
ENDBRANCH   1  27
TORSDOF 6
ENDMDL
MODEL 6
REMARK VINA RESULT:      -8.7      3.830      7.733
REMARK  Name = 
REMARK  7 active torsions:
REMARK  status: ('A' for Active; 'I' for Inactive)
REMARK    1  A    between atoms: C_1  and  C_2
REMARK    2  A    between atoms: C_2  and  O_3
REMARK    3  A    between atoms: O_3  and  C_4
REMARK    4  A    between atoms: C_4  and  C_6
REMARK    5  A    between atoms: C_8  and  C_9
REMARK    6  A    between atoms: C_16  and  C_17
REMARK    7  A    between atoms: C_23  and  C_25
REMARK                            x       y       z     vdW  Elec       q    Type
REMARK                         _______ _______ _______ _____ _____    ______ ____
ROOT
ATOM      1  C   UNL     1       4.461   6.133  16.873  0.00  0.00    +0.000 A 
ATOM      2  N   UNL     1       4.090   5.112  17.620  0.00  0.00    +0.000 NA
ATOM      3  C   UNL     1       3.142   5.606  18.495  0.00  0.00    +0.000 A 
ATOM      4  C   UNL     1       2.903   6.958  18.256  0.00  0.00    +0.000 A 
ATOM      5  N   UNL     1       3.804   7.265  17.262  0.00  0.00    +0.000 N 
ATOM      6  H   UNL     1       3.895   8.157  16.791  0.00  0.00    +0.000 HD
ENDROOT
BRANCH   4   7
ATOM      7  C   UNL     1       1.939   7.939  18.760  0.00  0.00    +0.000 A 
ATOM      8  C   UNL     1       1.852   8.208  20.127  0.00  0.00    +0.000 A 
ATOM      9  C   UNL     1       0.961   9.168  20.554  0.00  0.00    +0.000 A 
ATOM     10  N   UNL     1       0.127   9.821  19.729  0.00  0.00    +0.000 NA
ATOM     11  C   UNL     1       0.162   9.539  18.419  0.00  0.00    +0.000 A 
ATOM     12  N   UNL     1      -0.740  10.164  17.543  0.00  0.00    +0.000 N 
ATOM     13  C   UNL     1      -1.705  11.065  17.943  0.00  0.00    +0.000 C 
ATOM     14  O   UNL     1      -1.903  11.490  19.071  0.00  0.00    +0.000 OA
ATOM     15  C   UNL     1       1.065   8.616  17.896  0.00  0.00    +0.000 A 
ATOM     16  H   UNL     1      -0.682   9.926  16.567  0.00  0.00    +0.000 HD
BRANCH  13  17
ATOM     17  C   UNL     1      -2.611  11.581  16.873  0.00  0.00    +0.000 C 
ATOM     18  C   UNL     1      -2.783  10.796  15.595  0.00  0.00    +0.000 C 
ATOM     19  C   UNL     1      -3.964  11.039  16.492  0.00  0.00    +0.000 C 
ENDBRANCH  13  17
ENDBRANCH   4   7
BRANCH   3  20
ATOM     20  C   UNL     1       2.471   4.751  19.468  0.00  0.00    +0.000 A 
ATOM     21  C   UNL     1       1.409   3.914  19.091  0.00  0.00    +0.000 A 
ATOM     22  C   UNL     1       0.847   3.020  20.003  0.00  0.00    +0.000 A 
ATOM     23  C   UNL     1       1.310   2.999  21.312  0.00  0.00    +0.000 A 
ATOM     24  F   UNL     1       0.773   2.137  22.185  0.00  0.00    +0.000 F 
ATOM     25  C   UNL     1       2.320   3.859  21.726  0.00  0.00    +0.000 A 
ATOM     26  C   UNL     1       2.903   4.735  20.803  0.00  0.00    +0.000 A 
ENDBRANCH   3  20
BRANCH   1  27
ATOM     27  C   UNL     1       5.347   6.117  15.733  0.00  0.00    +0.000 C 
ATOM     28  O   UNL     1       5.279   6.921  14.809  0.00  0.00    +0.000 OA
BRANCH  27  29
ATOM     29  O   UNL     1       6.158   5.026  15.766  0.00  0.00    +0.000 OA
BRANCH  29  31
ATOM     30  C   UNL     1       6.166   3.791  13.724  0.00  0.00    +0.000 C 
ATOM     31  C   UNL     1       6.918   4.803  14.572  0.00  0.00    +0.000 C 
ENDBRANCH  29  31
ENDBRANCH  27  29
ENDBRANCH   1  27
TORSDOF 6
ENDMDL
MODEL 7
REMARK VINA RESULT:      -8.6      3.164      7.746
REMARK  Name = 
REMARK  7 active torsions:
REMARK  status: ('A' for Active; 'I' for Inactive)
REMARK    1  A    between atoms: C_1  and  C_2
REMARK    2  A    between atoms: C_2  and  O_3
REMARK    3  A    between atoms: O_3  and  C_4
REMARK    4  A    between atoms: C_4  and  C_6
REMARK    5  A    between atoms: C_8  and  C_9
REMARK    6  A    between atoms: C_16  and  C_17
REMARK    7  A    between atoms: C_23  and  C_25
REMARK                            x       y       z     vdW  Elec       q    Type
REMARK                         _______ _______ _______ _____ _____    ______ ____
ROOT
ATOM      1  C   UNL     1       5.568   4.651  17.095  0.00  0.00    +0.000 A 
ATOM      2  N   UNL     1       4.929   3.830  17.904  0.00  0.00    +0.000 NA
ATOM      3  C   UNL     1       3.969   4.594  18.541  0.00  0.00    +0.000 A 
ATOM      4  C   UNL     1       4.002   5.911  18.085  0.00  0.00    +0.000 A 
ATOM      5  N   UNL     1       5.070   5.916  17.217  0.00  0.00    +0.000 N 
ATOM      6  H   UNL     1       5.377   6.698  16.651  0.00  0.00    +0.000 HD
ENDROOT
BRANCH   4   7
ATOM      7  C   UNL     1       3.161   7.093  18.291  0.00  0.00    +0.000 A 
ATOM      8  C   UNL     1       3.197   8.154  17.386  0.00  0.00    +0.000 A 
ATOM      9  C   UNL     1       2.359   9.227  17.594  0.00  0.00    +0.000 A 
ATOM     10  N   UNL     1       1.547   9.334  18.658  0.00  0.00    +0.000 NA
ATOM     11  C   UNL     1       1.536   8.347  19.565  0.00  0.00    +0.000 A 
ATOM     12  N   UNL     1       0.741   8.460  20.716  0.00  0.00    +0.000 N 
ATOM     13  C   UNL     1      -0.045   9.556  21.006  0.00  0.00    +0.000 C 
ATOM     14  O   UNL     1      -0.213  10.553  20.319  0.00  0.00    +0.000 OA
ATOM     15  C   UNL     1       2.317   7.204  19.407  0.00  0.00    +0.000 A 
ATOM     16  H   UNL     1       0.760   7.698  21.373  0.00  0.00    +0.000 HD
BRANCH  13  17
ATOM     17  C   UNL     1      -0.777   9.519  22.307  0.00  0.00    +0.000 C 
ATOM     18  C   UNL     1      -0.011   9.664  23.600  0.00  0.00    +0.000 C 
ATOM     19  C   UNL     1      -1.050  10.682  23.226  0.00  0.00    +0.000 C 
ENDBRANCH  13  17
ENDBRANCH   4   7
BRANCH   3  20
ATOM     20  C   UNL     1       3.035   4.016  19.499  0.00  0.00    +0.000 A 
ATOM     21  C   UNL     1       1.854   3.385  19.075  0.00  0.00    +0.000 A 
ATOM     22  C   UNL     1       1.022   2.740  19.991  0.00  0.00    +0.000 A 
ATOM     23  C   UNL     1       1.341   2.768  21.341  0.00  0.00    +0.000 A 
ATOM     24  F   UNL     1       0.544   2.143  22.218  0.00  0.00    +0.000 F 
ATOM     25  C   UNL     1       2.473   3.435  21.794  0.00  0.00    +0.000 A 
ATOM     26  C   UNL     1       3.322   4.058  20.872  0.00  0.00    +0.000 A 
ENDBRANCH   3  20
BRANCH   1  27
ATOM     27  C   UNL     1       6.586   4.321  16.125  0.00  0.00    +0.000 C 
ATOM     28  O   UNL     1       7.716   4.799  16.137  0.00  0.00    +0.000 OA
BRANCH  27  29
ATOM     29  O   UNL     1       6.079   3.529  15.143  0.00  0.00    +0.000 OA
BRANCH  29  31
ATOM     30  C   UNL     1       6.217   3.535  12.761  0.00  0.00    +0.000 C 
ATOM     31  C   UNL     1       5.628   4.229  13.977  0.00  0.00    +0.000 C 
ENDBRANCH  29  31
ENDBRANCH  27  29
ENDBRANCH   1  27
TORSDOF 6
ENDMDL
MODEL 8
REMARK VINA RESULT:      -8.6      3.744      7.794
REMARK  Name = 
REMARK  7 active torsions:
REMARK  status: ('A' for Active; 'I' for Inactive)
REMARK    1  A    between atoms: C_1  and  C_2
REMARK    2  A    between atoms: C_2  and  O_3
REMARK    3  A    between atoms: O_3  and  C_4
REMARK    4  A    between atoms: C_4  and  C_6
REMARK    5  A    between atoms: C_8  and  C_9
REMARK    6  A    between atoms: C_16  and  C_17
REMARK    7  A    between atoms: C_23  and  C_25
REMARK                            x       y       z     vdW  Elec       q    Type
REMARK                         _______ _______ _______ _____ _____    ______ ____
ROOT
ATOM      1  C   UNL     1       4.783   6.155  16.973  0.00  0.00    +0.000 A 
ATOM      2  N   UNL     1       4.407   5.100  17.667  0.00  0.00    +0.000 NA
ATOM      3  C   UNL     1       3.404   5.537  18.511  0.00  0.00    +0.000 A 
ATOM      4  C   UNL     1       3.140   6.890  18.307  0.00  0.00    +0.000 A 
ATOM      5  N   UNL     1       4.078   7.255  17.368  0.00  0.00    +0.000 N 
ATOM      6  H   UNL     1       4.166   8.165  16.933  0.00  0.00    +0.000 HD
ENDROOT
BRANCH   4   7
ATOM      7  C   UNL     1       2.125   7.827  18.797  0.00  0.00    +0.000 A 
ATOM      8  C   UNL     1       1.955   8.032  20.167  0.00  0.00    +0.000 A 
ATOM      9  C   UNL     1       1.019   8.953  20.584  0.00  0.00    +0.000 A 
ATOM     10  N   UNL     1       0.218   9.625  19.741  0.00  0.00    +0.000 NA
ATOM     11  C   UNL     1       0.334   9.404  18.424  0.00  0.00    +0.000 A 
ATOM     12  N   UNL     1      -0.531  10.049  17.526  0.00  0.00    +0.000 N 
ATOM     13  C   UNL     1      -1.538  10.910  17.909  0.00  0.00    +0.000 C 
ATOM     14  O   UNL     1      -1.809  11.280  19.041  0.00  0.00    +0.000 OA
ATOM     15  C   UNL     1       1.287   8.524  17.914  0.00  0.00    +0.000 A 
ATOM     16  H   UNL     1      -0.412   9.857  16.545  0.00  0.00    +0.000 HD
BRANCH  13  17
ATOM     17  C   UNL     1      -2.393  11.456  16.812  0.00  0.00    +0.000 C 
ATOM     18  C   UNL     1      -3.006  10.515  15.803  0.00  0.00    +0.000 C 
ATOM     19  C   UNL     1      -3.890  11.344  16.690  0.00  0.00    +0.000 C 
ENDBRANCH  13  17
ENDBRANCH   4   7
BRANCH   3  20
ATOM     20  C   UNL     1       2.712   4.631  19.421  0.00  0.00    +0.000 A 
ATOM     21  C   UNL     1       3.122   4.486  20.755  0.00  0.00    +0.000 A 
ATOM     22  C   UNL     1       2.388   3.702  21.646  0.00  0.00    +0.000 A 
ATOM     23  C   UNL     1       1.270   3.017  21.191  0.00  0.00    +0.000 A 
ATOM     24  F   UNL     1       0.563   2.268  22.047  0.00  0.00    +0.000 F 
ATOM     25  C   UNL     1       0.877   3.096  19.860  0.00  0.00    +0.000 A 
ATOM     26  C   UNL     1       1.596   3.906  18.974  0.00  0.00    +0.000 A 
ENDBRANCH   3  20
BRANCH   1  27
ATOM     27  C   UNL     1       5.723   6.203  15.877  0.00  0.00    +0.000 C 
ATOM     28  O   UNL     1       5.405   6.040  14.704  0.00  0.00    +0.000 OA
BRANCH  27  29
ATOM     29  O   UNL     1       6.997   6.316  16.338  0.00  0.00    +0.000 OA
BRANCH  29  31
ATOM     30  C   UNL     1       7.862   8.141  17.608  0.00  0.00    +0.000 C 
ATOM     31  C   UNL     1       7.113   6.822  17.673  0.00  0.00    +0.000 C 
ENDBRANCH  29  31
ENDBRANCH  27  29
ENDBRANCH   1  27
TORSDOF 6
ENDMDL
MODEL 9
REMARK VINA RESULT:      -8.5      3.216      7.773
REMARK  Name = 
REMARK  7 active torsions:
REMARK  status: ('A' for Active; 'I' for Inactive)
REMARK    1  A    between atoms: C_1  and  C_2
REMARK    2  A    between atoms: C_2  and  O_3
REMARK    3  A    between atoms: O_3  and  C_4
REMARK    4  A    between atoms: C_4  and  C_6
REMARK    5  A    between atoms: C_8  and  C_9
REMARK    6  A    between atoms: C_16  and  C_17
REMARK    7  A    between atoms: C_23  and  C_25
REMARK                            x       y       z     vdW  Elec       q    Type
REMARK                         _______ _______ _______ _____ _____    ______ ____
ROOT
ATOM      1  C   UNL     1       6.049   4.945  17.586  0.00  0.00    +0.000 A 
ATOM      2  N   UNL     1       5.409   4.044  18.304  0.00  0.00    +0.000 NA
ATOM      3  C   UNL     1       4.295   4.684  18.813  0.00  0.00    +0.000 A 
ATOM      4  C   UNL     1       4.236   6.003  18.368  0.00  0.00    +0.000 A 
ATOM      5  N   UNL     1       5.398   6.144  17.646  0.00  0.00    +0.000 N 
ATOM      6  H   UNL     1       5.684   6.964  17.125  0.00  0.00    +0.000 HD
ENDROOT
BRANCH   4   7
ATOM      7  C   UNL     1       3.246   7.079  18.466  0.00  0.00    +0.000 A 
ATOM      8  C   UNL     1       3.097   8.000  17.429  0.00  0.00    +0.000 A 
ATOM      9  C   UNL     1       2.125   8.970  17.543  0.00  0.00    +0.000 A 
ATOM     10  N   UNL     1       1.350   9.114  18.630  0.00  0.00    +0.000 NA
ATOM     11  C   UNL     1       1.514   8.268  19.658  0.00  0.00    +0.000 A 
ATOM     12  N   UNL     1       0.757   8.433  20.829  0.00  0.00    +0.000 N 
ATOM     13  C   UNL     1      -0.162   9.443  21.018  0.00  0.00    +0.000 C 
ATOM     14  O   UNL     1      -0.496  10.304  20.217  0.00  0.00    +0.000 OA
ATOM     15  C   UNL     1       2.440   7.229  19.605  0.00  0.00    +0.000 A 
ATOM     16  H   UNL     1       0.909   7.778  21.577  0.00  0.00    +0.000 HD
BRANCH  13  17
ATOM     17  C   UNL     1      -0.829   9.489  22.354  0.00  0.00    +0.000 C 
ATOM     18  C   UNL     1       0.011   9.557  23.607  0.00  0.00    +0.000 C 
ATOM     19  C   UNL     1      -0.933  10.678  23.274  0.00  0.00    +0.000 C 
ENDBRANCH  13  17
ENDBRANCH   4   7
BRANCH   3  20
ATOM     20  C   UNL     1       3.317   3.988  19.641  0.00  0.00    +0.000 A 
ATOM     21  C   UNL     1       3.718   3.169  20.708  0.00  0.00    +0.000 A 
ATOM     22  C   UNL     1       2.775   2.595  21.562  0.00  0.00    +0.000 A 
ATOM     23  C   UNL     1       1.423   2.797  21.319  0.00  0.00    +0.000 A 
ATOM     24  F   UNL     1       0.518   2.251  22.141  0.00  0.00    +0.000 F 
ATOM     25  C   UNL     1       0.998   3.555  20.234  0.00  0.00    +0.000 A 
ATOM     26  C   UNL     1       1.945   4.153  19.395  0.00  0.00    +0.000 A 
ENDBRANCH   3  20
BRANCH   1  27
ATOM     27  C   UNL     1       7.214   4.748  16.755  0.00  0.00    +0.000 C 
ATOM     28  O   UNL     1       8.187   4.084  17.096  0.00  0.00    +0.000 OA
BRANCH  27  29
ATOM     29  O   UNL     1       7.133   5.500  15.624  0.00  0.00    +0.000 OA
BRANCH  29  31
ATOM     30  C   UNL     1       6.286   3.788  14.194  0.00  0.00    +0.000 C 
ATOM     31  C   UNL     1       6.037   5.175  14.762  0.00  0.00    +0.000 C 
ENDBRANCH  29  31
ENDBRANCH  27  29
ENDBRANCH   1  27
TORSDOF 6
ENDMDL
