MODEL 1
REMARK VINA RESULT:      -6.3      0.000      0.000
REMARK  Name = 
REMARK  7 active torsions:
REMARK  status: ('A' for Active; 'I' for Inactive)
REMARK    1  A    between atoms: C_1  and  C_2
REMARK    2  A    between atoms: C_2  and  C_3
REMARK    3  A    between atoms: N_9  and  C_10
REMARK    4  A    between atoms: C_11  and  C_12
REMARK    5  A    between atoms: C_12  and  C_13
REMARK    6  A    between atoms: C_13  and  O_14
REMARK    7  A    between atoms: C_18  and  C_19
REMARK                            x       y       z     vdW  Elec       q    Type
REMARK                         _______ _______ _______ _____ _____    ______ ____
ROOT
ATOM      1  C   UNL     1       1.445   8.720  20.046  0.00  0.00    +0.000 A 
ATOM      2  N   UNL     1       2.271   7.681  19.771  0.00  0.00    +0.000 NA
ATOM      3  C   UNL     1       2.756   7.539  18.524  0.00  0.00    +0.000 A 
ATOM      4  N   UNL     1       3.688   6.573  18.277  0.00  0.00    +0.000 N 
ATOM      5  C   UNL     1       4.026   5.582  19.282  0.00  0.00    +0.000 C 
ATOM      6  C   UNL     1       5.546   5.333  19.226  0.00  0.00    +0.000 C 
ATOM      7  N   UNL     1       6.007   4.905  17.878  0.00  0.00    +0.000 NA
ATOM      8  C   UNL     1       7.437   4.609  17.932  0.00  0.00    +0.000 C 
ATOM      9  C   UNL     1       5.647   5.963  16.872  0.00  0.00    +0.000 C 
ATOM     10  C   UNL     1       4.111   6.268  16.914  0.00  0.00    +0.000 C 
ATOM     11  N   UNL     1       2.419   8.378  17.533  0.00  0.00    +0.000 NA
ATOM     12  C   UNL     1       1.595   9.394  17.827  0.00  0.00    +0.000 A 
ATOM     13  C   UNL     1       1.069   9.631  19.076  0.00  0.00    +0.000 A 
ATOM     14  C   UNL     1       0.184  10.806  19.320  0.00  0.00    +0.000 C 
ENDROOT
BRANCH   1  16
ATOM     15  C   UNL     1      -0.418   8.308  21.696  0.00  0.00    +0.000 C 
ATOM     16  C   UNL     1       0.995   8.826  21.481  0.00  0.00    +0.000 C 
ENDBRANCH   1  16
BRANCH   9  17
ATOM     17  C   UNL     1       6.072   5.591  15.428  0.00  0.00    +0.000 C 
BRANCH  17  18
ATOM     18  C   UNL     1       5.406   4.321  14.890  0.00  0.00    +0.000 C 
BRANCH  18  19
ATOM     19  O   UNL     1       6.373   3.499  14.249  0.00  0.00    +0.000 OA
ATOM     20  H   UNL     1       7.254   3.837  14.481  0.00  0.00    +0.000 HD
ENDBRANCH  18  19
ENDBRANCH  17  18
ENDBRANCH   9  17
TORSDOF 4
ENDMDL
MODEL 2
REMARK VINA RESULT:      -6.1      4.254      7.621
REMARK  Name = 
REMARK  7 active torsions:
REMARK  status: ('A' for Active; 'I' for Inactive)
REMARK    1  A    between atoms: C_1  and  C_2
REMARK    2  A    between atoms: C_2  and  C_3
REMARK    3  A    between atoms: N_9  and  C_10
REMARK    4  A    between atoms: C_11  and  C_12
REMARK    5  A    between atoms: C_12  and  C_13
REMARK    6  A    between atoms: C_13  and  O_14
REMARK    7  A    between atoms: C_18  and  C_19
REMARK                            x       y       z     vdW  Elec       q    Type
REMARK                         _______ _______ _______ _____ _____    ______ ____
ROOT
ATOM      1  C   UNL     1       2.200   6.034  20.053  0.00  0.00    +0.000 A 
ATOM      2  N   UNL     1       1.797   7.054  20.851  0.00  0.00    +0.000 NA
ATOM      3  C   UNL     1       1.625   8.277  20.317  0.00  0.00    +0.000 A 
ATOM      4  N   UNL     1       1.096   9.272  21.087  0.00  0.00    +0.000 N 
ATOM      5  C   UNL     1       0.891   9.089  22.512  0.00  0.00    +0.000 C 
ATOM      6  C   UNL     1      -0.441   9.760  22.901  0.00  0.00    +0.000 C 
ATOM      7  N   UNL     1      -0.485  11.200  22.535  0.00  0.00    +0.000 NA
ATOM      8  C   UNL     1      -1.739  11.778  23.013  0.00  0.00    +0.000 C 
ATOM      9  C   UNL     1      -0.280  11.342  21.053  0.00  0.00    +0.000 C 
ATOM     10  C   UNL     1       1.053  10.650  20.609  0.00  0.00    +0.000 C 
ATOM     11  N   UNL     1       1.872   8.526  19.022  0.00  0.00    +0.000 NA
ATOM     12  C   UNL     1       2.276   7.504  18.254  0.00  0.00    +0.000 A 
ATOM     13  C   UNL     1       2.457   6.217  18.707  0.00  0.00    +0.000 A 
ATOM     14  C   UNL     1       2.880   5.133  17.774  0.00  0.00    +0.000 C 
ENDROOT
BRANCH   1  16
ATOM     15  C   UNL     1       1.059   3.847  20.583  0.00  0.00    +0.000 C 
ATOM     16  C   UNL     1       2.315   4.692  20.729  0.00  0.00    +0.000 C 
ENDBRANCH   1  16
BRANCH   9  17
ATOM     17  C   UNL     1      -0.289  12.820  20.582  0.00  0.00    +0.000 C 
BRANCH  17  18
ATOM     18  C   UNL     1       0.949  13.617  21.006  0.00  0.00    +0.000 C 
BRANCH  18  19
ATOM     19  O   UNL     1       0.789  14.091  22.337  0.00  0.00    +0.000 OA
ATOM     20  H   UNL     1       1.271  13.490  22.930  0.00  0.00    +0.000 HD
ENDBRANCH  18  19
ENDBRANCH  17  18
ENDBRANCH   9  17
TORSDOF 4
ENDMDL
MODEL 3
REMARK VINA RESULT:      -6.0      3.867      7.312
REMARK  Name = 
REMARK  7 active torsions:
REMARK  status: ('A' for Active; 'I' for Inactive)
REMARK    1  A    between atoms: C_1  and  C_2
REMARK    2  A    between atoms: C_2  and  C_3
REMARK    3  A    between atoms: N_9  and  C_10
REMARK    4  A    between atoms: C_11  and  C_12
REMARK    5  A    between atoms: C_12  and  C_13
REMARK    6  A    between atoms: C_13  and  O_14
REMARK    7  A    between atoms: C_18  and  C_19
REMARK                            x       y       z     vdW  Elec       q    Type
REMARK                         _______ _______ _______ _____ _____    ______ ____
ROOT
ATOM      1  C   UNL     1       2.208   6.138  19.974  0.00  0.00    +0.000 A 
ATOM      2  N   UNL     1       1.767   7.200  20.692  0.00  0.00    +0.000 NA
ATOM      3  C   UNL     1       1.590   8.383  20.075  0.00  0.00    +0.000 A 
ATOM      4  N   UNL     1       1.024   9.415  20.764  0.00  0.00    +0.000 N 
ATOM      5  C   UNL     1       0.783   9.322  22.193  0.00  0.00    +0.000 C 
ATOM      6  C   UNL     1      -0.570   9.992  22.501  0.00  0.00    +0.000 C 
ATOM      7  N   UNL     1      -0.627  11.405  22.041  0.00  0.00    +0.000 NA
ATOM      8  C   UNL     1      -1.903  11.990  22.447  0.00  0.00    +0.000 C 
ATOM      9  C   UNL     1      -0.383  11.455  20.558  0.00  0.00    +0.000 C 
ATOM     10  C   UNL     1       0.972  10.758  20.197  0.00  0.00    +0.000 C 
ATOM     11  N   UNL     1       1.869   8.551  18.774  0.00  0.00    +0.000 NA
ATOM     12  C   UNL     1       2.311   7.489  18.086  0.00  0.00    +0.000 A 
ATOM     13  C   UNL     1       2.500   6.238  18.626  0.00  0.00    +0.000 A 
ATOM     14  C   UNL     1       2.966   5.103  17.777  0.00  0.00    +0.000 C 
ENDROOT
BRANCH   1  16
ATOM     15  C   UNL     1       1.101   3.956  20.591  0.00  0.00    +0.000 C 
ATOM     16  C   UNL     1       2.326   4.844  20.739  0.00  0.00    +0.000 C 
ENDBRANCH   1  16
BRANCH   9  17
ATOM     17  C   UNL     1      -0.403  12.898  19.992  0.00  0.00    +0.000 C 
BRANCH  17  18
ATOM     18  C   UNL     1       0.047  13.001  18.531  0.00  0.00    +0.000 C 
BRANCH  18  19
ATOM     19  O   UNL     1      -1.077  12.888  17.667  0.00  0.00    +0.000 OA
ATOM     20  H   UNL     1      -0.760  12.967  16.751  0.00  0.00    +0.000 HD
ENDBRANCH  18  19
ENDBRANCH  17  18
ENDBRANCH   9  17
TORSDOF 4
ENDMDL
MODEL 4
REMARK VINA RESULT:      -5.9      3.318      6.510
REMARK  Name = 
REMARK  7 active torsions:
REMARK  status: ('A' for Active; 'I' for Inactive)
REMARK    1  A    between atoms: C_1  and  C_2
REMARK    2  A    between atoms: C_2  and  C_3
REMARK    3  A    between atoms: N_9  and  C_10
REMARK    4  A    between atoms: C_11  and  C_12
REMARK    5  A    between atoms: C_12  and  C_13
REMARK    6  A    between atoms: C_13  and  O_14
REMARK    7  A    between atoms: C_18  and  C_19
REMARK                            x       y       z     vdW  Elec       q    Type
REMARK                         _______ _______ _______ _____ _____    ______ ____
ROOT
ATOM      1  C   UNL     1       2.632   4.359  19.956  0.00  0.00    +0.000 A 
ATOM      2  N   UNL     1       2.318   5.597  20.413  0.00  0.00    +0.000 NA
ATOM      3  C   UNL     1       2.211   6.613  19.536  0.00  0.00    +0.000 A 
ATOM      4  N   UNL     1       1.767   7.827  19.974  0.00  0.00    +0.000 N 
ATOM      5  C   UNL     1       1.589   8.094  21.390  0.00  0.00    +0.000 C 
ATOM      6  C   UNL     1       0.313   8.941  21.567  0.00  0.00    +0.000 C 
ATOM      7  N   UNL     1       0.353  10.206  20.785  0.00  0.00    +0.000 NA
ATOM      8  C   UNL     1      -0.849  10.985  21.074  0.00  0.00    +0.000 C 
ATOM      9  C   UNL     1       0.527   9.882  19.327  0.00  0.00    +0.000 C 
ATOM     10  C   UNL     1       1.801   8.997  19.105  0.00  0.00    +0.000 C 
ATOM     11  N   UNL     1       2.439   6.444  18.226  0.00  0.00    +0.000 NA
ATOM     12  C   UNL     1       2.756   5.214  17.799  0.00  0.00    +0.000 A 
ATOM     13  C   UNL     1       2.866   4.112  18.616  0.00  0.00    +0.000 A 
ATOM     14  C   UNL     1       3.193   2.772  18.050  0.00  0.00    +0.000 C 
ENDROOT
BRANCH   1  16
ATOM     15  C   UNL     1       1.297   2.786  21.408  0.00  0.00    +0.000 C 
ATOM     16  C   UNL     1       2.678   3.277  21.004  0.00  0.00    +0.000 C 
ENDBRANCH   1  16
BRANCH   9  17
ATOM     17  C   UNL     1       0.602  11.147  18.434  0.00  0.00    +0.000 C 
BRANCH  17  18
ATOM     18  C   UNL     1       1.856  11.997  18.658  0.00  0.00    +0.000 C 
BRANCH  18  19
ATOM     19  O   UNL     1       2.578  12.130  17.441  0.00  0.00    +0.000 OA
ATOM     20  H   UNL     1       2.971  13.019  17.421  0.00  0.00    +0.000 HD
ENDBRANCH  18  19
ENDBRANCH  17  18
ENDBRANCH   9  17
TORSDOF 4
ENDMDL
MODEL 5
REMARK VINA RESULT:      -5.9      3.383      7.301
REMARK  Name = 
REMARK  7 active torsions:
REMARK  status: ('A' for Active; 'I' for Inactive)
REMARK    1  A    between atoms: C_1  and  C_2
REMARK    2  A    between atoms: C_2  and  C_3
REMARK    3  A    between atoms: N_9  and  C_10
REMARK    4  A    between atoms: C_11  and  C_12
REMARK    5  A    between atoms: C_12  and  C_13
REMARK    6  A    between atoms: C_13  and  O_14
REMARK    7  A    between atoms: C_18  and  C_19
REMARK                            x       y       z     vdW  Elec       q    Type
REMARK                         _______ _______ _______ _____ _____    ______ ____
ROOT
ATOM      1  C   UNL     1       3.746   6.122  18.000  0.00  0.00    +0.000 A 
ATOM      2  N   UNL     1       3.026   7.270  18.021  0.00  0.00    +0.000 NA
ATOM      3  C   UNL     1       2.276   7.555  19.102  0.00  0.00    +0.000 A 
ATOM      4  N   UNL     1       1.656   8.768  19.182  0.00  0.00    +0.000 N 
ATOM      5  C   UNL     1       1.635   9.676  18.050  0.00  0.00    +0.000 C 
ATOM      6  C   UNL     1       1.818  11.113  18.577  0.00  0.00    +0.000 C 
ATOM      7  N   UNL     1       0.789  11.489  19.582  0.00  0.00    +0.000 NA
ATOM      8  C   UNL     1       0.981  12.886  19.965  0.00  0.00    +0.000 C 
ATOM      9  C   UNL     1       0.853  10.531  20.740  0.00  0.00    +0.000 C 
ATOM     10  C   UNL     1       0.698   9.053  20.244  0.00  0.00    +0.000 C 
ATOM     11  N   UNL     1       2.194   6.719  20.148  0.00  0.00    +0.000 NA
ATOM     12  C   UNL     1       2.909   5.586  20.100  0.00  0.00    +0.000 A 
ATOM     13  C   UNL     1       3.719   5.222  19.049  0.00  0.00    +0.000 A 
ATOM     14  C   UNL     1       4.505   3.955  19.095  0.00  0.00    +0.000 C 
ENDROOT
BRANCH   1  16
ATOM     15  C   UNL     1       5.910   6.674  16.825  0.00  0.00    +0.000 C 
ATOM     16  C   UNL     1       4.594   5.914  16.770  0.00  0.00    +0.000 C 
ENDBRANCH   1  16
BRANCH   9  17
ATOM     17  C   UNL     1      -0.204  10.835  21.832  0.00  0.00    +0.000 C 
BRANCH  17  18
ATOM     18  C   UNL     1      -0.509   9.649  22.753  0.00  0.00    +0.000 C 
BRANCH  18  19
ATOM     19  O   UNL     1       0.353   9.676  23.883  0.00  0.00    +0.000 OA
ATOM     20  H   UNL     1      -0.072  10.215  24.571  0.00  0.00    +0.000 HD
ENDBRANCH  18  19
ENDBRANCH  17  18
ENDBRANCH   9  17
TORSDOF 4
ENDMDL
MODEL 6
REMARK VINA RESULT:      -5.7      2.957      4.244
REMARK  Name = 
REMARK  7 active torsions:
REMARK  status: ('A' for Active; 'I' for Inactive)
REMARK    1  A    between atoms: C_1  and  C_2
REMARK    2  A    between atoms: C_2  and  C_3
REMARK    3  A    between atoms: N_9  and  C_10
REMARK    4  A    between atoms: C_11  and  C_12
REMARK    5  A    between atoms: C_12  and  C_13
REMARK    6  A    between atoms: C_13  and  O_14
REMARK    7  A    between atoms: C_18  and  C_19
REMARK                            x       y       z     vdW  Elec       q    Type
REMARK                         _______ _______ _______ _____ _____    ______ ____
ROOT
ATOM      1  C   UNL     1       0.966   9.830  19.528  0.00  0.00    +0.000 A 
ATOM      2  N   UNL     1       1.766   8.803  19.148  0.00  0.00    +0.000 NA
ATOM      3  C   UNL     1       1.859   7.716  19.936  0.00  0.00    +0.000 A 
ATOM      4  N   UNL     1       2.558   6.631  19.495  0.00  0.00    +0.000 N 
ATOM      5  C   UNL     1       3.355   6.694  18.282  0.00  0.00    +0.000 C 
ATOM      6  C   UNL     1       3.197   5.359  17.528  0.00  0.00    +0.000 C 
ATOM      7  N   UNL     1       3.577   4.185  18.357  0.00  0.00    +0.000 NA
ATOM      8  C   UNL     1       3.482   2.974  17.545  0.00  0.00    +0.000 C 
ATOM      9  C   UNL     1       2.723   4.152  19.594  0.00  0.00    +0.000 C 
ATOM     10  C   UNL     1       2.833   5.503  20.378  0.00  0.00    +0.000 C 
ATOM     11  N   UNL     1       1.208   7.631  21.106  0.00  0.00    +0.000 NA
ATOM     12  C   UNL     1       0.428   8.661  21.464  0.00  0.00    +0.000 A 
ATOM     13  C   UNL     1       0.254   9.801  20.714  0.00  0.00    +0.000 A 
ATOM     14  C   UNL     1      -0.658  10.887  21.176  0.00  0.00    +0.000 C 
ENDROOT
BRANCH   1  16
ATOM     15  C   UNL     1       2.252  11.538  18.189  0.00  0.00    +0.000 C 
ATOM     16  C   UNL     1       0.886  10.980  18.558  0.00  0.00    +0.000 C 
ENDBRANCH   1  16
BRANCH   9  17
ATOM     17  C   UNL     1       3.066   2.967  20.533  0.00  0.00    +0.000 C 
BRANCH  17  18
ATOM     18  C   UNL     1       2.107   2.811  21.718  0.00  0.00    +0.000 C 
BRANCH  18  19
ATOM     19  O   UNL     1       0.764   2.770  21.254  0.00  0.00    +0.000 OA
ATOM     20  H   UNL     1       0.783   2.637  20.291  0.00  0.00    +0.000 HD
ENDBRANCH  18  19
ENDBRANCH  17  18
ENDBRANCH   9  17
TORSDOF 4
ENDMDL
MODEL 7
REMARK VINA RESULT:      -5.7      1.804      2.163
REMARK  Name = 
REMARK  7 active torsions:
REMARK  status: ('A' for Active; 'I' for Inactive)
REMARK    1  A    between atoms: C_1  and  C_2
REMARK    2  A    between atoms: C_2  and  C_3
REMARK    3  A    between atoms: N_9  and  C_10
REMARK    4  A    between atoms: C_11  and  C_12
REMARK    5  A    between atoms: C_12  and  C_13
REMARK    6  A    between atoms: C_13  and  O_14
REMARK    7  A    between atoms: C_18  and  C_19
REMARK                            x       y       z     vdW  Elec       q    Type
REMARK                         _______ _______ _______ _____ _____    ______ ____
ROOT
ATOM      1  C   UNL     1       1.230   9.483  20.042  0.00  0.00    +0.000 A 
ATOM      2  N   UNL     1       1.400   8.140  20.118  0.00  0.00    +0.000 NA
ATOM      3  C   UNL     1       1.921   7.483  19.065  0.00  0.00    +0.000 A 
ATOM      4  N   UNL     1       2.215   6.156  19.185  0.00  0.00    +0.000 N 
ATOM      5  C   UNL     1       1.807   5.401  20.356  0.00  0.00    +0.000 C 
ATOM      6  C   UNL     1       2.943   4.426  20.725  0.00  0.00    +0.000 C 
ATOM      7  N   UNL     1       3.306   3.520  19.604  0.00  0.00    +0.000 NA
ATOM      8  C   UNL     1       4.324   2.576  20.062  0.00  0.00    +0.000 C 
ATOM      9  C   UNL     1       3.732   4.341  18.419  0.00  0.00    +0.000 C 
ATOM     10  C   UNL     1       2.614   5.366  18.026  0.00  0.00    +0.000 C 
ATOM     11  N   UNL     1       2.247   8.115  17.927  0.00  0.00    +0.000 NA
ATOM     12  C   UNL     1       2.062   9.441  17.873  0.00  0.00    +0.000 A 
ATOM     13  C   UNL     1       1.558  10.198  18.905  0.00  0.00    +0.000 A 
ATOM     14  C   UNL     1       1.416  11.676  18.769  0.00  0.00    +0.000 C 
ENDROOT
BRANCH   1  16
ATOM     15  C   UNL     1       0.555   9.168  22.453  0.00  0.00    +0.000 C 
ATOM     16  C   UNL     1       0.689  10.136  21.288  0.00  0.00    +0.000 C 
ENDBRANCH   1  16
BRANCH   9  17
ATOM     17  C   UNL     1       4.110   3.475  17.190  0.00  0.00    +0.000 C 
BRANCH  17  18
ATOM     18  C   UNL     1       5.031   4.181  16.189  0.00  0.00    +0.000 C 
BRANCH  18  19
ATOM     19  O   UNL     1       6.072   3.301  15.783  0.00  0.00    +0.000 OA
ATOM     20  H   UNL     1       5.698   2.665  15.152  0.00  0.00    +0.000 HD
ENDBRANCH  18  19
ENDBRANCH  17  18
ENDBRANCH   9  17
TORSDOF 4
ENDMDL
MODEL 8
REMARK VINA RESULT:      -5.7      3.230      4.554
REMARK  Name = 
REMARK  7 active torsions:
REMARK  status: ('A' for Active; 'I' for Inactive)
REMARK    1  A    between atoms: C_1  and  C_2
REMARK    2  A    between atoms: C_2  and  C_3
REMARK    3  A    between atoms: N_9  and  C_10
REMARK    4  A    between atoms: C_11  and  C_12
REMARK    5  A    between atoms: C_12  and  C_13
REMARK    6  A    between atoms: C_13  and  O_14
REMARK    7  A    between atoms: C_18  and  C_19
REMARK                            x       y       z     vdW  Elec       q    Type
REMARK                         _______ _______ _______ _____ _____    ______ ____
ROOT
ATOM      1  C   UNL     1       0.757  10.340  20.801  0.00  0.00    +0.000 A 
ATOM      2  N   UNL     1       1.397   9.250  20.311  0.00  0.00    +0.000 NA
ATOM      3  C   UNL     1       1.139   8.041  20.844  0.00  0.00    +0.000 A 
ATOM      4  N   UNL     1       1.680   6.929  20.268  0.00  0.00    +0.000 N 
ATOM      5  C   UNL     1       2.672   7.038  19.213  0.00  0.00    +0.000 C 
ATOM      6  C   UNL     1       2.392   5.940  18.169  0.00  0.00    +0.000 C 
ATOM      7  N   UNL     1       2.388   4.575  18.760  0.00  0.00    +0.000 NA
ATOM      8  C   UNL     1       2.202   3.592  17.694  0.00  0.00    +0.000 C 
ATOM      9  C   UNL     1       1.341   4.504  19.837  0.00  0.00    +0.000 C 
ATOM     10  C   UNL     1       1.573   5.623  20.908  0.00  0.00    +0.000 C 
ATOM     11  N   UNL     1       0.290   7.887  21.871  0.00  0.00    +0.000 NA
ATOM     12  C   UNL     1      -0.325   8.980  22.344  0.00  0.00    +0.000 A 
ATOM     13  C   UNL     1      -0.141  10.251  21.849  0.00  0.00    +0.000 A 
ATOM     14  C   UNL     1      -0.892  11.407  22.416  0.00  0.00    +0.000 C 
ENDROOT
BRANCH   1  16
ATOM     15  C   UNL     1       0.251  11.850  18.845  0.00  0.00    +0.000 C 
ATOM     16  C   UNL     1       1.073  11.641  20.107  0.00  0.00    +0.000 C 
ENDBRANCH   1  16
BRANCH   9  17
ATOM     17  C   UNL     1       1.279   3.117  20.527  0.00  0.00    +0.000 C 
BRANCH  17  18
ATOM     18  C   UNL     1       2.436   2.851  21.497  0.00  0.00    +0.000 C 
BRANCH  18  19
ATOM     19  O   UNL     1       3.614   2.525  20.771  0.00  0.00    +0.000 OA
ATOM     20  H   UNL     1       3.349   2.256  19.875  0.00  0.00    +0.000 HD
ENDBRANCH  18  19
ENDBRANCH  17  18
ENDBRANCH   9  17
TORSDOF 4
ENDMDL
MODEL 9
REMARK VINA RESULT:      -5.7      3.171      7.247
REMARK  Name = 
REMARK  7 active torsions:
REMARK  status: ('A' for Active; 'I' for Inactive)
REMARK    1  A    between atoms: C_1  and  C_2
REMARK    2  A    between atoms: C_2  and  C_3
REMARK    3  A    between atoms: N_9  and  C_10
REMARK    4  A    between atoms: C_11  and  C_12
REMARK    5  A    between atoms: C_12  and  C_13
REMARK    6  A    between atoms: C_13  and  O_14
REMARK    7  A    between atoms: C_18  and  C_19
REMARK                            x       y       z     vdW  Elec       q    Type
REMARK                         _______ _______ _______ _____ _____    ______ ____
ROOT
ATOM      1  C   UNL     1       5.435   5.966  17.028  0.00  0.00    +0.000 A 
ATOM      2  N   UNL     1       4.284   6.658  17.219  0.00  0.00    +0.000 NA
ATOM      3  C   UNL     1       3.692   6.627  18.427  0.00  0.00    +0.000 A 
ATOM      4  N   UNL     1       2.610   7.426  18.659  0.00  0.00    +0.000 N 
ATOM      5  C   UNL     1       1.975   8.161  17.580  0.00  0.00    +0.000 C 
ATOM      6  C   UNL     1       1.568   9.549  18.114  0.00  0.00    +0.000 C 
ATOM      7  N   UNL     1       0.677   9.467  19.302  0.00  0.00    +0.000 NA
ATOM      8  C   UNL     1       0.271  10.817  19.689  0.00  0.00    +0.000 C 
ATOM      9  C   UNL     1       1.377   8.709  20.395  0.00  0.00    +0.000 C 
ATOM     10  C   UNL     1       1.833   7.299  19.887  0.00  0.00    +0.000 C 
ATOM     11  N   UNL     1       4.190   5.904  19.441  0.00  0.00    +0.000 NA
ATOM     12  C   UNL     1       5.323   5.222  19.227  0.00  0.00    +0.000 A 
ATOM     13  C   UNL     1       6.010   5.212  18.034  0.00  0.00    +0.000 A 
ATOM     14  C   UNL     1       7.283   4.449  17.893  0.00  0.00    +0.000 C 
ENDROOT
BRANCH   1  16
ATOM     15  C   UNL     1       5.684   4.956  14.729  0.00  0.00    +0.000 C 
ATOM     16  C   UNL     1       6.051   6.103  15.658  0.00  0.00    +0.000 C 
ENDBRANCH   1  16
BRANCH   9  17
ATOM     17  C   UNL     1       0.511   8.555  21.672  0.00  0.00    +0.000 C 
BRANCH  17  18
ATOM     18  C   UNL     1       1.027   9.350  22.876  0.00  0.00    +0.000 C 
BRANCH  18  19
ATOM     19  O   UNL     1      -0.017   9.526  23.825  0.00  0.00    +0.000 OA
ATOM     20  H   UNL     1       0.217  10.282  24.391  0.00  0.00    +0.000 HD
ENDBRANCH  18  19
ENDBRANCH  17  18
ENDBRANCH   9  17
TORSDOF 4
ENDMDL
