MODEL 1
REMARK VINA RESULT:      -6.7      0.000      0.000
REMARK  Name = 
REMARK  7 active torsions:
REMARK  status: ('A' for Active; 'I' for Inactive)
REMARK    1  A    between atoms: C_1  and  O_2
REMARK    2  A    between atoms: O_2  and  C_3
REMARK    3  A    between atoms: C_7  and  C_8
REMARK    4  A    between atoms: C_8  and  C_9
REMARK    5  A    between atoms: C_8  and  C_10
REMARK    6  A    between atoms: C_10  and  C_11
REMARK    7  A    between atoms: C_11  and  N_12
REMARK                            x       y       z     vdW  Elec       q    Type
REMARK                         _______ _______ _______ _____ _____    ______ ____
ROOT
ATOM      1  C   UNL     1       5.195   5.793  16.229  0.00  0.00    +0.000 C 
ATOM      2  C   UNL     1       5.785   5.046  15.031  0.00  0.00    +0.000 C 
ENDROOT
BRANCH   1   7
ATOM      3  C   UNL     1       7.830   8.074  17.860  0.00  0.00    +0.000 A 
ATOM      4  C   UNL     1       8.365   7.215  18.819  0.00  0.00    +0.000 A 
ATOM      5  C   UNL     1       7.890   5.910  18.944  0.00  0.00    +0.000 A 
ATOM      6  C   UNL     1       6.861   5.457  18.116  0.00  0.00    +0.000 A 
ATOM      7  C   UNL     1       6.298   6.307  17.153  0.00  0.00    +0.000 A 
ATOM      8  C   UNL     1       6.793   7.619  17.039  0.00  0.00    +0.000 A 
BRANCH   3  10
ATOM      9  C   UNL     1       8.998   9.786  19.019  0.00  0.00    +0.000 C 
ATOM     10  O   UNL     1       8.398   9.317  17.818  0.00  0.00    +0.000 OA
ENDBRANCH   3  10
ENDBRANCH   1   7
BRANCH   1  11
ATOM     11  C   UNL     1       4.192   4.950  17.040  0.00  0.00    +0.000 C 
BRANCH  11  12
ATOM     12  C   UNL     1       3.167   5.769  17.844  0.00  0.00    +0.000 C 
BRANCH  12  13
ATOM     13  N   UNL     1       2.119   4.926  18.451  0.00  0.00    +0.000 NA
ATOM     14  C   UNL     1       2.203   3.524  18.017  0.00  0.00    +0.000 C 
ATOM     15  C   UNL     1       1.070   2.688  18.609  0.00  0.00    +0.000 C 
ATOM     16  C   UNL     1       1.062   2.767  20.126  0.00  0.00    +0.000 C 
ATOM     17  C   UNL     1       1.047   4.222  20.576  0.00  0.00    +0.000 C 
ATOM     18  C   UNL     1       2.175   5.020  19.920  0.00  0.00    +0.000 C 
ENDBRANCH  12  13
ENDBRANCH  11  12
ENDBRANCH   1  11
TORSDOF 5
ENDMDL
MODEL 2
REMARK VINA RESULT:      -6.7      1.304      1.827
REMARK  Name = 
REMARK  7 active torsions:
REMARK  status: ('A' for Active; 'I' for Inactive)
REMARK    1  A    between atoms: C_1  and  O_2
REMARK    2  A    between atoms: O_2  and  C_3
REMARK    3  A    between atoms: C_7  and  C_8
REMARK    4  A    between atoms: C_8  and  C_9
REMARK    5  A    between atoms: C_8  and  C_10
REMARK    6  A    between atoms: C_10  and  C_11
REMARK    7  A    between atoms: C_11  and  N_12
REMARK                            x       y       z     vdW  Elec       q    Type
REMARK                         _______ _______ _______ _____ _____    ______ ____
ROOT
ATOM      1  C   UNL     1       4.006   5.628  17.941  0.00  0.00    +0.000 C 
ATOM      2  C   UNL     1       3.200   6.830  17.446  0.00  0.00    +0.000 C 
ENDROOT
BRANCH   1   7
ATOM      3  C   UNL     1       7.404   7.424  17.768  0.00  0.00    +0.000 A 
ATOM      4  C   UNL     1       8.144   6.677  18.683  0.00  0.00    +0.000 A 
ATOM      5  C   UNL     1       7.563   5.602  19.354  0.00  0.00    +0.000 A 
ATOM      6  C   UNL     1       6.226   5.272  19.121  0.00  0.00    +0.000 A 
ATOM      7  C   UNL     1       5.458   6.016  18.214  0.00  0.00    +0.000 A 
ATOM      8  C   UNL     1       6.063   7.095  17.545  0.00  0.00    +0.000 A 
BRANCH   3  10
ATOM      9  C   UNL     1       8.416   9.564  17.958  0.00  0.00    +0.000 C 
ATOM     10  O   UNL     1       8.094   8.435  17.156  0.00  0.00    +0.000 OA
ENDBRANCH   3  10
ENDBRANCH   1   7
BRANCH   1  11
ATOM     11  C   UNL     1       3.965   4.426  16.977  0.00  0.00    +0.000 C 
BRANCH  11  12
ATOM     12  C   UNL     1       3.253   3.181  17.532  0.00  0.00    +0.000 C 
BRANCH  12  13
ATOM     13  N   UNL     1       2.717   3.392  18.890  0.00  0.00    +0.000 NA
ATOM     14  C   UNL     1       1.256   3.231  18.950  0.00  0.00    +0.000 C 
ATOM     15  C   UNL     1       0.721   3.517  20.351  0.00  0.00    +0.000 C 
ATOM     16  C   UNL     1       1.388   2.629  21.388  0.00  0.00    +0.000 C 
ATOM     17  C   UNL     1       2.903   2.741  21.278  0.00  0.00    +0.000 C 
ATOM     18  C   UNL     1       3.379   2.488  19.847  0.00  0.00    +0.000 C 
ENDBRANCH  12  13
ENDBRANCH  11  12
ENDBRANCH   1  11
TORSDOF 5
ENDMDL
MODEL 3
REMARK VINA RESULT:      -6.7      1.005      1.694
REMARK  Name = 
REMARK  7 active torsions:
REMARK  status: ('A' for Active; 'I' for Inactive)
REMARK    1  A    between atoms: C_1  and  O_2
REMARK    2  A    between atoms: O_2  and  C_3
REMARK    3  A    between atoms: C_7  and  C_8
REMARK    4  A    between atoms: C_8  and  C_9
REMARK    5  A    between atoms: C_8  and  C_10
REMARK    6  A    between atoms: C_10  and  C_11
REMARK    7  A    between atoms: C_11  and  N_12
REMARK                            x       y       z     vdW  Elec       q    Type
REMARK                         _______ _______ _______ _____ _____    ______ ____
ROOT
ATOM      1  C   UNL     1       5.076   4.809  16.089  0.00  0.00    +0.000 C 
ATOM      2  C   UNL     1       5.683   4.485  14.722  0.00  0.00    +0.000 C 
ENDROOT
BRANCH   1   7
ATOM      3  C   UNL     1       7.419   7.517  17.496  0.00  0.00    +0.000 A 
ATOM      4  C   UNL     1       7.976   6.845  18.582  0.00  0.00    +0.000 A 
ATOM      5  C   UNL     1       7.610   5.531  18.866  0.00  0.00    +0.000 A 
ATOM      6  C   UNL     1       6.667   4.880  18.067  0.00  0.00    +0.000 A 
ATOM      7  C   UNL     1       6.082   5.539  16.977  0.00  0.00    +0.000 A 
ATOM      8  C   UNL     1       6.469   6.865  16.704  0.00  0.00    +0.000 A 
BRANCH   3  10
ATOM      9  C   UNL     1       8.590   9.381  18.389  0.00  0.00    +0.000 C 
ATOM     10  O   UNL     1       7.880   8.792  17.307  0.00  0.00    +0.000 OA
ENDBRANCH   3  10
ENDBRANCH   1   7
BRANCH   1  11
ATOM     11  C   UNL     1       4.539   3.569  16.829  0.00  0.00    +0.000 C 
BRANCH  11  12
ATOM     12  C   UNL     1       3.089   3.694  17.325  0.00  0.00    +0.000 C 
BRANCH  12  13
ATOM     13  N   UNL     1       2.982   4.469  18.576  0.00  0.00    +0.000 NA
ATOM     14  C   UNL     1       2.528   5.849  18.346  0.00  0.00    +0.000 C 
ATOM     15  C   UNL     1       2.487   6.647  19.648  0.00  0.00    +0.000 C 
ATOM     16  C   UNL     1       1.603   5.970  20.681  0.00  0.00    +0.000 C 
ATOM     17  C   UNL     1       2.028   4.520  20.866  0.00  0.00    +0.000 C 
ATOM     18  C   UNL     1       2.093   3.782  19.529  0.00  0.00    +0.000 C 
ENDBRANCH  12  13
ENDBRANCH  11  12
ENDBRANCH   1  11
TORSDOF 5
ENDMDL
MODEL 4
REMARK VINA RESULT:      -6.6      3.055      5.121
REMARK  Name = 
REMARK  7 active torsions:
REMARK  status: ('A' for Active; 'I' for Inactive)
REMARK    1  A    between atoms: C_1  and  O_2
REMARK    2  A    between atoms: O_2  and  C_3
REMARK    3  A    between atoms: C_7  and  C_8
REMARK    4  A    between atoms: C_8  and  C_9
REMARK    5  A    between atoms: C_8  and  C_10
REMARK    6  A    between atoms: C_10  and  C_11
REMARK    7  A    between atoms: C_11  and  N_12
REMARK                            x       y       z     vdW  Elec       q    Type
REMARK                         _______ _______ _______ _____ _____    ______ ____
ROOT
ATOM      1  C   UNL     1       6.436   4.539  16.166  0.00  0.00    +0.000 C 
ATOM      2  C   UNL     1       6.964   5.872  16.701  0.00  0.00    +0.000 C 
ENDROOT
BRANCH   1   7
ATOM      3  C   UNL     1       6.028   3.453  12.498  0.00  0.00    +0.000 A 
ATOM      4  C   UNL     1       6.995   4.245  11.880  0.00  0.00    +0.000 A 
ATOM      5  C   UNL     1       7.778   5.121  12.629  0.00  0.00    +0.000 A 
ATOM      6  C   UNL     1       7.589   5.223  14.009  0.00  0.00    +0.000 A 
ATOM      7  C   UNL     1       6.614   4.447  14.652  0.00  0.00    +0.000 A 
ATOM      8  C   UNL     1       5.836   3.565  13.879  0.00  0.00    +0.000 A 
BRANCH   3  10
ATOM      9  C   UNL     1       4.082   3.071  11.192  0.00  0.00    +0.000 C 
ATOM     10  O   UNL     1       5.345   2.615  11.659  0.00  0.00    +0.000 OA
ENDBRANCH   3  10
ENDBRANCH   1   7
BRANCH   1  11
ATOM     11  C   UNL     1       4.962   4.275  16.530  0.00  0.00    +0.000 C 
BRANCH  11  12
ATOM     12  C   UNL     1       4.505   4.903  17.858  0.00  0.00    +0.000 C 
BRANCH  12  13
ATOM     13  N   UNL     1       3.505   4.078  18.561  0.00  0.00    +0.000 NA
ATOM     14  C   UNL     1       2.216   4.770  18.720  0.00  0.00    +0.000 C 
ATOM     15  C   UNL     1       1.220   3.920  19.506  0.00  0.00    +0.000 C 
ATOM     16  C   UNL     1       1.011   2.567  18.847  0.00  0.00    +0.000 C 
ATOM     17  C   UNL     1       2.351   1.882  18.617  0.00  0.00    +0.000 C 
ATOM     18  C   UNL     1       3.322   2.792  17.865  0.00  0.00    +0.000 C 
ENDBRANCH  12  13
ENDBRANCH  11  12
ENDBRANCH   1  11
TORSDOF 5
ENDMDL
MODEL 5
REMARK VINA RESULT:      -6.6      3.178      6.050
REMARK  Name = 
REMARK  7 active torsions:
REMARK  status: ('A' for Active; 'I' for Inactive)
REMARK    1  A    between atoms: C_1  and  O_2
REMARK    2  A    between atoms: O_2  and  C_3
REMARK    3  A    between atoms: C_7  and  C_8
REMARK    4  A    between atoms: C_8  and  C_9
REMARK    5  A    between atoms: C_8  and  C_10
REMARK    6  A    between atoms: C_10  and  C_11
REMARK    7  A    between atoms: C_11  and  N_12
REMARK                            x       y       z     vdW  Elec       q    Type
REMARK                         _______ _______ _______ _____ _____    ______ ____
ROOT
ATOM      1  C   UNL     1       2.919   5.481  19.887  0.00  0.00    +0.000 C 
ATOM      2  C   UNL     1       1.849   4.758  20.708  0.00  0.00    +0.000 C 
ENDROOT
BRANCH   1   7
ATOM      3  C   UNL     1       1.249   8.946  19.930  0.00  0.00    +0.000 A 
ATOM      4  C   UNL     1       1.514   9.383  18.634  0.00  0.00    +0.000 A 
ATOM      5  C   UNL     1       2.222   8.575  17.745  0.00  0.00    +0.000 A 
ATOM      6  C   UNL     1       2.683   7.322  18.155  0.00  0.00    +0.000 A 
ATOM      7  C   UNL     1       2.440   6.866  19.458  0.00  0.00    +0.000 A 
ATOM      8  C   UNL     1       1.721   7.695  20.339  0.00  0.00    +0.000 A 
BRANCH   3  10
ATOM      9  C   UNL     1       0.587   9.635  22.105  0.00  0.00    +0.000 C 
ATOM     10  O   UNL     1       0.523   9.818  20.696  0.00  0.00    +0.000 OA
ENDBRANCH   3  10
ENDBRANCH   1   7
BRANCH   1  11
ATOM     11  C   UNL     1       3.380   4.687  18.649  0.00  0.00    +0.000 C 
BRANCH  11  12
ATOM     12  C   UNL     1       4.666   3.869  18.851  0.00  0.00    +0.000 C 
BRANCH  12  13
ATOM     13  N   UNL     1       5.858   4.540  18.298  0.00  0.00    +0.000 NA
ATOM     14  C   UNL     1       5.568   5.263  17.050  0.00  0.00    +0.000 C 
ATOM     15  C   UNL     1       6.829   5.895  16.465  0.00  0.00    +0.000 C 
ATOM     16  C   UNL     1       7.495   6.824  17.466  0.00  0.00    +0.000 C 
ATOM     17  C   UNL     1       7.730   6.096  18.783  0.00  0.00    +0.000 C 
ATOM     18  C   UNL     1       6.445   5.448  19.300  0.00  0.00    +0.000 C 
ENDBRANCH  12  13
ENDBRANCH  11  12
ENDBRANCH   1  11
TORSDOF 5
ENDMDL
MODEL 6
REMARK VINA RESULT:      -6.5      3.187      4.966
REMARK  Name = 
REMARK  7 active torsions:
REMARK  status: ('A' for Active; 'I' for Inactive)
REMARK    1  A    between atoms: C_1  and  O_2
REMARK    2  A    between atoms: O_2  and  C_3
REMARK    3  A    between atoms: C_7  and  C_8
REMARK    4  A    between atoms: C_8  and  C_9
REMARK    5  A    between atoms: C_8  and  C_10
REMARK    6  A    between atoms: C_10  and  C_11
REMARK    7  A    between atoms: C_11  and  N_12
REMARK                            x       y       z     vdW  Elec       q    Type
REMARK                         _______ _______ _______ _____ _____    ______ ____
ROOT
ATOM      1  C   UNL     1       3.704   6.249  17.836  0.00  0.00    +0.000 C 
ATOM      2  C   UNL     1       4.671   6.835  16.806  0.00  0.00    +0.000 C 
ENDROOT
BRANCH   1   7
ATOM      3  C   UNL     1       1.476   8.226  20.272  0.00  0.00    +0.000 A 
ATOM      4  C   UNL     1       1.106   9.306  19.472  0.00  0.00    +0.000 A 
ATOM      5  C   UNL     1       1.562   9.405  18.159  0.00  0.00    +0.000 A 
ATOM      6  C   UNL     1       2.408   8.424  17.637  0.00  0.00    +0.000 A 
ATOM      7  C   UNL     1       2.805   7.335  18.425  0.00  0.00    +0.000 A 
ATOM      8  C   UNL     1       2.331   7.251  19.747  0.00  0.00    +0.000 A 
BRANCH   3  10
ATOM      9  C   UNL     1      -0.147   9.116  21.760  0.00  0.00    +0.000 C 
ATOM     10  O   UNL     1       0.942   8.230  21.531  0.00  0.00    +0.000 OA
ENDBRANCH   3  10
ENDBRANCH   1   7
BRANCH   1  11
ATOM     11  C   UNL     1       4.412   5.490  18.976  0.00  0.00    +0.000 C 
BRANCH  11  12
ATOM     12  C   UNL     1       4.505   3.968  18.774  0.00  0.00    +0.000 C 
BRANCH  12  13
ATOM     13  N   UNL     1       3.325   3.253  19.296  0.00  0.00    +0.000 NA
ATOM     14  C   UNL     1       2.833   3.827  20.558  0.00  0.00    +0.000 C 
ATOM     15  C   UNL     1       1.652   3.030  21.109  0.00  0.00    +0.000 C 
ATOM     16  C   UNL     1       0.523   2.947  20.095  0.00  0.00    +0.000 C 
ATOM     17  C   UNL     1       1.048   2.420  18.766  0.00  0.00    +0.000 C 
ATOM     18  C   UNL     1       2.254   3.227  18.284  0.00  0.00    +0.000 C 
ENDBRANCH  12  13
ENDBRANCH  11  12
ENDBRANCH   1  11
TORSDOF 5
ENDMDL
MODEL 7
REMARK VINA RESULT:      -6.5      2.771      4.155
REMARK  Name = 
REMARK  7 active torsions:
REMARK  status: ('A' for Active; 'I' for Inactive)
REMARK    1  A    between atoms: C_1  and  O_2
REMARK    2  A    between atoms: O_2  and  C_3
REMARK    3  A    between atoms: C_7  and  C_8
REMARK    4  A    between atoms: C_8  and  C_9
REMARK    5  A    between atoms: C_8  and  C_10
REMARK    6  A    between atoms: C_10  and  C_11
REMARK    7  A    between atoms: C_11  and  N_12
REMARK                            x       y       z     vdW  Elec       q    Type
REMARK                         _______ _______ _______ _____ _____    ______ ____
ROOT
ATOM      1  C   UNL     1       4.866   5.124  18.026  0.00  0.00    +0.000 C 
ATOM      2  C   UNL     1       5.867   5.267  19.174  0.00  0.00    +0.000 C 
ENDROOT
BRANCH   1   7
ATOM      3  C   UNL     1       5.590   4.289  14.340  0.00  0.00    +0.000 A 
ATOM      4  C   UNL     1       6.935   4.643  14.249  0.00  0.00    +0.000 A 
ATOM      5  C   UNL     1       7.612   5.144  15.360  0.00  0.00    +0.000 A 
ATOM      6  C   UNL     1       6.940   5.309  16.573  0.00  0.00    +0.000 A 
ATOM      7  C   UNL     1       5.584   4.972  16.686  0.00  0.00    +0.000 A 
ATOM      8  C   UNL     1       4.919   4.464  15.555  0.00  0.00    +0.000 A 
BRANCH   3  10
ATOM      9  C   UNL     1       5.955   3.247  12.237  0.00  0.00    +0.000 C 
ATOM     10  O   UNL     1       5.047   3.784  13.191  0.00  0.00    +0.000 OA
ENDBRANCH   3  10
ENDBRANCH   1   7
BRANCH   1  11
ATOM     11  C   UNL     1       3.860   6.290  17.943  0.00  0.00    +0.000 C 
BRANCH  11  12
ATOM     12  C   UNL     1       2.435   5.943  18.404  0.00  0.00    +0.000 C 
BRANCH  12  13
ATOM     13  N   UNL     1       2.390   4.731  19.245  0.00  0.00    +0.000 NA
ATOM     14  C   UNL     1       2.177   5.041  20.667  0.00  0.00    +0.000 C 
ATOM     15  C   UNL     1       2.197   3.775  21.522  0.00  0.00    +0.000 C 
ATOM     16  C   UNL     1       1.163   2.770  21.044  0.00  0.00    +0.000 C 
ATOM     17  C   UNL     1       1.339   2.504  19.555  0.00  0.00    +0.000 C 
ATOM     18  C   UNL     1       1.353   3.806  18.753  0.00  0.00    +0.000 C 
ENDBRANCH  12  13
ENDBRANCH  11  12
ENDBRANCH   1  11
TORSDOF 5
ENDMDL
MODEL 8
REMARK VINA RESULT:      -6.5      2.830      4.367
REMARK  Name = 
REMARK  7 active torsions:
REMARK  status: ('A' for Active; 'I' for Inactive)
REMARK    1  A    between atoms: C_1  and  O_2
REMARK    2  A    between atoms: O_2  and  C_3
REMARK    3  A    between atoms: C_7  and  C_8
REMARK    4  A    between atoms: C_8  and  C_9
REMARK    5  A    between atoms: C_8  and  C_10
REMARK    6  A    between atoms: C_10  and  C_11
REMARK    7  A    between atoms: C_11  and  N_12
REMARK                            x       y       z     vdW  Elec       q    Type
REMARK                         _______ _______ _______ _____ _____    ______ ____
ROOT
ATOM      1  C   UNL     1       4.263   5.816  17.525  0.00  0.00    +0.000 C 
ATOM      2  C   UNL     1       5.522   5.574  18.360  0.00  0.00    +0.000 C 
ENDROOT
BRANCH   1   7
ATOM      3  C   UNL     1       1.976   8.792  18.373  0.00  0.00    +0.000 A 
ATOM      4  C   UNL     1       1.535   8.431  19.645  0.00  0.00    +0.000 A 
ATOM      5  C   UNL     1       1.966   7.243  20.234  0.00  0.00    +0.000 A 
ATOM      6  C   UNL     1       2.837   6.397  19.544  0.00  0.00    +0.000 A 
ATOM      7  C   UNL     1       3.285   6.731  18.259  0.00  0.00    +0.000 A 
ATOM      8  C   UNL     1       2.841   7.936  17.683  0.00  0.00    +0.000 A 
BRANCH   3  10
ATOM      9  C   UNL     1       0.428  10.572  18.642  0.00  0.00    +0.000 C 
ATOM     10  O   UNL     1       1.504   9.992  17.916  0.00  0.00    +0.000 OA
ENDBRANCH   3  10
ENDBRANCH   1   7
BRANCH   1  11
ATOM     11  C   UNL     1       3.544   4.515  17.114  0.00  0.00    +0.000 C 
BRANCH  11  12
ATOM     12  C   UNL     1       4.049   3.249  17.827  0.00  0.00    +0.000 C 
BRANCH  12  13
ATOM     13  N   UNL     1       3.113   2.770  18.862  0.00  0.00    +0.000 NA
ATOM     14  C   UNL     1       3.534   3.149  20.219  0.00  0.00    +0.000 C 
ATOM     15  C   UNL     1       2.584   2.587  21.275  0.00  0.00    +0.000 C 
ATOM     16  C   UNL     1       1.155   3.038  21.025  0.00  0.00    +0.000 C 
ATOM     17  C   UNL     1       0.743   2.710  19.596  0.00  0.00    +0.000 C 
ATOM     18  C   UNL     1       1.750   3.259  18.585  0.00  0.00    +0.000 C 
ENDBRANCH  12  13
ENDBRANCH  11  12
ENDBRANCH   1  11
TORSDOF 5
ENDMDL
MODEL 9
REMARK VINA RESULT:      -6.5      2.200      3.645
REMARK  Name = 
REMARK  7 active torsions:
REMARK  status: ('A' for Active; 'I' for Inactive)
REMARK    1  A    between atoms: C_1  and  O_2
REMARK    2  A    between atoms: O_2  and  C_3
REMARK    3  A    between atoms: C_7  and  C_8
REMARK    4  A    between atoms: C_8  and  C_9
REMARK    5  A    between atoms: C_8  and  C_10
REMARK    6  A    between atoms: C_10  and  C_11
REMARK    7  A    between atoms: C_11  and  N_12
REMARK                            x       y       z     vdW  Elec       q    Type
REMARK                         _______ _______ _______ _____ _____    ______ ____
ROOT
ATOM      1  C   UNL     1       5.279   5.315  18.202  0.00  0.00    +0.000 C 
ATOM      2  C   UNL     1       6.514   5.498  19.086  0.00  0.00    +0.000 C 
ENDROOT
BRANCH   1   7
ATOM      3  C   UNL     1       7.128   5.108  14.835  0.00  0.00    +0.000 A 
ATOM      4  C   UNL     1       6.349   4.168  14.163  0.00  0.00    +0.000 A 
ATOM      5  C   UNL     1       5.235   3.602  14.779  0.00  0.00    +0.000 A 
ATOM      6  C   UNL     1       4.898   3.965  16.085  0.00  0.00    +0.000 A 
ATOM      7  C   UNL     1       5.673   4.899  16.786  0.00  0.00    +0.000 A 
ATOM      8  C   UNL     1       6.792   5.462  16.145  0.00  0.00    +0.000 A 
BRANCH   3  10
ATOM      9  C   UNL     1       8.096   5.488  12.699  0.00  0.00    +0.000 C 
ATOM     10  O   UNL     1       8.178   5.610  14.113  0.00  0.00    +0.000 OA
ENDBRANCH   3  10
ENDBRANCH   1   7
BRANCH   1  11
ATOM     11  C   UNL     1       4.381   6.567  18.141  0.00  0.00    +0.000 C 
BRANCH  11  12
ATOM     12  C   UNL     1       2.871   6.277  18.168  0.00  0.00    +0.000 C 
BRANCH  12  13
ATOM     13  N   UNL     1       2.549   5.010  18.853  0.00  0.00    +0.000 NA
ATOM     14  C   UNL     1       2.013   5.223  20.206  0.00  0.00    +0.000 C 
ATOM     15  C   UNL     1       1.747   3.897  20.916  0.00  0.00    +0.000 C 
ATOM     16  C   UNL     1       0.804   3.020  20.110  0.00  0.00    +0.000 C 
ATOM     17  C   UNL     1       1.323   2.859  18.687  0.00  0.00    +0.000 C 
ATOM     18  C   UNL     1       1.611   4.214  18.041  0.00  0.00    +0.000 C 
ENDBRANCH  12  13
ENDBRANCH  11  12
ENDBRANCH   1  11
TORSDOF 5
ENDMDL
