MODEL 1
REMARK VINA RESULT:      -7.1      0.000      0.000
REMARK  Name = 
REMARK  4 active torsions:
REMARK  status: ('A' for Active; 'I' for Inactive)
REMARK    1  A    between atoms: N_2  and  C_4
REMARK    2  A    between atoms: C_7  and  N_8
REMARK    3  A    between atoms: C_12  and  S_13
REMARK    4  A    between atoms: N_14  and  C_15
REMARK                            x       y       z     vdW  Elec       q    Type
REMARK                         _______ _______ _______ _____ _____    ______ ____
ROOT
ATOM      1  N   UNL     1       1.584   8.495  19.974  0.00  0.00    +0.000 N 
ATOM      2  C   UNL     1       1.209   9.670  19.169  0.00  0.00    +0.000 C 
ATOM      3  C   UNL     1      -0.296   9.943  19.342  0.00  0.00    +0.000 C 
ATOM      4  N   UNL     1      -0.620  10.162  20.762  0.00  0.00    +0.000 N 
ATOM      5  C   UNL     1      -1.100  11.337  21.328  0.00  0.00    +0.000 C 
ATOM      6  N   UNL     1      -1.472  11.382  22.578  0.00  0.00    +0.000 NA
ATOM      7  C   UNL     1      -0.264   8.989  21.595  0.00  0.00    +0.000 C 
ATOM      8  C   UNL     1       1.225   8.602  21.405  0.00  0.00    +0.000 C 
ENDROOT
BRANCH   6   9
ATOM      9  C   UNL     1      -2.034  12.510  23.206  0.00  0.00    +0.000 A 
ATOM     10  C   UNL     1      -3.364  12.548  23.643  0.00  0.00    +0.000 A 
ATOM     11  C   UNL     1      -3.893  13.681  24.265  0.00  0.00    +0.000 A 
ATOM     12  C   UNL     1      -3.061  14.759  24.530  0.00  0.00    +0.000 A 
ATOM     13  F   UNL     1      -3.560  15.841  25.144  0.00  0.00    +0.000 F 
ATOM     14  C   UNL     1      -1.717  14.721  24.184  0.00  0.00    +0.000 A 
ATOM     15  C   UNL     1      -1.207  13.599  23.516  0.00  0.00    +0.000 A 
ENDBRANCH   6   9
BRANCH   1  19
ATOM     16  C   UNL     1       3.625   5.197  18.322  0.00  0.00    +0.000 A 
ATOM     17  C   UNL     1       2.935   5.061  19.525  0.00  0.00    +0.000 A 
ATOM     18  C   UNL     1       2.245   6.157  20.051  0.00  0.00    +0.000 A 
ATOM     19  C   UNL     1       2.225   7.410  19.411  0.00  0.00    +0.000 A 
ATOM     20  C   UNL     1       2.917   7.507  18.195  0.00  0.00    +0.000 A 
ATOM     21  C   UNL     1       3.615   6.419  17.647  0.00  0.00    +0.000 A 
BRANCH  16  23
ATOM     22  O   UNL     1       3.832   2.941  17.829  0.00  0.00    +0.000 OA
ATOM     23  N   UNL     1       4.364   4.058  17.769  0.00  0.00    +0.000 N 
ATOM     24  O   UNL     1       5.482   4.279  17.276  0.00  0.00    +0.000 OA
ENDBRANCH  16  23
ENDBRANCH   1  19
BRANCH   5  25
ATOM     25  S   UNL     1      -1.176  12.745  20.257  0.00  0.00    +0.000 S 
ATOM     26  H   UNL     1      -0.762  12.075  19.172  0.00  0.00    +0.000 HD
ENDBRANCH   5  25
TORSDOF 4
ENDMDL
MODEL 2
REMARK VINA RESULT:      -7.1      0.446      1.427
REMARK  Name = 
REMARK  4 active torsions:
REMARK  status: ('A' for Active; 'I' for Inactive)
REMARK    1  A    between atoms: N_2  and  C_4
REMARK    2  A    between atoms: C_7  and  N_8
REMARK    3  A    between atoms: C_12  and  S_13
REMARK    4  A    between atoms: N_14  and  C_15
REMARK                            x       y       z     vdW  Elec       q    Type
REMARK                         _______ _______ _______ _____ _____    ______ ____
ROOT
ATOM      1  N   UNL     1       1.743   8.288  19.766  0.00  0.00    +0.000 N 
ATOM      2  C   UNL     1       1.397   9.496  18.999  0.00  0.00    +0.000 C 
ATOM      3  C   UNL     1      -0.102   9.796  19.176  0.00  0.00    +0.000 C 
ATOM      4  N   UNL     1      -0.427   9.975  20.601  0.00  0.00    +0.000 N 
ATOM      5  C   UNL     1      -0.885  11.141  21.204  0.00  0.00    +0.000 C 
ATOM      6  N   UNL     1      -1.261  11.153  22.453  0.00  0.00    +0.000 NA
ATOM      7  C   UNL     1      -0.101   8.768  21.396  0.00  0.00    +0.000 C 
ATOM      8  C   UNL     1       1.381   8.355  21.198  0.00  0.00    +0.000 C 
ENDROOT
BRANCH   6   9
ATOM      9  C   UNL     1      -1.801  12.272  23.116  0.00  0.00    +0.000 A 
ATOM     10  C   UNL     1      -1.069  13.447  23.333  0.00  0.00    +0.000 A 
ATOM     11  C   UNL     1      -1.633  14.543  23.991  0.00  0.00    +0.000 A 
ATOM     12  C   UNL     1      -2.969  14.496  24.364  0.00  0.00    +0.000 A 
ATOM     13  F   UNL     1      -3.519  15.552  24.979  0.00  0.00    +0.000 F 
ATOM     14  C   UNL     1      -3.744  13.377  24.089  0.00  0.00    +0.000 A 
ATOM     15  C   UNL     1      -3.156  12.264  23.471  0.00  0.00    +0.000 A 
ENDBRANCH   6   9
BRANCH   1  19
ATOM     16  C   UNL     1       3.557   4.990  17.867  0.00  0.00    +0.000 A 
ATOM     17  C   UNL     1       3.759   6.278  17.374  0.00  0.00    +0.000 A 
ATOM     18  C   UNL     1       3.169   7.365  18.026  0.00  0.00    +0.000 A 
ATOM     19  C   UNL     1       2.362   7.208  19.169  0.00  0.00    +0.000 A 
ATOM     20  C   UNL     1       2.193   5.900  19.646  0.00  0.00    +0.000 A 
ATOM     21  C   UNL     1       2.778   4.795  19.009  0.00  0.00    +0.000 A 
BRANCH  16  23
ATOM     22  O   UNL     1       3.895   2.711  17.613  0.00  0.00    +0.000 OA
ATOM     23  N   UNL     1       4.159   3.841  17.183  0.00  0.00    +0.000 N 
ATOM     24  O   UNL     1       4.902   4.071  16.215  0.00  0.00    +0.000 OA
ENDBRANCH  16  23
ENDBRANCH   1  19
BRANCH   5  25
ATOM     25  S   UNL     1      -0.926  12.585  20.179  0.00  0.00    +0.000 S 
ATOM     26  H   UNL     1      -2.184  12.383  19.763  0.00  0.00    +0.000 HD
ENDBRANCH   5  25
TORSDOF 4
ENDMDL
MODEL 3
REMARK VINA RESULT:      -7.1      0.143      1.141
REMARK  Name = 
REMARK  4 active torsions:
REMARK  status: ('A' for Active; 'I' for Inactive)
REMARK    1  A    between atoms: N_2  and  C_4
REMARK    2  A    between atoms: C_7  and  N_8
REMARK    3  A    between atoms: C_12  and  S_13
REMARK    4  A    between atoms: N_14  and  C_15
REMARK                            x       y       z     vdW  Elec       q    Type
REMARK                         _______ _______ _______ _____ _____    ______ ____
ROOT
ATOM      1  N   UNL     1       1.602   8.490  19.967  0.00  0.00    +0.000 N 
ATOM      2  C   UNL     1       1.208   9.663  19.171  0.00  0.00    +0.000 C 
ATOM      3  C   UNL     1      -0.294   9.935  19.377  0.00  0.00    +0.000 C 
ATOM      4  N   UNL     1      -0.586  10.154  20.803  0.00  0.00    +0.000 N 
ATOM      5  C   UNL     1      -1.055  11.329  21.379  0.00  0.00    +0.000 C 
ATOM      6  N   UNL     1      -1.399  11.374  22.637  0.00  0.00    +0.000 NA
ATOM      7  C   UNL     1      -0.211   8.982  21.629  0.00  0.00    +0.000 C 
ATOM      8  C   UNL     1       1.275   8.597  21.406  0.00  0.00    +0.000 C 
ENDROOT
BRANCH   6   9
ATOM      9  C   UNL     1      -1.948  12.502  23.277  0.00  0.00    +0.000 A 
ATOM     10  C   UNL     1      -1.207  13.664  23.526  0.00  0.00    +0.000 A 
ATOM     11  C   UNL     1      -1.780  14.770  24.160  0.00  0.00    +0.000 A 
ATOM     12  C   UNL     1      -3.132  14.745  24.474  0.00  0.00    +0.000 A 
ATOM     13  F   UNL     1      -3.690  15.811  25.065  0.00  0.00    +0.000 F 
ATOM     14  C   UNL     1      -3.913  13.640  24.165  0.00  0.00    +0.000 A 
ATOM     15  C   UNL     1      -3.318  12.517  23.573  0.00  0.00    +0.000 A 
ENDBRANCH   6   9
BRANCH   1  19
ATOM     16  C   UNL     1       3.609   5.191  18.274  0.00  0.00    +0.000 A 
ATOM     17  C   UNL     1       2.930   5.051  19.483  0.00  0.00    +0.000 A 
ATOM     18  C   UNL     1       2.251   6.147  20.023  0.00  0.00    +0.000 A 
ATOM     19  C   UNL     1       2.231   7.405  19.391  0.00  0.00    +0.000 A 
ATOM     20  C   UNL     1       2.912   7.506  18.169  0.00  0.00    +0.000 A 
ATOM     21  C   UNL     1       3.599   6.419  17.608  0.00  0.00    +0.000 A 
BRANCH  16  23
ATOM     22  O   UNL     1       5.197   4.288  16.847  0.00  0.00    +0.000 OA
ATOM     23  N   UNL     1       4.337   4.052  17.706  0.00  0.00    +0.000 N 
ATOM     24  O   UNL     1       4.044   2.918  18.116  0.00  0.00    +0.000 OA
ENDBRANCH  16  23
ENDBRANCH   1  19
BRANCH   5  25
ATOM     25  S   UNL     1      -1.157  12.736  20.309  0.00  0.00    +0.000 S 
ATOM     26  H   UNL     1      -0.159  13.399  20.911  0.00  0.00    +0.000 HD
ENDBRANCH   5  25
TORSDOF 4
ENDMDL
MODEL 4
REMARK VINA RESULT:      -7.1      0.186      1.147
REMARK  Name = 
REMARK  4 active torsions:
REMARK  status: ('A' for Active; 'I' for Inactive)
REMARK    1  A    between atoms: N_2  and  C_4
REMARK    2  A    between atoms: C_7  and  N_8
REMARK    3  A    between atoms: C_12  and  S_13
REMARK    4  A    between atoms: N_14  and  C_15
REMARK                            x       y       z     vdW  Elec       q    Type
REMARK                         _______ _______ _______ _____ _____    ______ ____
ROOT
ATOM      1  N   UNL     1       1.609   8.514  19.960  0.00  0.00    +0.000 N 
ATOM      2  C   UNL     1       1.208   9.676  19.150  0.00  0.00    +0.000 C 
ATOM      3  C   UNL     1      -0.298   9.932  19.342  0.00  0.00    +0.000 C 
ATOM      4  N   UNL     1      -0.605  10.160  20.763  0.00  0.00    +0.000 N 
ATOM      5  C   UNL     1      -1.093  11.334  21.326  0.00  0.00    +0.000 C 
ATOM      6  N   UNL     1      -1.448  11.386  22.581  0.00  0.00    +0.000 NA
ATOM      7  C   UNL     1      -0.223   8.999  21.602  0.00  0.00    +0.000 C 
ATOM      8  C   UNL     1       1.268   8.629  21.395  0.00  0.00    +0.000 C 
ENDROOT
BRANCH   6   9
ATOM      9  C   UNL     1      -2.016  12.512  23.206  0.00  0.00    +0.000 A 
ATOM     10  C   UNL     1      -3.348  12.546  23.637  0.00  0.00    +0.000 A 
ATOM     11  C   UNL     1      -3.883  13.678  24.257  0.00  0.00    +0.000 A 
ATOM     12  C   UNL     1      -3.055  14.758  24.525  0.00  0.00    +0.000 A 
ATOM     13  F   UNL     1      -3.559  15.838  25.137  0.00  0.00    +0.000 F 
ATOM     14  C   UNL     1      -1.709  14.724  24.185  0.00  0.00    +0.000 A 
ATOM     15  C   UNL     1      -1.193  13.603  23.520  0.00  0.00    +0.000 A 
ENDBRANCH   6   9
BRANCH   1  19
ATOM     16  C   UNL     1       3.500   5.196  18.174  0.00  0.00    +0.000 A 
ATOM     17  C   UNL     1       3.552   6.446  17.558  0.00  0.00    +0.000 A 
ATOM     18  C   UNL     1       2.939   7.542  18.171  0.00  0.00    +0.000 A 
ATOM     19  C   UNL     1       2.256   7.432  19.398  0.00  0.00    +0.000 A 
ATOM     20  C   UNL     1       2.236   6.164  19.996  0.00  0.00    +0.000 A 
ATOM     21  C   UNL     1       2.847   5.050  19.399  0.00  0.00    +0.000 A 
BRANCH  16  23
ATOM     22  O   UNL     1       4.970   4.252  16.651  0.00  0.00    +0.000 OA
ATOM     23  N   UNL     1       4.127   4.037  17.532  0.00  0.00    +0.000 N 
ATOM     24  O   UNL     1       3.774   2.908  17.907  0.00  0.00    +0.000 OA
ENDBRANCH  16  23
ENDBRANCH   1  19
BRANCH   5  25
ATOM     25  S   UNL     1      -1.202  12.731  20.243  0.00  0.00    +0.000 S 
ATOM     26  H   UNL     1      -2.236  13.286  20.890  0.00  0.00    +0.000 HD
ENDBRANCH   5  25
TORSDOF 4
ENDMDL
MODEL 5
REMARK VINA RESULT:      -6.8      5.967     10.151
REMARK  Name = 
REMARK  4 active torsions:
REMARK  status: ('A' for Active; 'I' for Inactive)
REMARK    1  A    between atoms: N_2  and  C_4
REMARK    2  A    between atoms: C_7  and  N_8
REMARK    3  A    between atoms: C_12  and  S_13
REMARK    4  A    between atoms: N_14  and  C_15
REMARK                            x       y       z     vdW  Elec       q    Type
REMARK                         _______ _______ _______ _____ _____    ______ ____
ROOT
ATOM      1  N   UNL     1      -0.733  10.881  21.692  0.00  0.00    +0.000 N 
ATOM      2  C   UNL     1      -0.386  11.059  20.272  0.00  0.00    +0.000 C 
ATOM      3  C   UNL     1       1.098  10.704  20.065  0.00  0.00    +0.000 C 
ATOM      4  N   UNL     1       1.361   9.320  20.493  0.00  0.00    +0.000 N 
ATOM      5  C   UNL     1       1.766   8.267  19.682  0.00  0.00    +0.000 C 
ATOM      6  N   UNL     1       2.091   7.109  20.189  0.00  0.00    +0.000 NA
ATOM      7  C   UNL     1       1.033   9.115  21.923  0.00  0.00    +0.000 C 
ATOM      8  C   UNL     1      -0.429   9.535  22.225  0.00  0.00    +0.000 C 
ENDROOT
BRANCH   6   9
ATOM      9  C   UNL     1       2.577   6.017  19.444  0.00  0.00    +0.000 A 
ATOM     10  C   UNL     1       3.945   5.781  19.255  0.00  0.00    +0.000 A 
ATOM     11  C   UNL     1       4.397   4.686  18.513  0.00  0.00    +0.000 A 
ATOM     12  C   UNL     1       3.475   3.771  18.025  0.00  0.00    +0.000 A 
ATOM     13  F   UNL     1       3.906   2.710  17.329  0.00  0.00    +0.000 F 
ATOM     14  C   UNL     1       2.118   3.932  18.266  0.00  0.00    +0.000 A 
ATOM     15  C   UNL     1       1.670   5.059  18.970  0.00  0.00    +0.000 A 
ENDBRANCH   6   9
BRANCH   1  19
ATOM     16  C   UNL     1      -2.402  13.970  24.026  0.00  0.00    +0.000 A 
ATOM     17  C   UNL     1      -1.193  14.170  23.361  0.00  0.00    +0.000 A 
ATOM     18  C   UNL     1      -0.661  13.145  22.574  0.00  0.00    +0.000 A 
ATOM     19  C   UNL     1      -1.301  11.900  22.429  0.00  0.00    +0.000 A 
ATOM     20  C   UNL     1      -2.523  11.738  23.098  0.00  0.00    +0.000 A 
ATOM     21  C   UNL     1      -3.076  12.754  23.893  0.00  0.00    +0.000 A 
BRANCH  16  23
ATOM     22  O   UNL     1      -2.351  15.331  25.901  0.00  0.00    +0.000 OA
ATOM     23  N   UNL     1      -2.961  15.033  24.865  0.00  0.00    +0.000 N 
ATOM     24  O   UNL     1      -4.016  15.569  24.491  0.00  0.00    +0.000 OA
ENDBRANCH  16  23
ENDBRANCH   1  19
BRANCH   5  25
ATOM     25  S   UNL     1       1.813   8.595  17.942  0.00  0.00    +0.000 S 
ATOM     26  H   UNL     1       0.960   7.610  17.625  0.00  0.00    +0.000 HD
ENDBRANCH   5  25
TORSDOF 4
ENDMDL
MODEL 6
REMARK VINA RESULT:      -6.7      5.967     10.122
REMARK  Name = 
REMARK  4 active torsions:
REMARK  status: ('A' for Active; 'I' for Inactive)
REMARK    1  A    between atoms: N_2  and  C_4
REMARK    2  A    between atoms: C_7  and  N_8
REMARK    3  A    between atoms: C_12  and  S_13
REMARK    4  A    between atoms: N_14  and  C_15
REMARK                            x       y       z     vdW  Elec       q    Type
REMARK                         _______ _______ _______ _____ _____    ______ ____
ROOT
ATOM      1  N   UNL     1      -0.648  10.822  21.695  0.00  0.00    +0.000 N 
ATOM      2  C   UNL     1      -0.309  11.022  20.276  0.00  0.00    +0.000 C 
ATOM      3  C   UNL     1       1.173  10.672  20.054  0.00  0.00    +0.000 C 
ATOM      4  N   UNL     1       1.441   9.283  20.460  0.00  0.00    +0.000 N 
ATOM      5  C   UNL     1       1.841   8.242  19.630  0.00  0.00    +0.000 C 
ATOM      6  N   UNL     1       2.171   7.077  20.117  0.00  0.00    +0.000 NA
ATOM      7  C   UNL     1       1.121   9.055  21.889  0.00  0.00    +0.000 C 
ATOM      8  C   UNL     1      -0.340   9.469  22.205  0.00  0.00    +0.000 C 
ENDROOT
BRANCH   6   9
ATOM      9  C   UNL     1       2.653   5.997  19.353  0.00  0.00    +0.000 A 
ATOM     10  C   UNL     1       4.020   5.734  19.196  0.00  0.00    +0.000 A 
ATOM     11  C   UNL     1       4.469   4.652  18.434  0.00  0.00    +0.000 A 
ATOM     12  C   UNL     1       3.541   3.775  17.891  0.00  0.00    +0.000 A 
ATOM     13  F   UNL     1       3.968   2.725  17.175  0.00  0.00    +0.000 F 
ATOM     14  C   UNL     1       2.181   3.961  18.097  0.00  0.00    +0.000 A 
ATOM     15  C   UNL     1       1.739   5.077  18.823  0.00  0.00    +0.000 A 
ENDBRANCH   6   9
BRANCH   1  19
ATOM     16  C   UNL     1      -2.445  13.918  23.922  0.00  0.00    +0.000 A 
ATOM     17  C   UNL     1      -3.038  12.657  23.872  0.00  0.00    +0.000 A 
ATOM     18  C   UNL     1      -2.420  11.634  23.147  0.00  0.00    +0.000 A 
ATOM     19  C   UNL     1      -1.213  11.829  22.450  0.00  0.00    +0.000 A 
ATOM     20  C   UNL     1      -0.637  13.105  22.535  0.00  0.00    +0.000 A 
ATOM     21  C   UNL     1      -1.238  14.147  23.258  0.00  0.00    +0.000 A 
BRANCH  16  23
ATOM     22  O   UNL     1      -4.015  15.613  24.112  0.00  0.00    +0.000 OA
ATOM     23  N   UNL     1      -3.091  15.002  24.667  0.00  0.00    +0.000 N 
ATOM     24  O   UNL     1      -2.672  15.247  25.809  0.00  0.00    +0.000 OA
ENDBRANCH  16  23
ENDBRANCH   1  19
BRANCH   5  25
ATOM     25  S   UNL     1       1.877   8.597  17.895  0.00  0.00    +0.000 S 
ATOM     26  H   UNL     1       3.036   7.958  17.681  0.00  0.00    +0.000 HD
ENDBRANCH   5  25
TORSDOF 4
ENDMDL
MODEL 7
REMARK VINA RESULT:      -6.6      5.983     10.082
REMARK  Name = 
REMARK  4 active torsions:
REMARK  status: ('A' for Active; 'I' for Inactive)
REMARK    1  A    between atoms: N_2  and  C_4
REMARK    2  A    between atoms: C_7  and  N_8
REMARK    3  A    between atoms: C_12  and  S_13
REMARK    4  A    between atoms: N_14  and  C_15
REMARK                            x       y       z     vdW  Elec       q    Type
REMARK                         _______ _______ _______ _____ _____    ______ ____
ROOT
ATOM      1  N   UNL     1      -0.779  11.097  21.740  0.00  0.00    +0.000 N 
ATOM      2  C   UNL     1      -0.560  11.291  20.298  0.00  0.00    +0.000 C 
ATOM      3  C   UNL     1       0.915  11.003  19.965  0.00  0.00    +0.000 C 
ATOM      4  N   UNL     1       1.275   9.632  20.365  0.00  0.00    +0.000 N 
ATOM      5  C   UNL     1       1.656   8.597  19.518  0.00  0.00    +0.000 C 
ATOM      6  N   UNL     1       2.074   7.455  19.991  0.00  0.00    +0.000 NA
ATOM      7  C   UNL     1       1.076   9.412  21.816  0.00  0.00    +0.000 C 
ATOM      8  C   UNL     1      -0.372   9.766  22.241  0.00  0.00    +0.000 C 
ENDROOT
BRANCH   6   9
ATOM      9  C   UNL     1       2.543   6.386  19.204  0.00  0.00    +0.000 A 
ATOM     10  C   UNL     1       1.778   5.240  18.953  0.00  0.00    +0.000 A 
ATOM     11  C   UNL     1       2.270   4.197  18.166  0.00  0.00    +0.000 A 
ATOM     12  C   UNL     1       3.507   4.335  17.553  0.00  0.00    +0.000 A 
ATOM     13  F   UNL     1       3.974   3.344  16.782  0.00  0.00    +0.000 F 
ATOM     14  C   UNL     1       4.255   5.493  17.715  0.00  0.00    +0.000 A 
ATOM     15  C   UNL     1       3.774   6.515  18.546  0.00  0.00    +0.000 A 
ENDBRANCH   6   9
BRANCH   1  19
ATOM     16  C   UNL     1      -2.519  14.161  24.056  0.00  0.00    +0.000 A 
ATOM     17  C   UNL     1      -3.205  12.966  23.848  0.00  0.00    +0.000 A 
ATOM     18  C   UNL     1      -2.608  11.950  23.096  0.00  0.00    +0.000 A 
ATOM     19  C   UNL     1      -1.328  12.090  22.526  0.00  0.00    +0.000 A 
ATOM     20  C   UNL     1      -0.660  13.299  22.768  0.00  0.00    +0.000 A 
ATOM     21  C   UNL     1      -1.240  14.332  23.521  0.00  0.00    +0.000 A 
BRANCH  16  23
ATOM     22  O   UNL     1      -4.316  15.530  24.571  0.00  0.00    +0.000 OA
ATOM     23  N   UNL     1      -3.141  15.238  24.831  0.00  0.00    +0.000 N 
ATOM     24  O   UNL     1      -2.453  15.797  25.699  0.00  0.00    +0.000 OA
ENDBRANCH  16  23
ENDBRANCH   1  19
BRANCH   5  25
ATOM     25  S   UNL     1       1.542   8.929  17.782  0.00  0.00    +0.000 S 
ATOM     26  H   UNL     1       0.536   8.067  17.575  0.00  0.00    +0.000 HD
ENDBRANCH   5  25
TORSDOF 4
ENDMDL
MODEL 8
REMARK VINA RESULT:      -6.6      5.970     10.088
REMARK  Name = 
REMARK  4 active torsions:
REMARK  status: ('A' for Active; 'I' for Inactive)
REMARK    1  A    between atoms: N_2  and  C_4
REMARK    2  A    between atoms: C_7  and  N_8
REMARK    3  A    between atoms: C_12  and  S_13
REMARK    4  A    between atoms: N_14  and  C_15
REMARK                            x       y       z     vdW  Elec       q    Type
REMARK                         _______ _______ _______ _____ _____    ______ ____
ROOT
ATOM      1  N   UNL     1      -0.333  10.067  20.722  0.00  0.00    +0.000 N 
ATOM      2  C   UNL     1       0.285   9.982  19.389  0.00  0.00    +0.000 C 
ATOM      3  C   UNL     1       1.715   9.429  19.528  0.00  0.00    +0.000 C 
ATOM      4  N   UNL     1       1.696   8.107  20.177  0.00  0.00    +0.000 N 
ATOM      5  C   UNL     1       2.084   6.901  19.606  0.00  0.00    +0.000 C 
ATOM      6  N   UNL     1       2.143   5.806  20.313  0.00  0.00    +0.000 NA
ATOM      7  C   UNL     1       1.089   8.165  21.527  0.00  0.00    +0.000 C 
ATOM      8  C   UNL     1      -0.328   8.794  21.475  0.00  0.00    +0.000 C 
ENDROOT
BRANCH   6   9
ATOM      9  C   UNL     1       2.593   4.563  19.828  0.00  0.00    +0.000 A 
ATOM     10  C   UNL     1       3.952   4.240  19.722  0.00  0.00    +0.000 A 
ATOM     11  C   UNL     1       4.368   2.996  19.240  0.00  0.00    +0.000 A 
ATOM     12  C   UNL     1       3.416   2.034  18.938  0.00  0.00    +0.000 A 
ATOM     13  F   UNL     1       3.811   0.833  18.493  0.00  0.00    +0.000 F 
ATOM     14  C   UNL     1       2.063   2.294  19.110  0.00  0.00    +0.000 A 
ATOM     15  C   UNL     1       1.653   3.561  19.549  0.00  0.00    +0.000 A 
ENDBRANCH   6   9
BRANCH   1  19
ATOM     16  C   UNL     1      -2.071  13.616  22.191  0.00  0.00    +0.000 A 
ATOM     17  C   UNL     1      -1.454  12.725  23.067  0.00  0.00    +0.000 A 
ATOM     18  C   UNL     1      -0.863  11.562  22.565  0.00  0.00    +0.000 A 
ATOM     19  C   UNL     1      -0.873  11.247  21.192  0.00  0.00    +0.000 A 
ATOM     20  C   UNL     1      -1.489  12.173  20.338  0.00  0.00    +0.000 A 
ATOM     21  C   UNL     1      -2.086  13.348  20.821  0.00  0.00    +0.000 A 
BRANCH  16  23
ATOM     22  O   UNL     1      -2.924  15.753  21.911  0.00  0.00    +0.000 OA
ATOM     23  N   UNL     1      -2.706  14.832  22.709  0.00  0.00    +0.000 N 
ATOM     24  O   UNL     1      -2.983  14.868  23.918  0.00  0.00    +0.000 OA
ENDBRANCH  16  23
ENDBRANCH   1  19
BRANCH   5  25
ATOM     25  S   UNL     1       2.490   6.949  17.882  0.00  0.00    +0.000 S 
ATOM     26  H   UNL     1       2.768   5.639  17.803  0.00  0.00    +0.000 HD
ENDBRANCH   5  25
TORSDOF 4
ENDMDL
MODEL 9
REMARK VINA RESULT:      -6.5      1.751      2.275
REMARK  Name = 
REMARK  4 active torsions:
REMARK  status: ('A' for Active; 'I' for Inactive)
REMARK    1  A    between atoms: N_2  and  C_4
REMARK    2  A    between atoms: C_7  and  N_8
REMARK    3  A    between atoms: C_12  and  S_13
REMARK    4  A    between atoms: N_14  and  C_15
REMARK                            x       y       z     vdW  Elec       q    Type
REMARK                         _______ _______ _______ _____ _____    ______ ____
ROOT
ATOM      1  N   UNL     1       1.594   8.253  19.629  0.00  0.00    +0.000 N 
ATOM      2  C   UNL     1       1.079   8.157  21.005  0.00  0.00    +0.000 C 
ATOM      3  C   UNL     1       1.303   9.499  21.725  0.00  0.00    +0.000 C 
ATOM      4  N   UNL     1       0.637  10.592  20.997  0.00  0.00    +0.000 N 
ATOM      5  C   UNL     1      -0.417  11.371  21.460  0.00  0.00    +0.000 C 
ATOM      6  N   UNL     1      -0.851  12.396  20.779  0.00  0.00    +0.000 NA
ATOM      7  C   UNL     1       1.145  10.720  19.611  0.00  0.00    +0.000 C 
ATOM      8  C   UNL     1       1.028   9.375  18.849  0.00  0.00    +0.000 C 
ENDROOT
BRANCH   6   9
ATOM      9  C   UNL     1      -1.863  13.274  21.211  0.00  0.00    +0.000 A 
ATOM     10  C   UNL     1      -1.595  14.421  21.968  0.00  0.00    +0.000 A 
ATOM     11  C   UNL     1      -2.621  15.276  22.380  0.00  0.00    +0.000 A 
ATOM     12  C   UNL     1      -3.920  15.027  21.961  0.00  0.00    +0.000 A 
ATOM     13  F   UNL     1      -4.904  15.855  22.338  0.00  0.00    +0.000 F 
ATOM     14  C   UNL     1      -4.207  13.944  21.141  0.00  0.00    +0.000 A 
ATOM     15  C   UNL     1      -3.178  13.065  20.773  0.00  0.00    +0.000 A 
ENDBRANCH   6   9
BRANCH   1  19
ATOM     16  C   UNL     1       4.484   5.536  18.201  0.00  0.00    +0.000 A 
ATOM     17  C   UNL     1       3.819   5.284  19.400  0.00  0.00    +0.000 A 
ATOM     18  C   UNL     1       2.848   6.182  19.852  0.00  0.00    +0.000 A 
ATOM     19  C   UNL     1       2.515   7.350  19.139  0.00  0.00    +0.000 A 
ATOM     20  C   UNL     1       3.192   7.564  17.930  0.00  0.00    +0.000 A 
ATOM     21  C   UNL     1       4.169   6.675  17.456  0.00  0.00    +0.000 A 
BRANCH  16  23
ATOM     22  O   UNL     1       6.475   4.382  18.472  0.00  0.00    +0.000 OA
ATOM     23  N   UNL     1       5.514   4.608  17.725  0.00  0.00    +0.000 N 
ATOM     24  O   UNL     1       5.364   4.107  16.599  0.00  0.00    +0.000 OA
ENDBRANCH  16  23
ENDBRANCH   1  19
BRANCH   5  25
ATOM     25  S   UNL     1      -1.120  10.889  23.013  0.00  0.00    +0.000 S 
ATOM     26  H   UNL     1      -0.362   9.790  23.136  0.00  0.00    +0.000 HD
ENDBRANCH   5  25
TORSDOF 4
ENDMDL
