MODEL 1
REMARK VINA RESULT:      -6.9      0.000      0.000
REMARK  Name = 
REMARK  4 active torsions:
REMARK  status: ('A' for Active; 'I' for Inactive)
REMARK    1  A    between atoms: C_1  and  C_2
REMARK    2  A    between atoms: N_5  and  C_6
REMARK    3  A    between atoms: C_6  and  N_8
REMARK    4  A    between atoms: N_8  and  C_9
REMARK                            x       y       z     vdW  Elec       q    Type
REMARK                         _______ _______ _______ _____ _____    ______ ____
ROOT
ATOM      1  C   UNL     1       1.405   8.361  21.318  0.00  0.00    +0.000 C 
ATOM      2  C   UNL     1       1.894   7.598  20.122  0.00  0.00    +0.000 A 
ATOM      3  N   UNL     1       2.276   6.318  20.368  0.00  0.00    +0.000 NA
ATOM      4  C   UNL     1       2.818   5.606  19.361  0.00  0.00    +0.000 A 
ATOM      5  N   UNL     1       3.074   4.278  19.680  0.00  0.00    +0.000 N 
ATOM      6  C   UNL     1       2.942   6.100  18.071  0.00  0.00    +0.000 A 
ATOM      7  C   UNL     1       2.492   7.392  17.811  0.00  0.00    +0.000 A 
ATOM      8  C   UNL     1       1.970   8.160  18.849  0.00  0.00    +0.000 A 
ATOM      9 BR   UNL     1       1.385   9.919  18.465  0.00  0.00    +0.000 Br
ATOM     10  H   UNL     1       2.633   3.992  20.545  0.00  0.00    +0.000 HD
ENDROOT
BRANCH   5  11
ATOM     11  C   UNL     1       3.900   3.354  19.098  0.00  0.00    +0.000 C 
ATOM     12  S   UNL     1       3.432   2.097  18.103  0.00  0.00    +0.000 S 
BRANCH  11  13
ATOM     13  N   UNL     1       5.240   3.617  19.271  0.00  0.00    +0.000 N 
ATOM     14  H   UNL     1       5.637   3.343  20.162  0.00  0.00    +0.000 HD
BRANCH  13  15
ATOM     15  C   UNL     1       5.996   4.534  18.505  0.00  0.00    +0.000 A 
ATOM     16  C   UNL     1       5.934   4.568  17.106  0.00  0.00    +0.000 A 
ATOM     17  C   UNL     1       6.645   5.525  16.384  0.00  0.00    +0.000 A 
ATOM     18  C   UNL     1       7.428   6.456  17.054  0.00  0.00    +0.000 A 
ATOM     19  C   UNL     1       7.488   6.440  18.448  0.00  0.00    +0.000 A 
ATOM     20  C   UNL     1       6.758   5.491  19.174  0.00  0.00    +0.000 A 
ENDBRANCH  13  15
ENDBRANCH  11  13
ENDBRANCH   5  11
TORSDOF 3
ENDMDL
MODEL 2
REMARK VINA RESULT:      -6.9      3.459      4.863
REMARK  Name = 
REMARK  4 active torsions:
REMARK  status: ('A' for Active; 'I' for Inactive)
REMARK    1  A    between atoms: C_1  and  C_2
REMARK    2  A    between atoms: N_5  and  C_6
REMARK    3  A    between atoms: C_6  and  N_8
REMARK    4  A    between atoms: N_8  and  C_9
REMARK                            x       y       z     vdW  Elec       q    Type
REMARK                         _______ _______ _______ _____ _____    ______ ____
ROOT
ATOM      1  C   UNL     1       3.744   2.196  20.980  0.00  0.00    +0.000 C 
ATOM      2  C   UNL     1       3.765   2.966  19.694  0.00  0.00    +0.000 A 
ATOM      3  N   UNL     1       4.996   3.360  19.274  0.00  0.00    +0.000 NA
ATOM      4  C   UNL     1       5.081   4.139  18.178  0.00  0.00    +0.000 A 
ATOM      5  N   UNL     1       6.383   4.396  17.767  0.00  0.00    +0.000 N 
ATOM      6  C   UNL     1       3.976   4.502  17.425  0.00  0.00    +0.000 A 
ATOM      7  C   UNL     1       2.722   4.044  17.826  0.00  0.00    +0.000 A 
ATOM      8  C   UNL     1       2.608   3.275  18.981  0.00  0.00    +0.000 A 
ATOM      9 BR   UNL     1       0.888   2.686  19.508  0.00  0.00    +0.000 Br
ATOM     10  H   UNL     1       7.062   3.800  18.223  0.00  0.00    +0.000 HD
ENDROOT
BRANCH   5  11
ATOM     11  C   UNL     1       6.896   5.376  16.959  0.00  0.00    +0.000 C 
ATOM     12  S   UNL     1       6.831   7.021  17.235  0.00  0.00    +0.000 S 
BRANCH  11  13
ATOM     13  N   UNL     1       7.645   4.895  15.908  0.00  0.00    +0.000 N 
ATOM     14  H   UNL     1       8.650   4.992  15.996  0.00  0.00    +0.000 HD
BRANCH  13  15
ATOM     15  C   UNL     1       7.153   4.634  14.609  0.00  0.00    +0.000 A 
ATOM     16  C   UNL     1       7.805   5.092  13.458  0.00  0.00    +0.000 A 
ATOM     17  C   UNL     1       7.328   4.766  12.190  0.00  0.00    +0.000 A 
ATOM     18  C   UNL     1       6.190   3.979  12.061  0.00  0.00    +0.000 A 
ATOM     19  C   UNL     1       5.539   3.507  13.200  0.00  0.00    +0.000 A 
ATOM     20  C   UNL     1       6.030   3.819  14.474  0.00  0.00    +0.000 A 
ENDBRANCH  13  15
ENDBRANCH  11  13
ENDBRANCH   5  11
TORSDOF 3
ENDMDL
MODEL 3
REMARK VINA RESULT:      -6.7      3.562      4.684
REMARK  Name = 
REMARK  4 active torsions:
REMARK  status: ('A' for Active; 'I' for Inactive)
REMARK    1  A    between atoms: C_1  and  C_2
REMARK    2  A    between atoms: N_5  and  C_6
REMARK    3  A    between atoms: C_6  and  N_8
REMARK    4  A    between atoms: N_8  and  C_9
REMARK                            x       y       z     vdW  Elec       q    Type
REMARK                         _______ _______ _______ _____ _____    ______ ____
ROOT
ATOM      1  C   UNL     1       3.105   2.537  21.047  0.00  0.00    +0.000 C 
ATOM      2  C   UNL     1       3.374   3.060  19.668  0.00  0.00    +0.000 A 
ATOM      3  N   UNL     1       4.644   3.486  19.446  0.00  0.00    +0.000 NA
ATOM      4  C   UNL     1       4.932   4.059  18.261  0.00  0.00    +0.000 A 
ATOM      5  N   UNL     1       6.278   4.360  18.089  0.00  0.00    +0.000 N 
ATOM      6  C   UNL     1       4.005   4.175  17.236  0.00  0.00    +0.000 A 
ATOM      7  C   UNL     1       2.719   3.682  17.448  0.00  0.00    +0.000 A 
ATOM      8  C   UNL     1       2.391   3.126  18.682  0.00  0.00    +0.000 A 
ATOM      9 BR   UNL     1       0.630   2.483  18.941  0.00  0.00    +0.000 Br
ATOM     10  H   UNL     1       6.868   3.923  18.786  0.00  0.00    +0.000 HD
ENDROOT
BRANCH   5  11
ATOM     11  C   UNL     1       6.906   5.222  17.231  0.00  0.00    +0.000 C 
ATOM     12  S   UNL     1       6.975   6.884  17.371  0.00  0.00    +0.000 S 
BRANCH  11  13
ATOM     13  N   UNL     1       7.651   4.593  16.258  0.00  0.00    +0.000 N 
ATOM     14  H   UNL     1       8.635   4.464  16.465  0.00  0.00    +0.000 HD
BRANCH  13  15
ATOM     15  C   UNL     1       7.273   4.456  14.903  0.00  0.00    +0.000 A 
ATOM     16  C   UNL     1       6.192   3.660  14.506  0.00  0.00    +0.000 A 
ATOM     17  C   UNL     1       5.807   3.595  13.169  0.00  0.00    +0.000 A 
ATOM     18  C   UNL     1       6.502   4.324  12.213  0.00  0.00    +0.000 A 
ATOM     19  C   UNL     1       7.574   5.130  12.597  0.00  0.00    +0.000 A 
ATOM     20  C   UNL     1       7.948   5.211  13.944  0.00  0.00    +0.000 A 
ENDBRANCH  13  15
ENDBRANCH  11  13
ENDBRANCH   5  11
TORSDOF 3
ENDMDL
MODEL 4
REMARK VINA RESULT:      -6.7      3.659      6.291
REMARK  Name = 
REMARK  4 active torsions:
REMARK  status: ('A' for Active; 'I' for Inactive)
REMARK    1  A    between atoms: C_1  and  C_2
REMARK    2  A    between atoms: N_5  and  C_6
REMARK    3  A    between atoms: C_6  and  N_8
REMARK    4  A    between atoms: N_8  and  C_9
REMARK                            x       y       z     vdW  Elec       q    Type
REMARK                         _______ _______ _______ _____ _____    ______ ____
ROOT
ATOM      1  C   UNL     1       8.122   5.481  12.723  0.00  0.00    +0.000 C 
ATOM      2  C   UNL     1       7.234   4.983  13.824  0.00  0.00    +0.000 A 
ATOM      3  N   UNL     1       7.353   5.640  15.007  0.00  0.00    +0.000 NA
ATOM      4  C   UNL     1       6.658   5.183  16.067  0.00  0.00    +0.000 A 
ATOM      5  N   UNL     1       6.760   5.985  17.198  0.00  0.00    +0.000 N 
ATOM      6  C   UNL     1       5.778   4.115  15.988  0.00  0.00    +0.000 A 
ATOM      7  C   UNL     1       5.615   3.483  14.757  0.00  0.00    +0.000 A 
ATOM      8  C   UNL     1       6.358   3.911  13.660  0.00  0.00    +0.000 A 
ATOM      9 BR   UNL     1       6.124   3.018  12.007  0.00  0.00    +0.000 Br
ATOM     10  H   UNL     1       7.170   6.889  17.001  0.00  0.00    +0.000 HD
ENDROOT
BRANCH   5  11
ATOM     11  C   UNL     1       6.516   5.716  18.518  0.00  0.00    +0.000 C 
ATOM     12  S   UNL     1       7.658   5.353  19.682  0.00  0.00    +0.000 S 
BRANCH  11  13
ATOM     13  N   UNL     1       5.207   5.914  18.894  0.00  0.00    +0.000 N 
ATOM     14  H   UNL     1       5.047   6.632  19.592  0.00  0.00    +0.000 HD
BRANCH  13  15
ATOM     15  C   UNL     1       4.152   4.996  18.688  0.00  0.00    +0.000 A 
ATOM     16  C   UNL     1       4.168   3.706  19.232  0.00  0.00    +0.000 A 
ATOM     17  C   UNL     1       3.085   2.846  19.062  0.00  0.00    +0.000 A 
ATOM     18  C   UNL     1       1.974   3.268  18.342  0.00  0.00    +0.000 A 
ATOM     19  C   UNL     1       1.941   4.555  17.805  0.00  0.00    +0.000 A 
ATOM     20  C   UNL     1       3.022   5.426  17.994  0.00  0.00    +0.000 A 
ENDBRANCH  13  15
ENDBRANCH  11  13
ENDBRANCH   5  11
TORSDOF 3
ENDMDL
MODEL 5
REMARK VINA RESULT:      -6.6      0.965      1.433
REMARK  Name = 
REMARK  4 active torsions:
REMARK  status: ('A' for Active; 'I' for Inactive)
REMARK    1  A    between atoms: C_1  and  C_2
REMARK    2  A    between atoms: N_5  and  C_6
REMARK    3  A    between atoms: C_6  and  N_8
REMARK    4  A    between atoms: N_8  and  C_9
REMARK                            x       y       z     vdW  Elec       q    Type
REMARK                         _______ _______ _______ _____ _____    ______ ____
ROOT
ATOM      1  C   UNL     1       1.084   8.865  21.693  0.00  0.00    +0.000 C 
ATOM      2  C   UNL     1       1.518   8.266  20.388  0.00  0.00    +0.000 A 
ATOM      3  N   UNL     1       1.948   6.979  20.456  0.00  0.00    +0.000 NA
ATOM      4  C   UNL     1       2.445   6.410  19.340  0.00  0.00    +0.000 A 
ATOM      5  N   UNL     1       2.754   5.063  19.482  0.00  0.00    +0.000 N 
ATOM      6  C   UNL     1       2.477   7.057  18.115  0.00  0.00    +0.000 A 
ATOM      7  C   UNL     1       1.979   8.356  18.039  0.00  0.00    +0.000 A 
ATOM      8  C   UNL     1       1.502   8.978  19.190  0.00  0.00    +0.000 A 
ATOM      9 BR   UNL     1       0.850  10.750  19.055  0.00  0.00    +0.000 Br
ATOM     10  H   UNL     1       2.374   4.662  20.330  0.00  0.00    +0.000 HD
ENDROOT
BRANCH   5  11
ATOM     11  C   UNL     1       3.566   4.241  18.746  0.00  0.00    +0.000 C 
ATOM     12  S   UNL     1       3.121   3.358  17.401  0.00  0.00    +0.000 S 
BRANCH  11  13
ATOM     13  N   UNL     1       4.892   4.296  19.112  0.00  0.00    +0.000 N 
ATOM     14  H   UNL     1       5.147   3.777  19.944  0.00  0.00    +0.000 HD
BRANCH  13  15
ATOM     15  C   UNL     1       5.818   5.271  18.674  0.00  0.00    +0.000 A 
ATOM     16  C   UNL     1       7.013   5.525  19.358  0.00  0.00    +0.000 A 
ATOM     17  C   UNL     1       7.934   6.449  18.867  0.00  0.00    +0.000 A 
ATOM     18  C   UNL     1       7.666   7.131  17.687  0.00  0.00    +0.000 A 
ATOM     19  C   UNL     1       6.484   6.878  16.991  0.00  0.00    +0.000 A 
ATOM     20  C   UNL     1       5.568   5.935  17.474  0.00  0.00    +0.000 A 
ENDBRANCH  13  15
ENDBRANCH  11  13
ENDBRANCH   5  11
TORSDOF 3
ENDMDL
MODEL 6
REMARK VINA RESULT:      -6.6      3.684      6.257
REMARK  Name = 
REMARK  4 active torsions:
REMARK  status: ('A' for Active; 'I' for Inactive)
REMARK    1  A    between atoms: C_1  and  C_2
REMARK    2  A    between atoms: N_5  and  C_6
REMARK    3  A    between atoms: C_6  and  N_8
REMARK    4  A    between atoms: N_8  and  C_9
REMARK                            x       y       z     vdW  Elec       q    Type
REMARK                         _______ _______ _______ _____ _____    ______ ____
ROOT
ATOM      1  C   UNL     1       8.012   5.398  12.604  0.00  0.00    +0.000 C 
ATOM      2  C   UNL     1       7.146   4.928  13.735  0.00  0.00    +0.000 A 
ATOM      3  N   UNL     1       7.295   5.610  14.900  0.00  0.00    +0.000 NA
ATOM      4  C   UNL     1       6.621   5.180  15.985  0.00  0.00    +0.000 A 
ATOM      5  N   UNL     1       6.752   6.005  17.096  0.00  0.00    +0.000 N 
ATOM      6  C   UNL     1       5.736   4.114  15.948  0.00  0.00    +0.000 A 
ATOM      7  C   UNL     1       5.542   3.456  14.735  0.00  0.00    +0.000 A 
ATOM      8  C   UNL     1       6.263   3.857  13.613  0.00  0.00    +0.000 A 
ATOM      9 BR   UNL     1       5.989   2.930  11.986  0.00  0.00    +0.000 Br
ATOM     10  H   UNL     1       7.161   6.903  16.870  0.00  0.00    +0.000 HD
ENDROOT
BRANCH   5  11
ATOM     11  C   UNL     1       6.536   5.766  18.427  0.00  0.00    +0.000 C 
ATOM     12  S   UNL     1       7.697   5.382  19.564  0.00  0.00    +0.000 S 
BRANCH  11  13
ATOM     13  N   UNL     1       5.245   6.015  18.835  0.00  0.00    +0.000 N 
ATOM     14  H   UNL     1       5.128   6.757  19.516  0.00  0.00    +0.000 HD
BRANCH  13  15
ATOM     15  C   UNL     1       4.157   5.125  18.687  0.00  0.00    +0.000 A 
ATOM     16  C   UNL     1       2.994   5.477  17.991  0.00  0.00    +0.000 A 
ATOM     17  C   UNL     1       1.964   4.555  17.811  0.00  0.00    +0.000 A 
ATOM     18  C   UNL     1       2.086   3.272  18.329  0.00  0.00    +0.000 A 
ATOM     19  C   UNL     1       3.245   2.907  19.015  0.00  0.00    +0.000 A 
ATOM     20  C   UNL     1       4.288   3.827  19.178  0.00  0.00    +0.000 A 
ENDBRANCH  13  15
ENDBRANCH  11  13
ENDBRANCH   5  11
TORSDOF 3
ENDMDL
MODEL 7
REMARK VINA RESULT:      -6.6      3.519      4.783
REMARK  Name = 
REMARK  4 active torsions:
REMARK  status: ('A' for Active; 'I' for Inactive)
REMARK    1  A    between atoms: C_1  and  C_2
REMARK    2  A    between atoms: N_5  and  C_6
REMARK    3  A    between atoms: C_6  and  N_8
REMARK    4  A    between atoms: N_8  and  C_9
REMARK                            x       y       z     vdW  Elec       q    Type
REMARK                         _______ _______ _______ _____ _____    ______ ____
ROOT
ATOM      1  C   UNL     1       1.201   4.117  17.666  0.00  0.00    +0.000 C 
ATOM      2  C   UNL     1       2.593   4.294  18.195  0.00  0.00    +0.000 A 
ATOM      3  N   UNL     1       3.402   5.084  17.442  0.00  0.00    +0.000 NA
ATOM      4  C   UNL     1       4.694   5.208  17.805  0.00  0.00    +0.000 A 
ATOM      5  N   UNL     1       5.411   6.120  17.040  0.00  0.00    +0.000 N 
ATOM      6  C   UNL     1       5.216   4.618  18.946  0.00  0.00    +0.000 A 
ATOM      7  C   UNL     1       4.366   3.858  19.746  0.00  0.00    +0.000 A 
ATOM      8  C   UNL     1       3.038   3.681  19.364  0.00  0.00    +0.000 A 
ATOM      9 BR   UNL     1       1.915   2.627  20.465  0.00  0.00    +0.000 Br
ATOM     10  H   UNL     1       4.815   6.701  16.464  0.00  0.00    +0.000 HD
ENDROOT
BRANCH   5  11
ATOM     11  C   UNL     1       6.759   6.278  16.853  0.00  0.00    +0.000 C 
ATOM     12  S   UNL     1       7.712   7.488  17.497  0.00  0.00    +0.000 S 
BRANCH  11  13
ATOM     13  N   UNL     1       7.352   5.235  16.179  0.00  0.00    +0.000 N 
ATOM     14  H   UNL     1       8.210   4.874  16.582  0.00  0.00    +0.000 HD
BRANCH  13  15
ATOM     15  C   UNL     1       7.097   4.883  14.833  0.00  0.00    +0.000 A 
ATOM     16  C   UNL     1       7.834   5.419  13.769  0.00  0.00    +0.000 A 
ATOM     17  C   UNL     1       7.598   5.005  12.459  0.00  0.00    +0.000 A 
ATOM     18  C   UNL     1       6.621   4.054  12.200  0.00  0.00    +0.000 A 
ATOM     19  C   UNL     1       5.888   3.505  13.253  0.00  0.00    +0.000 A 
ATOM     20  C   UNL     1       6.139   3.905  14.571  0.00  0.00    +0.000 A 
ENDBRANCH  13  15
ENDBRANCH  11  13
ENDBRANCH   5  11
TORSDOF 3
ENDMDL
MODEL 8
REMARK VINA RESULT:      -6.5      2.071      2.774
REMARK  Name = 
REMARK  4 active torsions:
REMARK  status: ('A' for Active; 'I' for Inactive)
REMARK    1  A    between atoms: C_1  and  C_2
REMARK    2  A    between atoms: N_5  and  C_6
REMARK    3  A    between atoms: C_6  and  N_8
REMARK    4  A    between atoms: N_8  and  C_9
REMARK                            x       y       z     vdW  Elec       q    Type
REMARK                         _______ _______ _______ _____ _____    ______ ____
ROOT
ATOM      1  C   UNL     1       1.432   4.477  20.368  0.00  0.00    +0.000 C 
ATOM      2  C   UNL     1       2.278   5.160  19.336  0.00  0.00    +0.000 A 
ATOM      3  N   UNL     1       2.922   4.332  18.474  0.00  0.00    +0.000 NA
ATOM      4  C   UNL     1       3.777   4.872  17.583  0.00  0.00    +0.000 A 
ATOM      5  N   UNL     1       4.300   3.959  16.675  0.00  0.00    +0.000 N 
ATOM      6  C   UNL     1       3.978   6.239  17.466  0.00  0.00    +0.000 A 
ATOM      7  C   UNL     1       3.269   7.087  18.314  0.00  0.00    +0.000 A 
ATOM      8  C   UNL     1       2.415   6.546  19.271  0.00  0.00    +0.000 A 
ATOM      9 BR   UNL     1       1.481   7.726  20.418  0.00  0.00    +0.000 Br
ATOM     10  H   UNL     1       3.811   3.073  16.687  0.00  0.00    +0.000 HD
ENDROOT
BRANCH   5  11
ATOM     11  C   UNL     1       5.411   4.018  15.877  0.00  0.00    +0.000 C 
ATOM     12  S   UNL     1       5.429   4.239  14.221  0.00  0.00    +0.000 S 
BRANCH  11  13
ATOM     13  N   UNL     1       6.598   4.029  16.574  0.00  0.00    +0.000 N 
ATOM     14  H   UNL     1       6.996   3.123  16.791  0.00  0.00    +0.000 HD
BRANCH  13  15
ATOM     15  C   UNL     1       7.099   5.126  17.313  0.00  0.00    +0.000 A 
ATOM     16  C   UNL     1       7.578   4.988  18.621  0.00  0.00    +0.000 A 
ATOM     17  C   UNL     1       8.122   6.076  19.300  0.00  0.00    +0.000 A 
ATOM     18  C   UNL     1       8.190   7.316  18.677  0.00  0.00    +0.000 A 
ATOM     19  C   UNL     1       7.726   7.463  17.369  0.00  0.00    +0.000 A 
ATOM     20  C   UNL     1       7.198   6.364  16.680  0.00  0.00    +0.000 A 
ENDBRANCH  13  15
ENDBRANCH  11  13
ENDBRANCH   5  11
TORSDOF 3
ENDMDL
MODEL 9
REMARK VINA RESULT:      -6.5      2.692      3.614
REMARK  Name = 
REMARK  4 active torsions:
REMARK  status: ('A' for Active; 'I' for Inactive)
REMARK    1  A    between atoms: C_1  and  C_2
REMARK    2  A    between atoms: N_5  and  C_6
REMARK    3  A    between atoms: C_6  and  N_8
REMARK    4  A    between atoms: N_8  and  C_9
REMARK                            x       y       z     vdW  Elec       q    Type
REMARK                         _______ _______ _______ _____ _____    ______ ____
ROOT
ATOM      1  C   UNL     1       3.187   2.487  20.587  0.00  0.00    +0.000 C 
ATOM      2  C   UNL     1       3.387   3.436  19.443  0.00  0.00    +0.000 A 
ATOM      3  N   UNL     1       4.202   2.986  18.453  0.00  0.00    +0.000 NA
ATOM      4  C   UNL     1       4.505   3.824  17.442  0.00  0.00    +0.000 A 
ATOM      5  N   UNL     1       5.252   3.238  16.427  0.00  0.00    +0.000 N 
ATOM      6  C   UNL     1       3.972   5.099  17.334  0.00  0.00    +0.000 A 
ATOM      7  C   UNL     1       3.089   5.532  18.321  0.00  0.00    +0.000 A 
ATOM      8  C   UNL     1       2.798   4.698  19.398  0.00  0.00    +0.000 A 
ATOM      9 BR   UNL     1       1.609   5.326  20.731  0.00  0.00    +0.000 Br
ATOM     10  H   UNL     1       5.283   2.229  16.497  0.00  0.00    +0.000 HD
ENDROOT
BRANCH   5  11
ATOM     11  C   UNL     1       6.030   3.792  15.445  0.00  0.00    +0.000 C 
ATOM     12  S   UNL     1       5.544   4.165  13.891  0.00  0.00    +0.000 S 
BRANCH  11  13
ATOM     13  N   UNL     1       7.276   4.185  15.878  0.00  0.00    +0.000 N 
ATOM     14  H   UNL     1       8.034   3.534  15.705  0.00  0.00    +0.000 HD
BRANCH  13  15
ATOM     15  C   UNL     1       7.526   5.196  16.834  0.00  0.00    +0.000 A 
ATOM     16  C   UNL     1       7.357   6.556  16.545  0.00  0.00    +0.000 A 
ATOM     17  C   UNL     1       7.553   7.524  17.527  0.00  0.00    +0.000 A 
ATOM     18  C   UNL     1       7.923   7.142  18.810  0.00  0.00    +0.000 A 
ATOM     19  C   UNL     1       8.084   5.789  19.113  0.00  0.00    +0.000 A 
ATOM     20  C   UNL     1       7.868   4.815  18.131  0.00  0.00    +0.000 A 
ENDBRANCH  13  15
ENDBRANCH  11  13
ENDBRANCH   5  11
TORSDOF 3
ENDMDL
