MODEL 1
REMARK VINA RESULT:      -6.4      0.000      0.000
REMARK  Name = 
REMARK  5 active torsions:
REMARK  status: ('A' for Active; 'I' for Inactive)
REMARK    1  A    between atoms: C_2  and  C_3
REMARK    2  A    between atoms: C_3  and  O_4
REMARK    3  A    between atoms: O_4  and  C_5
REMARK    4  A    between atoms: C_8  and  N_9
REMARK    5  A    between atoms: N_14  and  N_15
REMARK                            x       y       z     vdW  Elec       q    Type
REMARK                         _______ _______ _______ _____ _____    ______ ____
ROOT
ATOM      1  C   UNL     1       6.693   6.200  17.736  0.00  0.00    +0.000 C 
ENDROOT
BRANCH   1   3
ATOM      2  O   UNL     1       7.889   4.409  16.668  0.00  0.00    +0.000 OA
ATOM      3  C   UNL     1       7.078   5.325  16.542  0.00  0.00    +0.000 C 
ATOM      4  N   UNL     1       6.469   5.655  15.357  0.00  0.00    +0.000 N 
ATOM      5  H   UNL     1       5.786   6.400  15.304  0.00  0.00    +0.000 HD
BRANCH   4   6
ATOM      6  N   UNL     1       6.679   4.916  14.244  0.00  0.00    +0.000 N 
ATOM      7  C   UNL     1       5.905   3.879  13.837  0.00  0.00    +0.000 A 
ATOM      8  N   UNL     1       6.305   3.489  12.647  0.00  0.00    +0.000 NA
ATOM      9  N   UNL     1       7.360   4.301  12.272  0.00  0.00    +0.000 NA
ATOM     10  C   UNL     1       7.566   5.162  13.247  0.00  0.00    +0.000 A 
ENDBRANCH   4   6
ENDBRANCH   1   3
BRANCH   1  11
ATOM     11  O   UNL     1       6.482   5.458  18.935  0.00  0.00    +0.000 OA
BRANCH  11  12
ATOM     12  C   UNL     1       5.240   4.881  19.046  0.00  0.00    +0.000 A 
ATOM     13  C   UNL     1       4.184   5.767  19.278  0.00  0.00    +0.000 A 
ATOM     14  C   UNL     1       2.874   5.296  19.418  0.00  0.00    +0.000 A 
ATOM     15  C   UNL     1       2.620   3.925  19.308  0.00  0.00    +0.000 A 
ATOM     16  C   UNL     1       3.665   3.031  19.047  0.00  0.00    +0.000 A 
ATOM     17  C   UNL     1       4.973   3.513  18.913  0.00  0.00    +0.000 A 
BRANCH  15  18
ATOM     18  N   UNL     1       1.252   3.415  19.463  0.00  0.00    +0.000 N 
ATOM     19  O   UNL     1       0.887   2.509  18.700  0.00  0.00    +0.000 OA
ATOM     20  O   UNL     1       0.544   3.922  20.345  0.00  0.00    +0.000 OA
ENDBRANCH  15  18
ENDBRANCH  11  12
ENDBRANCH   1  11
TORSDOF 5
ENDMDL
MODEL 2
REMARK VINA RESULT:      -6.4      0.415      1.422
REMARK  Name = 
REMARK  5 active torsions:
REMARK  status: ('A' for Active; 'I' for Inactive)
REMARK    1  A    between atoms: C_2  and  C_3
REMARK    2  A    between atoms: C_3  and  O_4
REMARK    3  A    between atoms: O_4  and  C_5
REMARK    4  A    between atoms: C_8  and  N_9
REMARK    5  A    between atoms: N_14  and  N_15
REMARK                            x       y       z     vdW  Elec       q    Type
REMARK                         _______ _______ _______ _____ _____    ______ ____
ROOT
ATOM      1  C   UNL     1       7.037   6.293  17.842  0.00  0.00    +0.000 C 
ENDROOT
BRANCH   1   3
ATOM      2  O   UNL     1       7.875   4.382  16.650  0.00  0.00    +0.000 OA
ATOM      3  C   UNL     1       7.177   5.393  16.614  0.00  0.00    +0.000 C 
ATOM      4  N   UNL     1       6.489   5.813  15.503  0.00  0.00    +0.000 N 
ATOM      5  H   UNL     1       5.903   6.638  15.525  0.00  0.00    +0.000 HD
BRANCH   4   6
ATOM      6  N   UNL     1       6.481   5.069  14.374  0.00  0.00    +0.000 N 
ATOM      7  C   UNL     1       7.429   5.109  13.404  0.00  0.00    +0.000 A 
ATOM      8  N   UNL     1       7.188   4.155  12.532  0.00  0.00    +0.000 NA
ATOM      9  N   UNL     1       6.060   3.475  12.955  0.00  0.00    +0.000 NA
ATOM     10  C   UNL     1       5.652   4.037  14.073  0.00  0.00    +0.000 A 
ENDBRANCH   4   6
ENDBRANCH   1   3
BRANCH   1  11
ATOM     11  O   UNL     1       6.620   5.592  19.011  0.00  0.00    +0.000 OA
BRANCH  11  12
ATOM     12  C   UNL     1       5.306   5.193  19.006  0.00  0.00    +0.000 A 
ATOM     13  C   UNL     1       5.086   3.841  19.291  0.00  0.00    +0.000 A 
ATOM     14  C   UNL     1       3.789   3.316  19.306  0.00  0.00    +0.000 A 
ATOM     15  C   UNL     1       2.702   4.159  19.050  0.00  0.00    +0.000 A 
ATOM     16  C   UNL     1       2.907   5.519  18.792  0.00  0.00    +0.000 A 
ATOM     17  C   UNL     1       4.210   6.032  18.775  0.00  0.00    +0.000 A 
BRANCH  15  18
ATOM     18  N   UNL     1       1.337   3.619  19.052  0.00  0.00    +0.000 N 
ATOM     19  O   UNL     1       0.948   3.038  18.028  0.00  0.00    +0.000 OA
ATOM     20  O   UNL     1       0.655   3.777  20.075  0.00  0.00    +0.000 OA
ENDBRANCH  15  18
ENDBRANCH  11  12
ENDBRANCH   1  11
TORSDOF 5
ENDMDL
MODEL 3
REMARK VINA RESULT:      -6.4      4.089      7.985
REMARK  Name = 
REMARK  5 active torsions:
REMARK  status: ('A' for Active; 'I' for Inactive)
REMARK    1  A    between atoms: C_2  and  C_3
REMARK    2  A    between atoms: C_3  and  O_4
REMARK    3  A    between atoms: O_4  and  C_5
REMARK    4  A    between atoms: C_8  and  N_9
REMARK    5  A    between atoms: N_14  and  N_15
REMARK                            x       y       z     vdW  Elec       q    Type
REMARK                         _______ _______ _______ _____ _____    ______ ____
ROOT
ATOM      1  C   UNL     1       2.230   8.204  18.025  0.00  0.00    +0.000 C 
ENDROOT
BRANCH   1   3
ATOM      2  O   UNL     1       1.184  10.060  19.136  0.00  0.00    +0.000 OA
ATOM      3  C   UNL     1       1.580   8.899  19.222  0.00  0.00    +0.000 C 
ATOM      4  N   UNL     1       1.499   8.141  20.363  0.00  0.00    +0.000 N 
ATOM      5  H   UNL     1       1.814   7.179  20.381  0.00  0.00    +0.000 HD
BRANCH   4   6
ATOM      6  N   UNL     1       0.887   8.621  21.469  0.00  0.00    +0.000 N 
ATOM      7  C   UNL     1       1.508   9.262  22.490  0.00  0.00    +0.000 A 
ATOM      8  N   UNL     1       0.599   9.723  23.321  0.00  0.00    +0.000 NA
ATOM      9  N   UNL     1      -0.642   9.377  22.818  0.00  0.00    +0.000 NA
ATOM     10  C   UNL     1      -0.448   8.719  21.695  0.00  0.00    +0.000 A 
ENDBRANCH   4   6
ENDBRANCH   1   3
BRANCH   1  11
ATOM     11  O   UNL     1       2.242   6.783  18.135  0.00  0.00    +0.000 OA
BRANCH  11  12
ATOM     12  C   UNL     1       3.482   6.204  18.012  0.00  0.00    +0.000 A 
ATOM     13  C   UNL     1       4.420   6.942  17.284  0.00  0.00    +0.000 A 
ATOM     14  C   UNL     1       5.715   6.451  17.083  0.00  0.00    +0.000 A 
ATOM     15  C   UNL     1       6.076   5.216  17.633  0.00  0.00    +0.000 A 
ATOM     16  C   UNL     1       5.154   4.482  18.389  0.00  0.00    +0.000 A 
ATOM     17  C   UNL     1       3.859   4.981  18.578  0.00  0.00    +0.000 A 
BRANCH  15  18
ATOM     18  N   UNL     1       7.428   4.684  17.422  0.00  0.00    +0.000 N 
ATOM     19  O   UNL     1       8.127   4.480  18.425  0.00  0.00    +0.000 OA
ATOM     20  O   UNL     1       7.789   4.472  16.256  0.00  0.00    +0.000 OA
ENDBRANCH  15  18
ENDBRANCH  11  12
ENDBRANCH   1  11
TORSDOF 5
ENDMDL
MODEL 4
REMARK VINA RESULT:      -6.4      0.905      1.457
REMARK  Name = 
REMARK  5 active torsions:
REMARK  status: ('A' for Active; 'I' for Inactive)
REMARK    1  A    between atoms: C_2  and  C_3
REMARK    2  A    between atoms: C_3  and  O_4
REMARK    3  A    between atoms: O_4  and  C_5
REMARK    4  A    between atoms: C_8  and  N_9
REMARK    5  A    between atoms: N_14  and  N_15
REMARK                            x       y       z     vdW  Elec       q    Type
REMARK                         _______ _______ _______ _____ _____    ______ ____
ROOT
ATOM      1  C   UNL     1       6.796   6.205  17.641  0.00  0.00    +0.000 C 
ENDROOT
BRANCH   1   3
ATOM      2  O   UNL     1       7.935   4.381  16.568  0.00  0.00    +0.000 OA
ATOM      3  C   UNL     1       7.148   5.319  16.446  0.00  0.00    +0.000 C 
ATOM      4  N   UNL     1       6.541   5.665  15.265  0.00  0.00    +0.000 N 
ATOM      5  H   UNL     1       5.879   6.429  15.216  0.00  0.00    +0.000 HD
BRANCH   4   6
ATOM      6  N   UNL     1       6.722   4.919  14.151  0.00  0.00    +0.000 N 
ATOM      7  C   UNL     1       5.929   3.890  13.762  0.00  0.00    +0.000 A 
ATOM      8  N   UNL     1       6.304   3.491  12.566  0.00  0.00    +0.000 NA
ATOM      9  N   UNL     1       7.362   4.289  12.171  0.00  0.00    +0.000 NA
ATOM     10  C   UNL     1       7.595   5.150  13.138  0.00  0.00    +0.000 A 
ENDBRANCH   4   6
ENDBRANCH   1   3
BRANCH   1  11
ATOM     11  O   UNL     1       5.487   6.764  17.563  0.00  0.00    +0.000 OA
BRANCH  11  12
ATOM     12  C   UNL     1       4.488   5.966  18.062  0.00  0.00    +0.000 A 
ATOM     13  C   UNL     1       4.889   5.025  19.016  0.00  0.00    +0.000 A 
ATOM     14  C   UNL     1       3.961   4.149  19.590  0.00  0.00    +0.000 A 
ATOM     15  C   UNL     1       2.615   4.230  19.216  0.00  0.00    +0.000 A 
ATOM     16  C   UNL     1       2.197   5.187  18.283  0.00  0.00    +0.000 A 
ATOM     17  C   UNL     1       3.135   6.054  17.712  0.00  0.00    +0.000 A 
BRANCH  15  18
ATOM     18  N   UNL     1       1.632   3.310  19.802  0.00  0.00    +0.000 N 
ATOM     19  O   UNL     1       0.718   3.803  20.478  0.00  0.00    +0.000 OA
ATOM     20  O   UNL     1       1.777   2.098  19.589  0.00  0.00    +0.000 OA
ENDBRANCH  15  18
ENDBRANCH  11  12
ENDBRANCH   1  11
TORSDOF 5
ENDMDL
MODEL 5
REMARK VINA RESULT:      -6.3      0.904      1.416
REMARK  Name = 
REMARK  5 active torsions:
REMARK  status: ('A' for Active; 'I' for Inactive)
REMARK    1  A    between atoms: C_2  and  C_3
REMARK    2  A    between atoms: C_3  and  O_4
REMARK    3  A    between atoms: O_4  and  C_5
REMARK    4  A    between atoms: C_8  and  N_9
REMARK    5  A    between atoms: N_14  and  N_15
REMARK                            x       y       z     vdW  Elec       q    Type
REMARK                         _______ _______ _______ _____ _____    ______ ____
ROOT
ATOM      1  C   UNL     1       6.894   5.844  17.818  0.00  0.00    +0.000 C 
ENDROOT
BRANCH   1   3
ATOM      2  O   UNL     1       5.640   6.407  15.847  0.00  0.00    +0.000 OA
ATOM      3  C   UNL     1       6.521   5.706  16.341  0.00  0.00    +0.000 C 
ATOM      4  N   UNL     1       7.224   4.753  15.649  0.00  0.00    +0.000 N 
ATOM      5  H   UNL     1       7.962   4.217  16.090  0.00  0.00    +0.000 HD
BRANCH   4   6
ATOM      6  N   UNL     1       7.032   4.581  14.322  0.00  0.00    +0.000 N 
ATOM      7  C   UNL     1       7.747   5.189  13.343  0.00  0.00    +0.000 A 
ATOM      8  N   UNL     1       7.397   4.682  12.181  0.00  0.00    +0.000 NA
ATOM      9  N   UNL     1       6.436   3.716  12.417  0.00  0.00    +0.000 NA
ATOM     10  C   UNL     1       6.234   3.664  13.717  0.00  0.00    +0.000 A 
ENDBRANCH   4   6
ENDBRANCH   1   3
BRANCH   1  11
ATOM     11  O   UNL     1       6.686   4.648  18.566  0.00  0.00    +0.000 OA
BRANCH  11  12
ATOM     12  C   UNL     1       5.369   4.327  18.788  0.00  0.00    +0.000 A 
ATOM     13  C   UNL     1       4.593   5.336  19.366  0.00  0.00    +0.000 A 
ATOM     14  C   UNL     1       3.239   5.123  19.647  0.00  0.00    +0.000 A 
ATOM     15  C   UNL     1       2.655   3.891  19.329  0.00  0.00    +0.000 A 
ATOM     16  C   UNL     1       3.415   2.884  18.724  0.00  0.00    +0.000 A 
ATOM     17  C   UNL     1       4.770   3.107  18.452  0.00  0.00    +0.000 A 
BRANCH  15  18
ATOM     18  N   UNL     1       1.238   3.650  19.629  0.00  0.00    +0.000 N 
ATOM     19  O   UNL     1       0.696   4.386  20.466  0.00  0.00    +0.000 OA
ATOM     20  O   UNL     1       0.671   2.726  19.030  0.00  0.00    +0.000 OA
ENDBRANCH  15  18
ENDBRANCH  11  12
ENDBRANCH   1  11
TORSDOF 5
ENDMDL
MODEL 6
REMARK VINA RESULT:      -6.2      0.839      1.410
REMARK  Name = 
REMARK  5 active torsions:
REMARK  status: ('A' for Active; 'I' for Inactive)
REMARK    1  A    between atoms: C_2  and  C_3
REMARK    2  A    between atoms: C_3  and  O_4
REMARK    3  A    between atoms: O_4  and  C_5
REMARK    4  A    between atoms: C_8  and  N_9
REMARK    5  A    between atoms: N_14  and  N_15
REMARK                            x       y       z     vdW  Elec       q    Type
REMARK                         _______ _______ _______ _____ _____    ______ ____
ROOT
ATOM      1  C   UNL     1       6.874   6.184  17.586  0.00  0.00    +0.000 C 
ENDROOT
BRANCH   1   3
ATOM      2  O   UNL     1       7.878   4.351  16.399  0.00  0.00    +0.000 OA
ATOM      3  C   UNL     1       7.120   5.318  16.349  0.00  0.00    +0.000 C 
ATOM      4  N   UNL     1       6.456   5.717  15.217  0.00  0.00    +0.000 N 
ATOM      5  H   UNL     1       5.820   6.504  15.228  0.00  0.00    +0.000 HD
BRANCH   4   6
ATOM      6  N   UNL     1       6.542   4.996  14.076  0.00  0.00    +0.000 N 
ATOM      7  C   UNL     1       7.495   5.150  13.123  0.00  0.00    +0.000 A 
ATOM      8  N   UNL     1       7.367   4.192  12.232  0.00  0.00    +0.000 NA
ATOM      9  N   UNL     1       6.308   3.393  12.624  0.00  0.00    +0.000 NA
ATOM     10  C   UNL     1       5.827   3.890  13.744  0.00  0.00    +0.000 A 
ENDBRANCH   4   6
ENDBRANCH   1   3
BRANCH   1  11
ATOM     11  O   UNL     1       5.539   6.676  17.673  0.00  0.00    +0.000 OA
BRANCH  11  12
ATOM     12  C   UNL     1       4.629   5.787  18.191  0.00  0.00    +0.000 A 
ATOM     13  C   UNL     1       3.322   5.916  17.712  0.00  0.00    +0.000 A 
ATOM     14  C   UNL     1       2.305   5.072  18.173  0.00  0.00    +0.000 A 
ATOM     15  C   UNL     1       2.607   4.080  19.112  0.00  0.00    +0.000 A 
ATOM     16  C   UNL     1       3.918   3.923  19.578  0.00  0.00    +0.000 A 
ATOM     17  C   UNL     1       4.926   4.776  19.113  0.00  0.00    +0.000 A 
BRANCH  15  18
ATOM     18  N   UNL     1       1.548   3.194  19.613  0.00  0.00    +0.000 N 
ATOM     19  O   UNL     1       0.700   3.687  20.371  0.00  0.00    +0.000 OA
ATOM     20  O   UNL     1       1.566   2.010  19.249  0.00  0.00    +0.000 OA
ENDBRANCH  15  18
ENDBRANCH  11  12
ENDBRANCH   1  11
TORSDOF 5
ENDMDL
MODEL 7
REMARK VINA RESULT:      -6.2      1.253      1.550
REMARK  Name = 
REMARK  5 active torsions:
REMARK  status: ('A' for Active; 'I' for Inactive)
REMARK    1  A    between atoms: C_2  and  C_3
REMARK    2  A    between atoms: C_3  and  O_4
REMARK    3  A    between atoms: O_4  and  C_5
REMARK    4  A    between atoms: C_8  and  N_9
REMARK    5  A    between atoms: N_14  and  N_15
REMARK                            x       y       z     vdW  Elec       q    Type
REMARK                         _______ _______ _______ _____ _____    ______ ____
ROOT
ATOM      1  C   UNL     1       6.287   6.095  17.333  0.00  0.00    +0.000 C 
ENDROOT
BRANCH   1   3
ATOM      2  O   UNL     1       5.287   6.534  15.192  0.00  0.00    +0.000 OA
ATOM      3  C   UNL     1       6.066   5.838  15.841  0.00  0.00    +0.000 C 
ATOM      4  N   UNL     1       6.777   4.788  15.319  0.00  0.00    +0.000 N 
ATOM      5  H   UNL     1       7.429   4.258  15.884  0.00  0.00    +0.000 HD
BRANCH   4   6
ATOM      6  N   UNL     1       6.716   4.502  13.998  0.00  0.00    +0.000 N 
ATOM      7  C   UNL     1       7.582   4.959  13.058  0.00  0.00    +0.000 A 
ATOM      8  N   UNL     1       7.319   4.368  11.913  0.00  0.00    +0.000 NA
ATOM      9  N   UNL     1       6.262   3.501  12.122  0.00  0.00    +0.000 NA
ATOM     10  C   UNL     1       5.917   3.591  13.389  0.00  0.00    +0.000 A 
ENDBRANCH   4   6
ENDBRANCH   1   3
BRANCH   1  11
ATOM     11  O   UNL     1       5.125   6.580  18.001  0.00  0.00    +0.000 OA
BRANCH  11  12
ATOM     12  C   UNL     1       4.257   5.606  18.430  0.00  0.00    +0.000 A 
ATOM     13  C   UNL     1       2.917   5.794  18.077  0.00  0.00    +0.000 A 
ATOM     14  C   UNL     1       1.939   4.872  18.466  0.00  0.00    +0.000 A 
ATOM     15  C   UNL     1       2.312   3.742  19.202  0.00  0.00    +0.000 A 
ATOM     16  C   UNL     1       3.654   3.528  19.537  0.00  0.00    +0.000 A 
ATOM     17  C   UNL     1       4.623   4.460  19.147  0.00  0.00    +0.000 A 
BRANCH  15  18
ATOM     18  N   UNL     1       1.295   2.772  19.626  0.00  0.00    +0.000 N 
ATOM     19  O   UNL     1       0.813   2.030  18.758  0.00  0.00    +0.000 OA
ATOM     20  O   UNL     1       0.977   2.755  20.823  0.00  0.00    +0.000 OA
ENDBRANCH  15  18
ENDBRANCH  11  12
ENDBRANCH   1  11
TORSDOF 5
ENDMDL
MODEL 8
REMARK VINA RESULT:      -6.2      1.156      1.670
REMARK  Name = 
REMARK  5 active torsions:
REMARK  status: ('A' for Active; 'I' for Inactive)
REMARK    1  A    between atoms: C_2  and  C_3
REMARK    2  A    between atoms: C_3  and  O_4
REMARK    3  A    between atoms: O_4  and  C_5
REMARK    4  A    between atoms: C_8  and  N_9
REMARK    5  A    between atoms: N_14  and  N_15
REMARK                            x       y       z     vdW  Elec       q    Type
REMARK                         _______ _______ _______ _____ _____    ______ ____
ROOT
ATOM      1  C   UNL     1       6.400   6.065  17.607  0.00  0.00    +0.000 C 
ENDROOT
BRANCH   1   3
ATOM      2  O   UNL     1       5.423   6.422  15.441  0.00  0.00    +0.000 OA
ATOM      3  C   UNL     1       6.244   5.797  16.109  0.00  0.00    +0.000 C 
ATOM      4  N   UNL     1       7.064   4.820  15.603  0.00  0.00    +0.000 N 
ATOM      5  H   UNL     1       7.745   4.349  16.185  0.00  0.00    +0.000 HD
BRANCH   4   6
ATOM      6  N   UNL     1       7.065   4.537  14.281  0.00  0.00    +0.000 N 
ATOM      7  C   UNL     1       6.194   3.704  13.658  0.00  0.00    +0.000 A 
ATOM      8  N   UNL     1       6.387   3.777  12.360  0.00  0.00    +0.000 NA
ATOM      9  N   UNL     1       7.404   4.688  12.138  0.00  0.00    +0.000 NA
ATOM     10  C   UNL     1       7.796   5.141  13.310  0.00  0.00    +0.000 A 
ENDBRANCH   4   6
ENDBRANCH   1   3
BRANCH   1  11
ATOM     11  O   UNL     1       6.387   4.878  18.396  0.00  0.00    +0.000 OA
BRANCH  11  12
ATOM     12  C   UNL     1       5.191   4.609  19.015  0.00  0.00    +0.000 A 
ATOM     13  C   UNL     1       4.954   3.262  19.307  0.00  0.00    +0.000 A 
ATOM     14  C   UNL     1       3.765   2.865  19.929  0.00  0.00    +0.000 A 
ATOM     15  C   UNL     1       2.814   3.831  20.277  0.00  0.00    +0.000 A 
ATOM     16  C   UNL     1       3.053   5.185  20.016  0.00  0.00    +0.000 A 
ATOM     17  C   UNL     1       4.244   5.570  19.389  0.00  0.00    +0.000 A 
BRANCH  15  18
ATOM     18  N   UNL     1       1.557   3.427  20.920  0.00  0.00    +0.000 N 
ATOM     19  O   UNL     1       0.499   3.722  20.347  0.00  0.00    +0.000 OA
ATOM     20  O   UNL     1       1.630   2.818  21.997  0.00  0.00    +0.000 OA
ENDBRANCH  15  18
ENDBRANCH  11  12
ENDBRANCH   1  11
TORSDOF 5
ENDMDL
MODEL 9
REMARK VINA RESULT:      -6.2      2.085      6.321
REMARK  Name = 
REMARK  5 active torsions:
REMARK  status: ('A' for Active; 'I' for Inactive)
REMARK    1  A    between atoms: C_2  and  C_3
REMARK    2  A    between atoms: C_3  and  O_4
REMARK    3  A    between atoms: O_4  and  C_5
REMARK    4  A    between atoms: C_8  and  N_9
REMARK    5  A    between atoms: N_14  and  N_15
REMARK                            x       y       z     vdW  Elec       q    Type
REMARK                         _______ _______ _______ _____ _____    ______ ____
ROOT
ATOM      1  C   UNL     1       5.895   5.199  19.319  0.00  0.00    +0.000 C 
ENDROOT
BRANCH   1   3
ATOM      2  O   UNL     1       4.881   3.042  19.626  0.00  0.00    +0.000 OA
ATOM      3  C   UNL     1       4.716   4.225  19.337  0.00  0.00    +0.000 C 
ATOM      4  N   UNL     1       3.504   4.772  18.999  0.00  0.00    +0.000 N 
ATOM      5  H   UNL     1       3.408   5.759  18.794  0.00  0.00    +0.000 HD
BRANCH   4   6
ATOM      6  N   UNL     1       2.375   4.028  19.041  0.00  0.00    +0.000 N 
ATOM      7  C   UNL     1       1.894   3.277  18.018  0.00  0.00    +0.000 A 
ATOM      8  N   UNL     1       0.871   2.572  18.450  0.00  0.00    +0.000 NA
ATOM      9  N   UNL     1       0.693   2.870  19.789  0.00  0.00    +0.000 NA
ATOM     10  C   UNL     1       1.615   3.745  20.130  0.00  0.00    +0.000 A 
ENDBRANCH   4   6
ENDBRANCH   1   3
BRANCH   1  11
ATOM     11  O   UNL     1       5.837   6.135  18.245  0.00  0.00    +0.000 OA
BRANCH  11  12
ATOM     12  C   UNL     1       6.078   5.603  17.002  0.00  0.00    +0.000 A 
ATOM     13  C   UNL     1       5.206   6.017  15.991  0.00  0.00    +0.000 A 
ATOM     14  C   UNL     1       5.346   5.535  14.684  0.00  0.00    +0.000 A 
ATOM     15  C   UNL     1       6.383   4.644  14.387  0.00  0.00    +0.000 A 
ATOM     16  C   UNL     1       7.281   4.245  15.385  0.00  0.00    +0.000 A 
ATOM     17  C   UNL     1       7.127   4.730  16.689  0.00  0.00    +0.000 A 
BRANCH  15  18
ATOM     18  N   UNL     1       6.537   4.123  13.023  0.00  0.00    +0.000 N 
ATOM     19  O   UNL     1       7.445   4.599  12.326  0.00  0.00    +0.000 OA
ATOM     20  O   UNL     1       5.750   3.242  12.650  0.00  0.00    +0.000 OA
ENDBRANCH  15  18
ENDBRANCH  11  12
ENDBRANCH   1  11
TORSDOF 5
ENDMDL
