MODEL 1
REMARK VINA RESULT:      -7.8      0.000      0.000
REMARK  Name = 
REMARK  7 active torsions:
REMARK  status: ('A' for Active; 'I' for Inactive)
REMARK    1  A    between atoms: C_1  and  O_2
REMARK    2  A    between atoms: O_2  and  C_3
REMARK    3  A    between atoms: C_6  and  O_7
REMARK    4  A    between atoms: O_7  and  C_8
REMARK    5  A    between atoms: C_9  and  N_10
REMARK    6  A    between atoms: N_10  and  C_11
REMARK    7  A    between atoms: N_20  and  C_21
REMARK                            x       y       z     vdW  Elec       q    Type
REMARK                         _______ _______ _______ _____ _____    ______ ____
ROOT
ATOM      1  C   UNL     1       2.900   5.842  18.452  0.00  0.00    +0.000 C 
ATOM      2  C   UNL     1       2.967   4.572  19.296  0.00  0.00    +0.000 A 
ATOM      3  N   UNL     1       3.590   3.408  19.000  0.00  0.00    +0.000 NA
ATOM      4  C   UNL     1       3.511   2.442  19.953  0.00  0.00    +0.000 A 
ATOM      5  C   UNL     1       2.819   2.575  21.156  0.00  0.00    +0.000 A 
ATOM      6  C   UNL     1       2.171   3.773  21.426  0.00  0.00    +0.000 A 
ATOM      7  C   UNL     1       2.276   4.768  20.474  0.00  0.00    +0.000 A 
ATOM      8  C   UNL     1       1.770   6.129  20.513  0.00  0.00    +0.000 C 
ATOM      9  O   UNL     1       1.084   6.519  21.440  0.00  0.00    +0.000 OA
ATOM     10  N   UNL     1       2.202   6.777  19.354  0.00  0.00    +0.000 N 
ENDROOT
BRANCH  10  11
ATOM     11  C   UNL     1       1.924   8.140  19.050  0.00  0.00    +0.000 A 
ATOM     12  C   UNL     1       1.194   8.944  19.940  0.00  0.00    +0.000 A 
ATOM     13  C   UNL     1       0.961  10.299  19.680  0.00  0.00    +0.000 A 
ATOM     14  C   UNL     1       1.448  10.872  18.512  0.00  0.00    +0.000 A 
ATOM     15  C   UNL     1       2.164  10.091  17.610  0.00  0.00    +0.000 A 
ATOM     16  C   UNL     1       2.406   8.738  17.878  0.00  0.00    +0.000 A 
ENDBRANCH  10  11
BRANCH   1  17
ATOM     17  N   UNL     1       4.225   6.383  18.198  0.00  0.00    +0.000 N 
ATOM     18  H   UNL     1       4.191   7.385  18.060  0.00  0.00    +0.000 HD
BRANCH  17  23
ATOM     19  C   UNL     1       6.105   5.138  15.272  0.00  0.00    +0.000 A 
ATOM     20  C   UNL     1       7.264   4.637  15.843  0.00  0.00    +0.000 A 
ATOM     21  C   UNL     1       7.444   4.691  17.223  0.00  0.00    +0.000 A 
ATOM     22  C   UNL     1       6.449   5.218  18.066  0.00  0.00    +0.000 A 
ATOM     23  C   UNL     1       5.258   5.741  17.512  0.00  0.00    +0.000 A 
ATOM     24  C   UNL     1       5.132   5.706  16.101  0.00  0.00    +0.000 A 
BRANCH  19  26
ATOM     25  C   UNL     1       5.917   3.690  13.394  0.00  0.00    +0.000 C 
ATOM     26  O   UNL     1       6.043   5.006  13.913  0.00  0.00    +0.000 OA
ENDBRANCH  19  26
BRANCH  22  27
ATOM     27  O   UNL     1       6.607   5.251  19.431  0.00  0.00    +0.000 OA
ATOM     28  C   UNL     1       7.923   5.536  19.904  0.00  0.00    +0.000 C 
ENDBRANCH  22  27
ENDBRANCH  17  23
ENDBRANCH   1  17
TORSDOF 5
ENDMDL
MODEL 2
REMARK VINA RESULT:      -7.7      2.363      6.838
REMARK  Name = 
REMARK  7 active torsions:
REMARK  status: ('A' for Active; 'I' for Inactive)
REMARK    1  A    between atoms: C_1  and  O_2
REMARK    2  A    between atoms: O_2  and  C_3
REMARK    3  A    between atoms: C_6  and  O_7
REMARK    4  A    between atoms: O_7  and  C_8
REMARK    5  A    between atoms: C_9  and  N_10
REMARK    6  A    between atoms: N_10  and  C_11
REMARK    7  A    between atoms: N_20  and  C_21
REMARK                            x       y       z     vdW  Elec       q    Type
REMARK                         _______ _______ _______ _____ _____    ______ ____
ROOT
ATOM      1  C   UNL     1       5.744   4.047  15.444  0.00  0.00    +0.000 C 
ATOM      2  C   UNL     1       5.720   3.754  13.946  0.00  0.00    +0.000 A 
ATOM      3  N   UNL     1       4.834   2.995  13.260  0.00  0.00    +0.000 NA
ATOM      4  C   UNL     1       5.035   2.929  11.919  0.00  0.00    +0.000 A 
ATOM      5  C   UNL     1       6.086   3.551  11.245  0.00  0.00    +0.000 A 
ATOM      6  C   UNL     1       6.992   4.308  11.976  0.00  0.00    +0.000 A 
ATOM      7  C   UNL     1       6.773   4.404  13.336  0.00  0.00    +0.000 A 
ATOM      8  C   UNL     1       7.503   5.172  14.329  0.00  0.00    +0.000 C 
ATOM      9  O   UNL     1       8.508   5.792  14.030  0.00  0.00    +0.000 OA
ATOM     10  N   UNL     1       6.851   5.015  15.553  0.00  0.00    +0.000 N 
ENDROOT
BRANCH  10  11
ATOM     11  C   UNL     1       7.260   5.644  16.763  0.00  0.00    +0.000 A 
ATOM     12  C   UNL     1       7.627   4.882  17.884  0.00  0.00    +0.000 A 
ATOM     13  C   UNL     1       8.084   5.485  19.061  0.00  0.00    +0.000 A 
ATOM     14  C   UNL     1       8.170   6.869  19.141  0.00  0.00    +0.000 A 
ATOM     15  C   UNL     1       7.800   7.644  18.046  0.00  0.00    +0.000 A 
ATOM     16  C   UNL     1       7.354   7.038  16.865  0.00  0.00    +0.000 A 
ENDBRANCH  10  11
BRANCH   1  17
ATOM     17  N   UNL     1       4.529   4.716  15.877  0.00  0.00    +0.000 N 
ATOM     18  H   UNL     1       4.328   5.520  15.296  0.00  0.00    +0.000 HD
BRANCH  17  23
ATOM     19  C   UNL     1       3.657   3.574  19.279  0.00  0.00    +0.000 A 
ATOM     20  C   UNL     1       3.332   4.756  19.926  0.00  0.00    +0.000 A 
ATOM     21  C   UNL     1       3.384   5.966  19.239  0.00  0.00    +0.000 A 
ATOM     22  C   UNL     1       3.730   6.014  17.876  0.00  0.00    +0.000 A 
ATOM     23  C   UNL     1       4.073   4.825  17.192  0.00  0.00    +0.000 A 
ATOM     24  C   UNL     1       4.049   3.620  17.937  0.00  0.00    +0.000 A 
BRANCH  19  26
ATOM     25  C   UNL     1       2.721   2.549  21.211  0.00  0.00    +0.000 C 
ATOM     26  O   UNL     1       3.547   2.457  20.059  0.00  0.00    +0.000 OA
ENDBRANCH  19  26
BRANCH  22  27
ATOM     27  O   UNL     1       3.758   7.201  17.184  0.00  0.00    +0.000 OA
ATOM     28  C   UNL     1       2.937   8.248  17.696  0.00  0.00    +0.000 C 
ENDBRANCH  22  27
ENDBRANCH  17  23
ENDBRANCH   1  17
TORSDOF 5
ENDMDL
MODEL 3
REMARK VINA RESULT:      -7.7      0.848      1.350
REMARK  Name = 
REMARK  7 active torsions:
REMARK  status: ('A' for Active; 'I' for Inactive)
REMARK    1  A    between atoms: C_1  and  O_2
REMARK    2  A    between atoms: O_2  and  C_3
REMARK    3  A    between atoms: C_6  and  O_7
REMARK    4  A    between atoms: O_7  and  C_8
REMARK    5  A    between atoms: C_9  and  N_10
REMARK    6  A    between atoms: N_10  and  C_11
REMARK    7  A    between atoms: N_20  and  C_21
REMARK                            x       y       z     vdW  Elec       q    Type
REMARK                         _______ _______ _______ _____ _____    ______ ____
ROOT
ATOM      1  C   UNL     1       2.767   5.690  17.713  0.00  0.00    +0.000 C 
ATOM      2  C   UNL     1       3.002   4.239  18.127  0.00  0.00    +0.000 A 
ATOM      3  N   UNL     1       3.551   3.242  17.394  0.00  0.00    +0.000 NA
ATOM      4  C   UNL     1       3.667   2.046  18.027  0.00  0.00    +0.000 A 
ATOM      5  C   UNL     1       3.236   1.796  19.329  0.00  0.00    +0.000 A 
ATOM      6  C   UNL     1       2.659   2.831  20.052  0.00  0.00    +0.000 A 
ATOM      7  C   UNL     1       2.568   4.058  19.423  0.00  0.00    +0.000 A 
ATOM      8  C   UNL     1       2.083   5.322  19.949  0.00  0.00    +0.000 C 
ATOM      9  O   UNL     1       1.601   5.396  21.065  0.00  0.00    +0.000 OA
ATOM     10  N   UNL     1       2.269   6.293  18.963  0.00  0.00    +0.000 N 
ENDROOT
BRANCH  10  11
ATOM     11  C   UNL     1       1.937   7.668  19.122  0.00  0.00    +0.000 A 
ATOM     12  C   UNL     1       1.972   8.550  18.030  0.00  0.00    +0.000 A 
ATOM     13  C   UNL     1       1.596   9.891  18.161  0.00  0.00    +0.000 A 
ATOM     14  C   UNL     1       1.187  10.377  19.396  0.00  0.00    +0.000 A 
ATOM     15  C   UNL     1       1.156   9.524  20.494  0.00  0.00    +0.000 A 
ATOM     16  C   UNL     1       1.523   8.179  20.359  0.00  0.00    +0.000 A 
ENDBRANCH  10  11
BRANCH   1  17
ATOM     17  N   UNL     1       4.012   6.355  17.368  0.00  0.00    +0.000 N 
ATOM     18  H   UNL     1       3.840   7.261  16.951  0.00  0.00    +0.000 HD
BRANCH  17  23
ATOM     19  C   UNL     1       6.432   4.981  14.940  0.00  0.00    +0.000 A 
ATOM     20  C   UNL     1       7.508   4.634  15.742  0.00  0.00    +0.000 A 
ATOM     21  C   UNL     1       7.450   4.840  17.118  0.00  0.00    +0.000 A 
ATOM     22  C   UNL     1       6.295   5.365  17.726  0.00  0.00    +0.000 A 
ATOM     23  C   UNL     1       5.184   5.734  16.933  0.00  0.00    +0.000 A 
ATOM     24  C   UNL     1       5.300   5.549  15.533  0.00  0.00    +0.000 A 
BRANCH  19  26
ATOM     25  C   UNL     1       5.965   3.555  13.094  0.00  0.00    +0.000 C 
ATOM     26  O   UNL     1       6.609   4.710  13.612  0.00  0.00    +0.000 OA
ENDBRANCH  19  26
BRANCH  22  27
ATOM     27  O   UNL     1       6.219   5.547  19.086  0.00  0.00    +0.000 OA
ATOM     28  C   UNL     1       7.463   5.622  19.781  0.00  0.00    +0.000 C 
ENDBRANCH  22  27
ENDBRANCH  17  23
ENDBRANCH   1  17
TORSDOF 5
ENDMDL
MODEL 4
REMARK VINA RESULT:      -7.6      2.389      6.817
REMARK  Name = 
REMARK  7 active torsions:
REMARK  status: ('A' for Active; 'I' for Inactive)
REMARK    1  A    between atoms: C_1  and  O_2
REMARK    2  A    between atoms: O_2  and  C_3
REMARK    3  A    between atoms: C_6  and  O_7
REMARK    4  A    between atoms: O_7  and  C_8
REMARK    5  A    between atoms: C_9  and  N_10
REMARK    6  A    between atoms: N_10  and  C_11
REMARK    7  A    between atoms: N_20  and  C_21
REMARK                            x       y       z     vdW  Elec       q    Type
REMARK                         _______ _______ _______ _____ _____    ______ ____
ROOT
ATOM      1  C   UNL     1       5.693   4.119  15.419  0.00  0.00    +0.000 C 
ATOM      2  C   UNL     1       5.634   3.840  13.919  0.00  0.00    +0.000 A 
ATOM      3  N   UNL     1       4.699   3.138  13.239  0.00  0.00    +0.000 NA
ATOM      4  C   UNL     1       4.879   3.072  11.894  0.00  0.00    +0.000 A 
ATOM      5  C   UNL     1       5.955   3.639  11.212  0.00  0.00    +0.000 A 
ATOM      6  C   UNL     1       6.911   4.337  11.937  0.00  0.00    +0.000 A 
ATOM      7  C   UNL     1       6.714   4.434  13.301  0.00  0.00    +0.000 A 
ATOM      8  C   UNL     1       7.499   5.152  14.290  0.00  0.00    +0.000 C 
ATOM      9  O   UNL     1       8.534   5.717  13.983  0.00  0.00    +0.000 OA
ATOM     10  N   UNL     1       6.854   5.022  15.521  0.00  0.00    +0.000 N 
ENDROOT
BRANCH  10  11
ATOM     11  C   UNL     1       7.313   5.617  16.731  0.00  0.00    +0.000 A 
ATOM     12  C   UNL     1       7.430   7.011  16.851  0.00  0.00    +0.000 A 
ATOM     13  C   UNL     1       7.827   7.611  18.050  0.00  0.00    +0.000 A 
ATOM     14  C   UNL     1       8.126   6.822  19.153  0.00  0.00    +0.000 A 
ATOM     15  C   UNL     1       8.029   5.437  19.053  0.00  0.00    +0.000 A 
ATOM     16  C   UNL     1       7.621   4.838  17.854  0.00  0.00    +0.000 A 
ENDBRANCH  10  11
BRANCH   1  17
ATOM     17  N   UNL     1       4.523   4.851  15.872  0.00  0.00    +0.000 N 
ATOM     18  H   UNL     1       4.406   5.711  15.351  0.00  0.00    +0.000 HD
BRANCH  17  23
ATOM     19  C   UNL     1       3.572   3.549  19.195  0.00  0.00    +0.000 A 
ATOM     20  C   UNL     1       3.232   4.700  19.889  0.00  0.00    +0.000 A 
ATOM     21  C   UNL     1       3.300   5.942  19.262  0.00  0.00    +0.000 A 
ATOM     22  C   UNL     1       3.677   6.054  17.911  0.00  0.00    +0.000 A 
ATOM     23  C   UNL     1       4.036   4.898  17.179  0.00  0.00    +0.000 A 
ATOM     24  C   UNL     1       3.995   3.659  17.866  0.00  0.00    +0.000 A 
BRANCH  19  26
ATOM     25  C   UNL     1       4.633   1.824  20.443  0.00  0.00    +0.000 C 
ATOM     26  O   UNL     1       3.444   2.396  19.918  0.00  0.00    +0.000 OA
ENDBRANCH  19  26
BRANCH  22  27
ATOM     27  O   UNL     1       3.722   7.272  17.277  0.00  0.00    +0.000 OA
ATOM     28  C   UNL     1       2.788   8.251  17.729  0.00  0.00    +0.000 C 
ENDBRANCH  22  27
ENDBRANCH  17  23
ENDBRANCH   1  17
TORSDOF 5
ENDMDL
MODEL 5
REMARK VINA RESULT:      -7.5      2.268      6.813
REMARK  Name = 
REMARK  7 active torsions:
REMARK  status: ('A' for Active; 'I' for Inactive)
REMARK    1  A    between atoms: C_1  and  O_2
REMARK    2  A    between atoms: O_2  and  C_3
REMARK    3  A    between atoms: C_6  and  O_7
REMARK    4  A    between atoms: O_7  and  C_8
REMARK    5  A    between atoms: C_9  and  N_10
REMARK    6  A    between atoms: N_10  and  C_11
REMARK    7  A    between atoms: N_20  and  C_21
REMARK                            x       y       z     vdW  Elec       q    Type
REMARK                         _______ _______ _______ _____ _____    ______ ____
ROOT
ATOM      1  C   UNL     1       5.702   4.122  15.424  0.00  0.00    +0.000 C 
ATOM      2  C   UNL     1       5.696   3.802  13.931  0.00  0.00    +0.000 A 
ATOM      3  N   UNL     1       4.796   3.066  13.241  0.00  0.00    +0.000 NA
ATOM      4  C   UNL     1       5.021   2.966  11.905  0.00  0.00    +0.000 A 
ATOM      5  C   UNL     1       6.110   3.534  11.243  0.00  0.00    +0.000 A 
ATOM      6  C   UNL     1       7.030   4.268  11.978  0.00  0.00    +0.000 A 
ATOM      7  C   UNL     1       6.786   4.399  13.332  0.00  0.00    +0.000 A 
ATOM      8  C   UNL     1       7.526   5.157  14.326  0.00  0.00    +0.000 C 
ATOM      9  O   UNL     1       8.561   5.731  14.038  0.00  0.00    +0.000 OA
ATOM     10  N   UNL     1       6.843   5.049  15.539  0.00  0.00    +0.000 N 
ENDROOT
BRANCH  10  11
ATOM     11  C   UNL     1       7.252   5.683  16.746  0.00  0.00    +0.000 A 
ATOM     12  C   UNL     1       7.577   4.928  17.885  0.00  0.00    +0.000 A 
ATOM     13  C   UNL     1       8.033   5.536  19.059  0.00  0.00    +0.000 A 
ATOM     14  C   UNL     1       8.160   6.917  19.119  0.00  0.00    +0.000 A 
ATOM     15  C   UNL     1       7.833   7.686  18.006  0.00  0.00    +0.000 A 
ATOM     16  C   UNL     1       7.387   7.075  16.827  0.00  0.00    +0.000 A 
ENDBRANCH  10  11
BRANCH   1  17
ATOM     17  N   UNL     1       4.505   4.846  15.818  0.00  0.00    +0.000 N 
ATOM     18  H   UNL     1       4.407   5.705  15.292  0.00  0.00    +0.000 HD
BRANCH  17  23
ATOM     19  C   UNL     1       2.917   6.366  18.786  0.00  0.00    +0.000 A 
ATOM     20  C   UNL     1       2.668   5.270  19.597  0.00  0.00    +0.000 A 
ATOM     21  C   UNL     1       3.036   3.993  19.179  0.00  0.00    +0.000 A 
ATOM     22  C   UNL     1       3.694   3.791  17.951  0.00  0.00    +0.000 A 
ATOM     23  C   UNL     1       3.955   4.890  17.101  0.00  0.00    +0.000 A 
ATOM     24  C   UNL     1       3.527   6.167  17.543  0.00  0.00    +0.000 A 
BRANCH  19  26
ATOM     25  C   UNL     1       2.033   8.544  18.421  0.00  0.00    +0.000 C 
ATOM     26  O   UNL     1       2.525   7.562  19.321  0.00  0.00    +0.000 OA
ENDBRANCH  19  26
BRANCH  22  27
ATOM     27  O   UNL     1       4.083   2.539  17.543  0.00  0.00    +0.000 OA
ATOM     28  C   UNL     1       3.639   1.448  18.348  0.00  0.00    +0.000 C 
ENDBRANCH  22  27
ENDBRANCH  17  23
ENDBRANCH   1  17
TORSDOF 5
ENDMDL
MODEL 6
REMARK VINA RESULT:      -7.4      1.838      4.980
REMARK  Name = 
REMARK  7 active torsions:
REMARK  status: ('A' for Active; 'I' for Inactive)
REMARK    1  A    between atoms: C_1  and  O_2
REMARK    2  A    between atoms: O_2  and  C_3
REMARK    3  A    between atoms: C_6  and  O_7
REMARK    4  A    between atoms: O_7  and  C_8
REMARK    5  A    between atoms: C_9  and  N_10
REMARK    6  A    between atoms: N_10  and  C_11
REMARK    7  A    between atoms: N_20  and  C_21
REMARK                            x       y       z     vdW  Elec       q    Type
REMARK                         _______ _______ _______ _____ _____    ______ ____
ROOT
ATOM      1  C   UNL     1       2.738   7.062  19.183  0.00  0.00    +0.000 C 
ATOM      2  C   UNL     1       2.241   8.489  18.965  0.00  0.00    +0.000 A 
ATOM      3  N   UNL     1       2.754   9.434  18.144  0.00  0.00    +0.000 NA
ATOM      4  C   UNL     1       2.090  10.618  18.126  0.00  0.00    +0.000 A 
ATOM      5  C   UNL     1       0.971  10.909  18.906  0.00  0.00    +0.000 A 
ATOM      6  C   UNL     1       0.477   9.928  19.756  0.00  0.00    +0.000 A 
ATOM      7  C   UNL     1       1.131   8.711  19.753  0.00  0.00    +0.000 A 
ATOM      8  C   UNL     1       0.802   7.494  20.474  0.00  0.00    +0.000 C 
ATOM      9  O   UNL     1      -0.117   7.465  21.273  0.00  0.00    +0.000 OA
ATOM     10  N   UNL     1       1.708   6.508  20.080  0.00  0.00    +0.000 N 
ENDROOT
BRANCH  10  11
ATOM     11  C   UNL     1       1.685   5.166  20.555  0.00  0.00    +0.000 A 
ATOM     12  C   UNL     1       0.713   4.257  20.105  0.00  0.00    +0.000 A 
ATOM     13  C   UNL     1       0.712   2.922  20.521  0.00  0.00    +0.000 A 
ATOM     14  C   UNL     1       1.682   2.473  21.408  0.00  0.00    +0.000 A 
ATOM     15  C   UNL     1       2.647   3.359  21.876  0.00  0.00    +0.000 A 
ATOM     16  C   UNL     1       2.654   4.693  21.450  0.00  0.00    +0.000 A 
ENDBRANCH  10  11
BRANCH   1  17
ATOM     17  N   UNL     1       2.709   6.294  17.950  0.00  0.00    +0.000 N 
ATOM     18  H   UNL     1       1.820   5.824  17.833  0.00  0.00    +0.000 HD
BRANCH  17  23
ATOM     19  C   UNL     1       6.165   5.857  16.723  0.00  0.00    +0.000 A 
ATOM     20  C   UNL     1       6.192   4.523  16.350  0.00  0.00    +0.000 A 
ATOM     21  C   UNL     1       5.052   3.735  16.487  0.00  0.00    +0.000 A 
ATOM     22  C   UNL     1       3.847   4.278  16.970  0.00  0.00    +0.000 A 
ATOM     23  C   UNL     1       3.791   5.635  17.364  0.00  0.00    +0.000 A 
ATOM     24  C   UNL     1       4.984   6.391  17.249  0.00  0.00    +0.000 A 
BRANCH  19  26
ATOM     25  C   UNL     1       7.665   7.563  17.432  0.00  0.00    +0.000 C 
ATOM     26  O   UNL     1       7.342   6.523  16.520  0.00  0.00    +0.000 OA
ENDBRANCH  19  26
BRANCH  22  27
ATOM     27  O   UNL     1       2.710   3.514  17.084  0.00  0.00    +0.000 OA
ATOM     28  C   UNL     1       2.861   2.255  17.738  0.00  0.00    +0.000 C 
ENDBRANCH  22  27
ENDBRANCH  17  23
ENDBRANCH   1  17
TORSDOF 5
ENDMDL
MODEL 7
REMARK VINA RESULT:      -7.3      1.060      2.987
REMARK  Name = 
REMARK  7 active torsions:
REMARK  status: ('A' for Active; 'I' for Inactive)
REMARK    1  A    between atoms: C_1  and  O_2
REMARK    2  A    between atoms: O_2  and  C_3
REMARK    3  A    between atoms: C_6  and  O_7
REMARK    4  A    between atoms: O_7  and  C_8
REMARK    5  A    between atoms: C_9  and  N_10
REMARK    6  A    between atoms: N_10  and  C_11
REMARK    7  A    between atoms: N_20  and  C_21
REMARK                            x       y       z     vdW  Elec       q    Type
REMARK                         _______ _______ _______ _____ _____    ______ ____
ROOT
ATOM      1  C   UNL     1       2.600   5.616  17.689  0.00  0.00    +0.000 C 
ATOM      2  C   UNL     1       2.890   4.166  18.070  0.00  0.00    +0.000 A 
ATOM      3  N   UNL     1       3.371   3.178  17.281  0.00  0.00    +0.000 NA
ATOM      4  C   UNL     1       3.562   1.980  17.893  0.00  0.00    +0.000 A 
ATOM      5  C   UNL     1       3.268   1.720  19.231  0.00  0.00    +0.000 A 
ATOM      6  C   UNL     1       2.757   2.747  20.014  0.00  0.00    +0.000 A 
ATOM      7  C   UNL     1       2.591   3.975  19.403  0.00  0.00    +0.000 A 
ATOM      8  C   UNL     1       2.151   5.232  19.982  0.00  0.00    +0.000 C 
ATOM      9  O   UNL     1       1.784   5.298  21.142  0.00  0.00    +0.000 OA
ATOM     10  N   UNL     1       2.226   6.209  18.987  0.00  0.00    +0.000 N 
ENDROOT
BRANCH  10  11
ATOM     11  C   UNL     1       1.899   7.580  19.186  0.00  0.00    +0.000 A 
ATOM     12  C   UNL     1       1.888   8.483  18.110  0.00  0.00    +0.000 A 
ATOM     13  C   UNL     1       1.515   9.820  18.281  0.00  0.00    +0.000 A 
ATOM     14  C   UNL     1       1.157  10.282  19.541  0.00  0.00    +0.000 A 
ATOM     15  C   UNL     1       1.173   9.408  20.624  0.00  0.00    +0.000 A 
ATOM     16  C   UNL     1       1.535   8.067  20.448  0.00  0.00    +0.000 A 
ENDBRANCH  10  11
BRANCH   1  17
ATOM     17  N   UNL     1       3.797   6.294  17.223  0.00  0.00    +0.000 N 
ATOM     18  H   UNL     1       3.627   6.781  16.352  0.00  0.00    +0.000 HD
BRANCH  17  23
ATOM     19  C   UNL     1       6.892   5.437  19.048  0.00  0.00    +0.000 A 
ATOM     20  C   UNL     1       7.690   4.886  18.058  0.00  0.00    +0.000 A 
ATOM     21  C   UNL     1       7.219   4.797  16.750  0.00  0.00    +0.000 A 
ATOM     22  C   UNL     1       5.950   5.291  16.398  0.00  0.00    +0.000 A 
ATOM     23  C   UNL     1       5.112   5.853  17.389  0.00  0.00    +0.000 A 
ATOM     24  C   UNL     1       5.610   5.886  18.715  0.00  0.00    +0.000 A 
BRANCH  19  26
ATOM     25  C   UNL     1       8.835   5.074  20.372  0.00  0.00    +0.000 C 
ATOM     26  O   UNL     1       7.478   5.484  20.282  0.00  0.00    +0.000 OA
ENDBRANCH  19  26
BRANCH  22  27
ATOM     27  O   UNL     1       5.489   5.230  15.106  0.00  0.00    +0.000 OA
ATOM     28  C   UNL     1       5.933   4.118  14.331  0.00  0.00    +0.000 C 
ENDBRANCH  22  27
ENDBRANCH  17  23
ENDBRANCH   1  17
TORSDOF 5
ENDMDL
MODEL 8
REMARK VINA RESULT:      -7.2      1.921      5.746
REMARK  Name = 
REMARK  7 active torsions:
REMARK  status: ('A' for Active; 'I' for Inactive)
REMARK    1  A    between atoms: C_1  and  O_2
REMARK    2  A    between atoms: O_2  and  C_3
REMARK    3  A    between atoms: C_6  and  O_7
REMARK    4  A    between atoms: O_7  and  C_8
REMARK    5  A    between atoms: C_9  and  N_10
REMARK    6  A    between atoms: N_10  and  C_11
REMARK    7  A    between atoms: N_20  and  C_21
REMARK                            x       y       z     vdW  Elec       q    Type
REMARK                         _______ _______ _______ _____ _____    ______ ____
ROOT
ATOM      1  C   UNL     1       4.354   3.983  19.167  0.00  0.00    +0.000 C 
ATOM      2  C   UNL     1       3.009   3.549  19.743  0.00  0.00    +0.000 A 
ATOM      3  N   UNL     1       2.581   3.644  21.023  0.00  0.00    +0.000 NA
ATOM      4  C   UNL     1       1.317   3.203  21.253  0.00  0.00    +0.000 A 
ATOM      5  C   UNL     1       0.484   2.648  20.281  0.00  0.00    +0.000 A 
ATOM      6  C   UNL     1       0.955   2.544  18.980  0.00  0.00    +0.000 A 
ATOM      7  C   UNL     1       2.229   3.021  18.735  0.00  0.00    +0.000 A 
ATOM      8  C   UNL     1       2.947   3.107  17.476  0.00  0.00    +0.000 C 
ATOM      9  O   UNL     1       2.474   2.655  16.449  0.00  0.00    +0.000 OA
ATOM     10  N   UNL     1       4.167   3.739  17.725  0.00  0.00    +0.000 N 
ENDROOT
BRANCH  10  11
ATOM     11  C   UNL     1       5.137   4.028  16.723  0.00  0.00    +0.000 A 
ATOM     12  C   UNL     1       4.755   4.239  15.388  0.00  0.00    +0.000 A 
ATOM     13  C   UNL     1       5.690   4.578  14.405  0.00  0.00    +0.000 A 
ATOM     14  C   UNL     1       7.033   4.700  14.739  0.00  0.00    +0.000 A 
ATOM     15  C   UNL     1       7.435   4.483  16.054  0.00  0.00    +0.000 A 
ATOM     16  C   UNL     1       6.496   4.155  17.040  0.00  0.00    +0.000 A 
ENDBRANCH  10  11
BRANCH   1  17
ATOM     17  N   UNL     1       4.577   5.407  19.348  0.00  0.00    +0.000 N 
ATOM     18  H   UNL     1       5.178   5.585  20.143  0.00  0.00    +0.000 HD
BRANCH  17  23
ATOM     19  C   UNL     1       1.773   7.718  20.008  0.00  0.00    +0.000 A 
ATOM     20  C   UNL     1       1.771   8.528  18.884  0.00  0.00    +0.000 A 
ATOM     21  C   UNL     1       2.700   8.316  17.868  0.00  0.00    +0.000 A 
ATOM     22  C   UNL     1       3.631   7.263  17.942  0.00  0.00    +0.000 A 
ATOM     23  C   UNL     1       3.660   6.425  19.080  0.00  0.00    +0.000 A 
ATOM     24  C   UNL     1       2.726   6.700  20.110  0.00  0.00    +0.000 A 
BRANCH  19  26
ATOM     25  C   UNL     1       0.451   9.387  21.070  0.00  0.00    +0.000 C 
ATOM     26  O   UNL     1       0.799   8.018  20.920  0.00  0.00    +0.000 OA
ENDBRANCH  19  26
BRANCH  22  27
ATOM     27  O   UNL     1       4.534   7.031  16.932  0.00  0.00    +0.000 OA
ATOM     28  C   UNL     1       5.829   7.603  17.103  0.00  0.00    +0.000 C 
ENDBRANCH  22  27
ENDBRANCH  17  23
ENDBRANCH   1  17
TORSDOF 5
ENDMDL
MODEL 9
REMARK VINA RESULT:      -7.2      2.149      6.332
REMARK  Name = 
REMARK  7 active torsions:
REMARK  status: ('A' for Active; 'I' for Inactive)
REMARK    1  A    between atoms: C_1  and  O_2
REMARK    2  A    between atoms: O_2  and  C_3
REMARK    3  A    between atoms: C_6  and  O_7
REMARK    4  A    between atoms: O_7  and  C_8
REMARK    5  A    between atoms: C_9  and  N_10
REMARK    6  A    between atoms: N_10  and  C_11
REMARK    7  A    between atoms: N_20  and  C_21
REMARK                            x       y       z     vdW  Elec       q    Type
REMARK                         _______ _______ _______ _____ _____    ______ ____
ROOT
ATOM      1  C   UNL     1       3.199   5.664  19.526  0.00  0.00    +0.000 C 
ATOM      2  C   UNL     1       2.205   4.507  19.452  0.00  0.00    +0.000 A 
ATOM      3  N   UNL     1       0.938   4.466  19.924  0.00  0.00    +0.000 NA
ATOM      4  C   UNL     1       0.264   3.309  19.693  0.00  0.00    +0.000 A 
ATOM      5  C   UNL     1       0.803   2.196  19.049  0.00  0.00    +0.000 A 
ATOM      6  C   UNL     1       2.112   2.258  18.591  0.00  0.00    +0.000 A 
ATOM      7  C   UNL     1       2.790   3.444  18.796  0.00  0.00    +0.000 A 
ATOM      8  C   UNL     1       4.127   3.819  18.369  0.00  0.00    +0.000 C 
ATOM      9  O   UNL     1       4.857   3.020  17.810  0.00  0.00    +0.000 OA
ATOM     10  N   UNL     1       4.334   5.150  18.738  0.00  0.00    +0.000 N 
ENDROOT
BRANCH  10  11
ATOM     11  C   UNL     1       5.525   5.879  18.463  0.00  0.00    +0.000 A 
ATOM     12  C   UNL     1       6.698   5.652  19.201  0.00  0.00    +0.000 A 
ATOM     13  C   UNL     1       7.890   6.323  18.905  0.00  0.00    +0.000 A 
ATOM     14  C   UNL     1       7.925   7.246  17.868  0.00  0.00    +0.000 A 
ATOM     15  C   UNL     1       6.771   7.496  17.131  0.00  0.00    +0.000 A 
ATOM     16  C   UNL     1       5.582   6.815  17.421  0.00  0.00    +0.000 A 
ENDBRANCH  10  11
BRANCH   1  17
ATOM     17  N   UNL     1       2.692   6.846  18.848  0.00  0.00    +0.000 N 
ATOM     18  H   UNL     1       3.328   7.152  18.123  0.00  0.00    +0.000 HD
BRANCH  17  23
ATOM     19  C   UNL     1       0.718   8.553  21.462  0.00  0.00    +0.000 A 
ATOM     20  C   UNL     1       0.515   9.813  20.919  0.00  0.00    +0.000 A 
ATOM     21  C   UNL     1       1.023  10.122  19.659  0.00  0.00    +0.000 A 
ATOM     22  C   UNL     1       1.716   9.162  18.899  0.00  0.00    +0.000 A 
ATOM     23  C   UNL     1       1.944   7.871  19.430  0.00  0.00    +0.000 A 
ATOM     24  C   UNL     1       1.448   7.610  20.732  0.00  0.00    +0.000 A 
BRANCH  19  26
ATOM     25  C   UNL     1      -0.253   9.537  23.397  0.00  0.00    +0.000 C 
ATOM     26  O   UNL     1       0.152   8.373  22.693  0.00  0.00    +0.000 OA
ENDBRANCH  19  26
BRANCH  22  27
ATOM     27  O   UNL     1       2.198   9.451  17.646  0.00  0.00    +0.000 OA
ATOM     28  C   UNL     1       2.584  10.804  17.416  0.00  0.00    +0.000 C 
ENDBRANCH  22  27
ENDBRANCH  17  23
ENDBRANCH   1  17
TORSDOF 5
ENDMDL
