MODEL 1
REMARK VINA RESULT:      -9.4      0.000      0.000
REMARK  Name = 
REMARK  7 active torsions:
REMARK  status: ('A' for Active; 'I' for Inactive)
REMARK    1  A    between atoms: C_2  and  O_3
REMARK    2  A    between atoms: C_2  and  C_4
REMARK    3  A    between atoms: C_5  and  C_6
REMARK    4  A    between atoms: C_6  and  C_7
REMARK    5  A    between atoms: C_7  and  C_8
REMARK    6  A    between atoms: C_8  and  O_9
REMARK    7  A    between atoms: O_9  and  C_10
REMARK                            x       y       z     vdW  Elec       q    Type
REMARK                         _______ _______ _______ _____ _____    ______ ____
ROOT
ATOM      1  C   UNL     1       6.292   5.434  17.912  0.00  0.00    +0.000 A 
ATOM      2  C   UNL     1       5.996   6.765  17.543  0.00  0.00    +0.000 A 
ATOM      3  C   UNL     1       4.570   6.956  17.673  0.00  0.00    +0.000 A 
ATOM      4  C   UNL     1       3.641   8.025  17.539  0.00  0.00    +0.000 A 
ATOM      5  C   UNL     1       2.263   7.827  17.798  0.00  0.00    +0.000 A 
ATOM      6  C   UNL     1       1.784   6.580  18.145  0.00  0.00    +0.000 A 
ATOM      7  C   UNL     1       2.686   5.530  18.204  0.00  0.00    +0.000 A 
ATOM      8  C   UNL     1       4.052   5.723  18.007  0.00  0.00    +0.000 A 
ATOM      9  N   UNL     1       5.075   4.808  18.117  0.00  0.00    +0.000 N 
ATOM     10  C   UNL     1       4.831   3.405  18.483  0.00  0.00    +0.000 C 
ATOM     11  C   UNL     1       3.579   3.253  19.354  0.00  0.00    +0.000 C 
ATOM     12  S   UNL     1       2.126   3.945  18.629  0.00  0.00    +0.000 S 
ATOM     13  O   UNL     1       1.139   4.107  19.678  0.00  0.00    +0.000 OA
ATOM     14  O   UNL     1       1.847   3.259  17.388  0.00  0.00    +0.000 OA
ENDROOT
BRANCH   1  16
ATOM     15  O   UNL     1       8.288   4.658  18.929  0.00  0.00    +0.000 OA
ATOM     16  C   UNL     1       7.553   4.703  17.957  0.00  0.00    +0.000 C 
BRANCH  16  17
ATOM     17  O   UNL     1       7.906   4.120  16.785  0.00  0.00    +0.000 OA
ATOM     18  H   UNL     1       8.579   3.417  16.842  0.00  0.00    +0.000 HD
ENDBRANCH  16  17
ENDBRANCH   1  16
BRANCH   2  19
ATOM     19  C   UNL     1       6.939   7.844  17.062  0.00  0.00    +0.000 C 
BRANCH  19  20
ATOM     20  C   UNL     1       8.079   8.125  18.022  0.00  0.00    +0.000 C 
BRANCH  20  21
ATOM     21  C   UNL     1       8.431   9.569  18.243  0.00  0.00    +0.000 C 
BRANCH  21  22
ATOM     22  O   UNL     1       9.353   9.632  19.326  0.00  0.00    +0.000 OA
BRANCH  22  23
ATOM     23  C   UNL     1       9.681  10.906  19.708  0.00  0.00    +0.000 A 
ATOM     24  C   UNL     1       9.150  11.235  20.991  0.00  0.00    +0.000 A 
ATOM     25  C   UNL     1       9.604  12.365  21.627  0.00  0.00    +0.000 A 
ATOM     26  C   UNL     1      10.090  13.347  20.799  0.00  0.00    +0.000 A 
ATOM     27  C   UNL     1      10.282  13.116  19.420  0.00  0.00    +0.000 A 
ATOM     28  C   UNL     1      10.556  14.193  18.592  0.00  0.00    +0.000 A 
ATOM     29  C   UNL     1      10.807  14.034  17.217  0.00  0.00    +0.000 A 
ATOM     30  C   UNL     1      11.746  13.106  16.859  0.00  0.00    +0.000 A 
ATOM     31  C   UNL     1      11.241  11.986  17.563  0.00  0.00    +0.000 A 
ATOM     32  C   UNL     1      10.410  11.876  18.875  0.00  0.00    +0.000 A 
ENDBRANCH  22  23
ENDBRANCH  21  22
ENDBRANCH  20  21
ENDBRANCH  19  20
ENDBRANCH   2  19
TORSDOF 7
ENDMDL
MODEL 2
REMARK VINA RESULT:      -8.9      5.457      7.978
REMARK  Name = 
REMARK  7 active torsions:
REMARK  status: ('A' for Active; 'I' for Inactive)
REMARK    1  A    between atoms: C_2  and  O_3
REMARK    2  A    between atoms: C_2  and  C_4
REMARK    3  A    between atoms: C_5  and  C_6
REMARK    4  A    between atoms: C_6  and  C_7
REMARK    5  A    between atoms: C_7  and  C_8
REMARK    6  A    between atoms: C_8  and  O_9
REMARK    7  A    between atoms: O_9  and  C_10
REMARK                            x       y       z     vdW  Elec       q    Type
REMARK                         _______ _______ _______ _____ _____    ______ ____
ROOT
ATOM      1  C   UNL     1       2.191   4.631  20.375  0.00  0.00    +0.000 A 
ATOM      2  C   UNL     1       1.857   6.000  20.266  0.00  0.00    +0.000 A 
ATOM      3  C   UNL     1       2.577   6.544  19.138  0.00  0.00    +0.000 A 
ATOM      4  C   UNL     1       2.654   7.784  18.444  0.00  0.00    +0.000 A 
ATOM      5  C   UNL     1       3.484   7.931  17.308  0.00  0.00    +0.000 A 
ATOM      6  C   UNL     1       4.271   6.885  16.870  0.00  0.00    +0.000 A 
ATOM      7  C   UNL     1       4.242   5.704  17.593  0.00  0.00    +0.000 A 
ATOM      8  C   UNL     1       3.388   5.528  18.680  0.00  0.00    +0.000 A 
ATOM      9  N   UNL     1       3.182   4.398  19.439  0.00  0.00    +0.000 N 
ATOM     10  C   UNL     1       3.896   3.139  19.174  0.00  0.00    +0.000 C 
ATOM     11  C   UNL     1       4.281   3.003  17.696  0.00  0.00    +0.000 C 
ATOM     12  S   UNL     1       5.220   4.366  17.084  0.00  0.00    +0.000 S 
ATOM     13  O   UNL     1       5.170   4.326  15.636  0.00  0.00    +0.000 OA
ATOM     14  O   UNL     1       6.459   4.454  17.823  0.00  0.00    +0.000 OA
ENDROOT
BRANCH   1  16
ATOM     15  O   UNL     1       2.392   3.309  22.333  0.00  0.00    +0.000 OA
ATOM     16  C   UNL     1       1.771   3.610  21.327  0.00  0.00    +0.000 C 
BRANCH  16  17
ATOM     17  O   UNL     1       0.648   2.940  20.972  0.00  0.00    +0.000 OA
ATOM     18  H   UNL     1      -0.190   3.433  21.056  0.00  0.00    +0.000 HD
ENDBRANCH  16  17
ENDBRANCH   1  16
BRANCH   2  19
ATOM     19  C   UNL     1       0.944   6.823  21.146  0.00  0.00    +0.000 C 
BRANCH  19  20
ATOM     20  C   UNL     1       1.470   8.217  21.429  0.00  0.00    +0.000 C 
BRANCH  20  21
ATOM     21  C   UNL     1       0.541   9.151  22.152  0.00  0.00    +0.000 C 
BRANCH  21  22
ATOM     22  O   UNL     1       0.962  10.483  21.878  0.00  0.00    +0.000 OA
BRANCH  22  23
ATOM     23  C   UNL     1       0.018  11.250  21.250  0.00  0.00    +0.000 A 
ATOM     24  C   UNL     1      -0.469  12.297  22.090  0.00  0.00    +0.000 A 
ATOM     25  C   UNL     1      -1.216  13.304  21.530  0.00  0.00    +0.000 A 
ATOM     26  C   UNL     1      -1.881  12.968  20.377  0.00  0.00    +0.000 A 
ATOM     27  C   UNL     1      -1.647  11.737  19.727  0.00  0.00    +0.000 A 
ATOM     28  C   UNL     1      -2.497  11.346  18.704  0.00  0.00    +0.000 A 
ATOM     29  C   UNL     1      -2.298  10.158  17.979  0.00  0.00    +0.000 A 
ATOM     30  C   UNL     1      -1.050   9.949  17.457  0.00  0.00    +0.000 A 
ATOM     31  C   UNL     1      -0.278  10.134  18.630  0.00  0.00    +0.000 A 
ATOM     32  C   UNL     1      -0.522  10.994  19.904  0.00  0.00    +0.000 A 
ENDBRANCH  22  23
ENDBRANCH  21  22
ENDBRANCH  20  21
ENDBRANCH  19  20
ENDBRANCH   2  19
TORSDOF 7
ENDMDL
MODEL 3
REMARK VINA RESULT:      -8.8      5.373      8.376
REMARK  Name = 
REMARK  7 active torsions:
REMARK  status: ('A' for Active; 'I' for Inactive)
REMARK    1  A    between atoms: C_2  and  O_3
REMARK    2  A    between atoms: C_2  and  C_4
REMARK    3  A    between atoms: C_5  and  C_6
REMARK    4  A    between atoms: C_6  and  C_7
REMARK    5  A    between atoms: C_7  and  C_8
REMARK    6  A    between atoms: C_8  and  O_9
REMARK    7  A    between atoms: O_9  and  C_10
REMARK                            x       y       z     vdW  Elec       q    Type
REMARK                         _______ _______ _______ _____ _____    ______ ____
ROOT
ATOM      1  C   UNL     1       2.190   4.646  20.314  0.00  0.00    +0.000 A 
ATOM      2  C   UNL     1       1.893   6.018  20.153  0.00  0.00    +0.000 A 
ATOM      3  C   UNL     1       2.687   6.519  19.056  0.00  0.00    +0.000 A 
ATOM      4  C   UNL     1       2.829   7.740  18.339  0.00  0.00    +0.000 A 
ATOM      5  C   UNL     1       3.724   7.843  17.248  0.00  0.00    +0.000 A 
ATOM      6  C   UNL     1       4.512   6.771  16.881  0.00  0.00    +0.000 A 
ATOM      7  C   UNL     1       4.418   5.608  17.628  0.00  0.00    +0.000 A 
ATOM      8  C   UNL     1       3.501   5.476  18.669  0.00  0.00    +0.000 A 
ATOM      9  N   UNL     1       3.228   4.370  19.441  0.00  0.00    +0.000 N 
ATOM     10  C   UNL     1       3.928   3.091  19.247  0.00  0.00    +0.000 C 
ATOM     11  C   UNL     1       4.393   2.911  17.798  0.00  0.00    +0.000 C 
ATOM     12  S   UNL     1       5.394   4.239  17.207  0.00  0.00    +0.000 S 
ATOM     13  O   UNL     1       5.425   4.164  15.761  0.00  0.00    +0.000 OA
ATOM     14  O   UNL     1       6.591   4.321  18.014  0.00  0.00    +0.000 OA
ENDROOT
BRANCH   1  16
ATOM     15  O   UNL     1       2.248   3.375  22.315  0.00  0.00    +0.000 OA
ATOM     16  C   UNL     1       1.696   3.657  21.264  0.00  0.00    +0.000 C 
BRANCH  16  17
ATOM     17  O   UNL     1       0.586   2.994  20.857  0.00  0.00    +0.000 OA
ATOM     18  H   UNL     1      -0.206   3.101  21.416  0.00  0.00    +0.000 HD
ENDBRANCH  16  17
ENDBRANCH   1  16
BRANCH   2  19
ATOM     19  C   UNL     1       0.950   6.881  20.960  0.00  0.00    +0.000 C 
BRANCH  19  20
ATOM     20  C   UNL     1       1.608   8.115  21.548  0.00  0.00    +0.000 C 
BRANCH  20  21
ATOM     21  C   UNL     1       1.061   9.442  21.106  0.00  0.00    +0.000 C 
BRANCH  21  22
ATOM     22  O   UNL     1       0.075   9.197  20.107  0.00  0.00    +0.000 OA
BRANCH  22  23
ATOM     23  C   UNL     1      -0.716  10.278  19.824  0.00  0.00    +0.000 A 
ATOM     24  C   UNL     1      -0.789  11.190  20.919  0.00  0.00    +0.000 A 
ATOM     25  C   UNL     1      -1.321  12.440  20.708  0.00  0.00    +0.000 A 
ATOM     26  C   UNL     1      -2.207  12.529  19.663  0.00  0.00    +0.000 A 
ATOM     27  C   UNL     1      -2.395  11.456  18.766  0.00  0.00    +0.000 A 
ATOM     28  C   UNL     1      -3.454  11.506  17.873  0.00  0.00    +0.000 A 
ATOM     29  C   UNL     1      -3.675  10.498  16.917  0.00  0.00    +0.000 A 
ATOM     30  C   UNL     1      -2.612  10.137  16.136  0.00  0.00    +0.000 A 
ATOM     31  C   UNL     1      -1.660   9.875  17.151  0.00  0.00    +0.000 A 
ATOM     32  C   UNL     1      -1.489  10.458  18.584  0.00  0.00    +0.000 A 
ENDBRANCH  22  23
ENDBRANCH  21  22
ENDBRANCH  20  21
ENDBRANCH  19  20
ENDBRANCH   2  19
TORSDOF 7
ENDMDL
MODEL 4
REMARK VINA RESULT:      -8.8      6.459     10.221
REMARK  Name = 
REMARK  7 active torsions:
REMARK  status: ('A' for Active; 'I' for Inactive)
REMARK    1  A    between atoms: C_2  and  O_3
REMARK    2  A    between atoms: C_2  and  C_4
REMARK    3  A    between atoms: C_5  and  C_6
REMARK    4  A    between atoms: C_6  and  C_7
REMARK    5  A    between atoms: C_7  and  C_8
REMARK    6  A    between atoms: C_8  and  O_9
REMARK    7  A    between atoms: O_9  and  C_10
REMARK                            x       y       z     vdW  Elec       q    Type
REMARK                         _______ _______ _______ _____ _____    ______ ____
ROOT
ATOM      1  C   UNL     1      -0.388  12.271  19.197  0.00  0.00    +0.000 A 
ATOM      2  C   UNL     1       0.507  11.203  19.432  0.00  0.00    +0.000 A 
ATOM      3  C   UNL     1       0.240  10.682  20.752  0.00  0.00    +0.000 A 
ATOM      4  C   UNL     1       0.699   9.610  21.567  0.00  0.00    +0.000 A 
ATOM      5  C   UNL     1       0.147   9.384  22.850  0.00  0.00    +0.000 A 
ATOM      6  C   UNL     1      -0.822  10.225  23.358  0.00  0.00    +0.000 A 
ATOM      7  C   UNL     1      -1.213  11.306  22.586  0.00  0.00    +0.000 A 
ATOM      8  C   UNL     1      -0.718  11.509  21.300  0.00  0.00    +0.000 A 
ATOM      9  N   UNL     1      -1.068  12.476  20.384  0.00  0.00    +0.000 N 
ATOM     10  C   UNL     1      -2.086  13.495  20.678  0.00  0.00    +0.000 C 
ATOM     11  C   UNL     1      -3.127  12.988  21.683  0.00  0.00    +0.000 C 
ATOM     12  S   UNL     1      -2.422  12.394  23.188  0.00  0.00    +0.000 S 
ATOM     13  O   UNL     1      -3.423  11.591  23.861  0.00  0.00    +0.000 OA
ATOM     14  O   UNL     1      -1.719  13.477  23.838  0.00  0.00    +0.000 OA
ENDROOT
BRANCH   1  16
ATOM     15  O   UNL     1      -0.154  14.306  18.003  0.00  0.00    +0.000 OA
ATOM     16  C   UNL     1      -0.554  13.154  18.049  0.00  0.00    +0.000 C 
BRANCH  16  17
ATOM     17  O   UNL     1      -1.273  12.622  17.031  0.00  0.00    +0.000 OA
ATOM     18  H   UNL     1      -1.566  11.699  17.150  0.00  0.00    +0.000 HD
ENDBRANCH  16  17
ENDBRANCH   1  16
BRANCH   2  19
ATOM     19  C   UNL     1       1.592  10.664  18.529  0.00  0.00    +0.000 C 
BRANCH  19  20
ATOM     20  C   UNL     1       1.342   9.243  18.060  0.00  0.00    +0.000 C 
BRANCH  20  21
ATOM     21  C   UNL     1       2.460   8.261  18.267  0.00  0.00    +0.000 C 
BRANCH  21  22
ATOM     22  O   UNL     1       2.000   6.982  17.841  0.00  0.00    +0.000 OA
BRANCH  22  23
ATOM     23  C   UNL     1       2.823   5.946  18.194  0.00  0.00    +0.000 A 
ATOM     24  C   UNL     1       4.050   5.963  17.466  0.00  0.00    +0.000 A 
ATOM     25  C   UNL     1       5.082   5.157  17.884  0.00  0.00    +0.000 A 
ATOM     26  C   UNL     1       4.704   4.043  18.590  0.00  0.00    +0.000 A 
ATOM     27  C   UNL     1       3.370   3.858  19.011  0.00  0.00    +0.000 A 
ATOM     28  C   UNL     1       2.991   2.624  19.517  0.00  0.00    +0.000 A 
ATOM     29  C   UNL     1       1.694   2.381  20.002  0.00  0.00    +0.000 A 
ATOM     30  C   UNL     1       1.193   3.269  20.914  0.00  0.00    +0.000 A 
ATOM     31  C   UNL     1       1.407   4.474  20.201  0.00  0.00    +0.000 A 
ATOM     32  C   UNL     1       2.473   4.872  19.139  0.00  0.00    +0.000 A 
ENDBRANCH  22  23
ENDBRANCH  21  22
ENDBRANCH  20  21
ENDBRANCH  19  20
ENDBRANCH   2  19
TORSDOF 7
ENDMDL
MODEL 5
REMARK VINA RESULT:      -8.8      6.498     10.157
REMARK  Name = 
REMARK  7 active torsions:
REMARK  status: ('A' for Active; 'I' for Inactive)
REMARK    1  A    between atoms: C_2  and  O_3
REMARK    2  A    between atoms: C_2  and  C_4
REMARK    3  A    between atoms: C_5  and  C_6
REMARK    4  A    between atoms: C_6  and  C_7
REMARK    5  A    between atoms: C_7  and  C_8
REMARK    6  A    between atoms: C_8  and  O_9
REMARK    7  A    between atoms: O_9  and  C_10
REMARK                            x       y       z     vdW  Elec       q    Type
REMARK                         _______ _______ _______ _____ _____    ______ ____
ROOT
ATOM      1  C   UNL     1      -1.252  11.148  18.689  0.00  0.00    +0.000 A 
ATOM      2  C   UNL     1      -0.344  10.103  18.974  0.00  0.00    +0.000 A 
ATOM      3  C   UNL     1      -0.276   9.953  20.409  0.00  0.00    +0.000 A 
ATOM      4  C   UNL     1       0.357   9.084  21.341  0.00  0.00    +0.000 A 
ATOM      5  C   UNL     1       0.144   9.232  22.732  0.00  0.00    +0.000 A 
ATOM      6  C   UNL     1      -0.650  10.250  23.219  0.00  0.00    +0.000 A 
ATOM      7  C   UNL     1      -1.206  11.132  22.308  0.00  0.00    +0.000 A 
ATOM      8  C   UNL     1      -1.050  10.965  20.933  0.00  0.00    +0.000 A 
ATOM      9  N   UNL     1      -1.605  11.698  19.908  0.00  0.00    +0.000 N 
ATOM     10  C   UNL     1      -2.499  12.838  20.160  0.00  0.00    +0.000 C 
ATOM     11  C   UNL     1      -3.259  12.685  21.482  0.00  0.00    +0.000 C 
ATOM     12  S   UNL     1      -2.205  12.431  22.876  0.00  0.00    +0.000 S 
ATOM     13  O   UNL     1      -3.016  11.906  23.956  0.00  0.00    +0.000 OA
ATOM     14  O   UNL     1      -1.342  13.580  23.029  0.00  0.00    +0.000 OA
ENDROOT
BRANCH   1  16
ATOM     15  O   UNL     1      -2.537  11.234  16.698  0.00  0.00    +0.000 OA
ATOM     16  C   UNL     1      -1.689  11.727  17.425  0.00  0.00    +0.000 C 
BRANCH  16  17
ATOM     17  O   UNL     1      -1.018  12.846  17.058  0.00  0.00    +0.000 OA
ATOM     18  H   UNL     1      -0.827  12.938  16.106  0.00  0.00    +0.000 HD
ENDBRANCH  16  17
ENDBRANCH   1  16
BRANCH   2  19
ATOM     19  C   UNL     1       0.467   9.268  18.010  0.00  0.00    +0.000 C 
BRANCH  19  20
ATOM     20  C   UNL     1       1.928   9.139  18.400  0.00  0.00    +0.000 C 
BRANCH  20  21
ATOM     21  C   UNL     1       2.410   7.759  18.747  0.00  0.00    +0.000 C 
BRANCH  21  22
ATOM     22  O   UNL     1       3.258   7.316  17.693  0.00  0.00    +0.000 OA
BRANCH  22  23
ATOM     23  C   UNL     1       3.493   5.967  17.693  0.00  0.00    +0.000 A 
ATOM     24  C   UNL     1       4.502   5.597  16.754  0.00  0.00    +0.000 A 
ATOM     25  C   UNL     1       5.036   4.333  16.817  0.00  0.00    +0.000 A 
ATOM     26  C   UNL     1       4.221   3.381  17.379  0.00  0.00    +0.000 A 
ATOM     27  C   UNL     1       3.011   3.732  18.013  0.00  0.00    +0.000 A 
ATOM     28  C   UNL     1       2.119   2.729  18.360  0.00  0.00    +0.000 A 
ATOM     29  C   UNL     1       0.917   2.997  19.038  0.00  0.00    +0.000 A 
ATOM     30  C   UNL     1       0.998   3.761  20.170  0.00  0.00    +0.000 A 
ATOM     31  C   UNL     1       1.714   4.867  19.650  0.00  0.00    +0.000 A 
ATOM     32  C   UNL     1       2.742   4.979  18.486  0.00  0.00    +0.000 A 
ENDBRANCH  22  23
ENDBRANCH  21  22
ENDBRANCH  20  21
ENDBRANCH  19  20
ENDBRANCH   2  19
TORSDOF 7
ENDMDL
MODEL 6
REMARK VINA RESULT:      -8.7      0.645      2.000
REMARK  Name = 
REMARK  7 active torsions:
REMARK  status: ('A' for Active; 'I' for Inactive)
REMARK    1  A    between atoms: C_2  and  O_3
REMARK    2  A    between atoms: C_2  and  C_4
REMARK    3  A    between atoms: C_5  and  C_6
REMARK    4  A    between atoms: C_6  and  C_7
REMARK    5  A    between atoms: C_7  and  C_8
REMARK    6  A    between atoms: C_8  and  O_9
REMARK    7  A    between atoms: O_9  and  C_10
REMARK                            x       y       z     vdW  Elec       q    Type
REMARK                         _______ _______ _______ _____ _____    ______ ____
ROOT
ATOM      1  C   UNL     1       6.328   5.427  17.934  0.00  0.00    +0.000 A 
ATOM      2  C   UNL     1       6.034   6.740  17.506  0.00  0.00    +0.000 A 
ATOM      3  C   UNL     1       4.611   6.945  17.645  0.00  0.00    +0.000 A 
ATOM      4  C   UNL     1       3.685   8.012  17.473  0.00  0.00    +0.000 A 
ATOM      5  C   UNL     1       2.310   7.834  17.757  0.00  0.00    +0.000 A 
ATOM      6  C   UNL     1       1.829   6.607  18.169  0.00  0.00    +0.000 A 
ATOM      7  C   UNL     1       2.727   5.557  18.267  0.00  0.00    +0.000 A 
ATOM      8  C   UNL     1       4.091   5.732  18.044  0.00  0.00    +0.000 A 
ATOM      9  N   UNL     1       5.111   4.818  18.184  0.00  0.00    +0.000 N 
ATOM     10  C   UNL     1       4.864   3.435  18.619  0.00  0.00    +0.000 C 
ATOM     11  C   UNL     1       3.623   3.332  19.512  0.00  0.00    +0.000 C 
ATOM     12  S   UNL     1       2.165   3.997  18.773  0.00  0.00    +0.000 S 
ATOM     13  O   UNL     1       1.192   4.213  19.825  0.00  0.00    +0.000 OA
ATOM     14  O   UNL     1       1.866   3.254  17.569  0.00  0.00    +0.000 OA
ENDROOT
BRANCH   1  16
ATOM     15  O   UNL     1       8.328   4.680  18.966  0.00  0.00    +0.000 OA
ATOM     16  C   UNL     1       7.586   4.692  17.998  0.00  0.00    +0.000 C 
BRANCH  16  17
ATOM     17  O   UNL     1       7.928   4.064  16.846  0.00  0.00    +0.000 OA
ATOM     18  H   UNL     1       8.316   3.174  16.942  0.00  0.00    +0.000 HD
ENDBRANCH  16  17
ENDBRANCH   1  16
BRANCH   2  19
ATOM     19  C   UNL     1       6.976   7.790  16.963  0.00  0.00    +0.000 C 
BRANCH  19  20
ATOM     20  C   UNL     1       7.971   8.302  17.988  0.00  0.00    +0.000 C 
BRANCH  20  21
ATOM     21  C   UNL     1       8.170   9.790  18.046  0.00  0.00    +0.000 C 
BRANCH  21  22
ATOM     22  O   UNL     1       9.195  10.055  18.998  0.00  0.00    +0.000 OA
BRANCH  22  23
ATOM     23  C   UNL     1       9.764  11.295  18.876  0.00  0.00    +0.000 A 
ATOM     24  C   UNL     1      10.689  11.357  17.791  0.00  0.00    +0.000 A 
ATOM     25  C   UNL     1      11.141  12.585  17.374  0.00  0.00    +0.000 A 
ATOM     26  C   UNL     1      11.116  13.573  18.328  0.00  0.00    +0.000 A 
ATOM     27  C   UNL     1      10.488  13.372  19.576  0.00  0.00    +0.000 A 
ATOM     28  C   UNL     1      10.684  14.304  20.583  0.00  0.00    +0.000 A 
ATOM     29  C   UNL     1      10.052  14.197  21.834  0.00  0.00    +0.000 A 
ATOM     30  C   UNL     1       8.698  14.004  21.834  0.00  0.00    +0.000 A 
ATOM     31  C   UNL     1       8.627  12.883  20.970  0.00  0.00    +0.000 A 
ATOM     32  C   UNL     1       9.542  12.421  19.799  0.00  0.00    +0.000 A 
ENDBRANCH  22  23
ENDBRANCH  21  22
ENDBRANCH  20  21
ENDBRANCH  19  20
ENDBRANCH   2  19
TORSDOF 7
ENDMDL
MODEL 7
REMARK VINA RESULT:      -8.6      6.636     10.477
REMARK  Name = 
REMARK  7 active torsions:
REMARK  status: ('A' for Active; 'I' for Inactive)
REMARK    1  A    between atoms: C_2  and  O_3
REMARK    2  A    between atoms: C_2  and  C_4
REMARK    3  A    between atoms: C_5  and  C_6
REMARK    4  A    between atoms: C_6  and  C_7
REMARK    5  A    between atoms: C_7  and  C_8
REMARK    6  A    between atoms: C_8  and  O_9
REMARK    7  A    between atoms: O_9  and  C_10
REMARK                            x       y       z     vdW  Elec       q    Type
REMARK                         _______ _______ _______ _____ _____    ______ ____
ROOT
ATOM      1  C   UNL     1      -0.830  11.979  20.396  0.00  0.00    +0.000 A 
ATOM      2  C   UNL     1      -0.549  11.367  19.154  0.00  0.00    +0.000 A 
ATOM      3  C   UNL     1      -1.768  11.356  18.378  0.00  0.00    +0.000 A 
ATOM      4  C   UNL     1      -2.171  10.973  17.068  0.00  0.00    +0.000 A 
ATOM      5  C   UNL     1      -3.506  11.158  16.636  0.00  0.00    +0.000 A 
ATOM      6  C   UNL     1      -4.458  11.676  17.490  0.00  0.00    +0.000 A 
ATOM      7  C   UNL     1      -4.071  11.981  18.785  0.00  0.00    +0.000 A 
ATOM      8  C   UNL     1      -2.749  11.856  19.206  0.00  0.00    +0.000 A 
ATOM      9  N   UNL     1      -2.196  12.196  20.420  0.00  0.00    +0.000 N 
ATOM     10  C   UNL     1      -2.999  12.777  21.507  0.00  0.00    +0.000 C 
ATOM     11  C   UNL     1      -4.199  13.566  20.971  0.00  0.00    +0.000 C 
ATOM     12  S   UNL     1      -5.236  12.627  19.895  0.00  0.00    +0.000 S 
ATOM     13  O   UNL     1      -6.064  13.557  19.153  0.00  0.00    +0.000 OA
ATOM     14  O   UNL     1      -5.779  11.504  20.626  0.00  0.00    +0.000 OA
ENDROOT
BRANCH   1  16
ATOM     15  O   UNL     1       0.622  13.283  21.742  0.00  0.00    +0.000 OA
ATOM     16  C   UNL     1       0.015  12.242  21.554  0.00  0.00    +0.000 C 
BRANCH  16  17
ATOM     17  O   UNL     1       0.148  11.192  22.401  0.00  0.00    +0.000 OA
ATOM     18  H   UNL     1       1.053  11.007  22.716  0.00  0.00    +0.000 HD
ENDBRANCH  16  17
ENDBRANCH   1  16
BRANCH   2  19
ATOM     19  C   UNL     1       0.755  10.781  18.663  0.00  0.00    +0.000 C 
BRANCH  19  20
ATOM     20  C   UNL     1       0.702   9.281  18.444  0.00  0.00    +0.000 C 
BRANCH  20  21
ATOM     21  C   UNL     1       1.943   8.639  17.891  0.00  0.00    +0.000 C 
BRANCH  21  22
ATOM     22  O   UNL     1       2.484   7.796  18.903  0.00  0.00    +0.000 OA
BRANCH  22  23
ATOM     23  C   UNL     1       2.901   6.574  18.450  0.00  0.00    +0.000 A 
ATOM     24  C   UNL     1       3.848   6.690  17.387  0.00  0.00    +0.000 A 
ATOM     25  C   UNL     1       4.554   5.576  17.004  0.00  0.00    +0.000 A 
ATOM     26  C   UNL     1       3.942   4.375  17.266  0.00  0.00    +0.000 A 
ATOM     27  C   UNL     1       2.768   4.305  18.046  0.00  0.00    +0.000 A 
ATOM     28  C   UNL     1       2.065   3.111  18.094  0.00  0.00    +0.000 A 
ATOM     29  C   UNL     1       0.915   2.951  18.888  0.00  0.00    +0.000 A 
ATOM     30  C   UNL     1       1.009   3.322  20.201  0.00  0.00    +0.000 A 
ATOM     31  C   UNL     1       1.507   4.637  20.033  0.00  0.00    +0.000 A 
ATOM     32  C   UNL     1       2.382   5.277  18.915  0.00  0.00    +0.000 A 
ENDBRANCH  22  23
ENDBRANCH  21  22
ENDBRANCH  20  21
ENDBRANCH  19  20
ENDBRANCH   2  19
TORSDOF 7
ENDMDL
MODEL 8
REMARK VINA RESULT:      -8.5      6.741     10.694
REMARK  Name = 
REMARK  7 active torsions:
REMARK  status: ('A' for Active; 'I' for Inactive)
REMARK    1  A    between atoms: C_2  and  O_3
REMARK    2  A    between atoms: C_2  and  C_4
REMARK    3  A    between atoms: C_5  and  C_6
REMARK    4  A    between atoms: C_6  and  C_7
REMARK    5  A    between atoms: C_7  and  C_8
REMARK    6  A    between atoms: C_8  and  O_9
REMARK    7  A    between atoms: O_9  and  C_10
REMARK                            x       y       z     vdW  Elec       q    Type
REMARK                         _______ _______ _______ _____ _____    ______ ____
ROOT
ATOM      1  C   UNL     1      -1.672  12.303  20.343  0.00  0.00    +0.000 A 
ATOM      2  C   UNL     1      -0.914  11.496  19.465  0.00  0.00    +0.000 A 
ATOM      3  C   UNL     1      -1.790  11.043  18.410  0.00  0.00    +0.000 A 
ATOM      4  C   UNL     1      -1.678  10.290  17.208  0.00  0.00    +0.000 A 
ATOM      5  C   UNL     1      -2.803  10.077  16.376  0.00  0.00    +0.000 A 
ATOM      6  C   UNL     1      -4.045  10.561  16.734  0.00  0.00    +0.000 A 
ATOM      7  C   UNL     1      -4.158  11.233  17.940  0.00  0.00    +0.000 A 
ATOM      8  C   UNL     1      -3.049  11.497  18.741  0.00  0.00    +0.000 A 
ATOM      9  N   UNL     1      -2.984  12.219  19.911  0.00  0.00    +0.000 N 
ATOM     10  C   UNL     1      -4.173  12.848  20.506  0.00  0.00    +0.000 C 
ATOM     11  C   UNL     1      -5.216  13.214  19.443  0.00  0.00    +0.000 C 
ATOM     12  S   UNL     1      -5.701  11.850  18.433  0.00  0.00    +0.000 S 
ATOM     13  O   UNL     1      -6.347  12.382  17.250  0.00  0.00    +0.000 OA
ATOM     14  O   UNL     1      -6.305  10.837  19.268  0.00  0.00    +0.000 OA
ENDROOT
BRANCH   1  16
ATOM     15  O   UNL     1      -1.164  14.211  21.656  0.00  0.00    +0.000 OA
ATOM     16  C   UNL     1      -1.306  13.002  21.569  0.00  0.00    +0.000 C 
BRANCH  16  17
ATOM     17  O   UNL     1      -1.051  12.190  22.623  0.00  0.00    +0.000 OA
ATOM     18  H   UNL     1      -0.151  11.814  22.667  0.00  0.00    +0.000 HD
ENDBRANCH  16  17
ENDBRANCH   1  16
BRANCH   2  19
ATOM     19  C   UNL     1       0.544  11.108  19.561  0.00  0.00    +0.000 C 
BRANCH  19  20
ATOM     20  C   UNL     1       0.764   9.685  20.037  0.00  0.00    +0.000 C 
BRANCH  20  21
ATOM     21  C   UNL     1       1.598   8.803  19.153  0.00  0.00    +0.000 C 
BRANCH  21  22
ATOM     22  O   UNL     1       1.998   7.671  19.920  0.00  0.00    +0.000 OA
BRANCH  22  23
ATOM     23  C   UNL     1       2.478   6.630  19.172  0.00  0.00    +0.000 A 
ATOM     24  C   UNL     1       3.300   7.077  18.094  0.00  0.00    +0.000 A 
ATOM     25  C   UNL     1       4.065   6.158  17.417  0.00  0.00    +0.000 A 
ATOM     26  C   UNL     1       3.594   4.869  17.448  0.00  0.00    +0.000 A 
ATOM     27  C   UNL     1       2.514   4.502  18.279  0.00  0.00    +0.000 A 
ATOM     28  C   UNL     1       1.932   3.255  18.110  0.00  0.00    +0.000 A 
ATOM     29  C   UNL     1       0.885   2.800  18.932  0.00  0.00    +0.000 A 
ATOM     30  C   UNL     1       1.074   2.886  20.284  0.00  0.00    +0.000 A 
ATOM     31  C   UNL     1       1.430   4.254  20.379  0.00  0.00    +0.000 A 
ATOM     32  C   UNL     1       2.128   5.214  19.372  0.00  0.00    +0.000 A 
ENDBRANCH  22  23
ENDBRANCH  21  22
ENDBRANCH  20  21
ENDBRANCH  19  20
ENDBRANCH   2  19
TORSDOF 7
ENDMDL
MODEL 9
REMARK VINA RESULT:      -8.5      5.653      8.636
REMARK  Name = 
REMARK  7 active torsions:
REMARK  status: ('A' for Active; 'I' for Inactive)
REMARK    1  A    between atoms: C_2  and  O_3
REMARK    2  A    between atoms: C_2  and  C_4
REMARK    3  A    between atoms: C_5  and  C_6
REMARK    4  A    between atoms: C_6  and  C_7
REMARK    5  A    between atoms: C_7  and  C_8
REMARK    6  A    between atoms: C_8  and  O_9
REMARK    7  A    between atoms: O_9  and  C_10
REMARK                            x       y       z     vdW  Elec       q    Type
REMARK                         _______ _______ _______ _____ _____    ______ ____
ROOT
ATOM      1  C   UNL     1       2.333   6.626  19.681  0.00  0.00    +0.000 A 
ATOM      2  C   UNL     1       2.933   7.185  18.531  0.00  0.00    +0.000 A 
ATOM      3  C   UNL     1       3.644   6.132  17.844  0.00  0.00    +0.000 A 
ATOM      4  C   UNL     1       4.380   5.982  16.636  0.00  0.00    +0.000 A 
ATOM      5  C   UNL     1       4.920   4.727  16.265  0.00  0.00    +0.000 A 
ATOM      6  C   UNL     1       4.781   3.629  17.090  0.00  0.00    +0.000 A 
ATOM      7  C   UNL     1       4.123   3.802  18.296  0.00  0.00    +0.000 A 
ATOM      8  C   UNL     1       3.539   5.017  18.648  0.00  0.00    +0.000 A 
ATOM      9  N   UNL     1       2.785   5.321  19.759  0.00  0.00    +0.000 N 
ATOM     10  C   UNL     1       2.483   4.321  20.794  0.00  0.00    +0.000 C 
ATOM     11  C   UNL     1       2.454   2.899  20.221  0.00  0.00    +0.000 C 
ATOM     12  S   UNL     1       3.932   2.452  19.367  0.00  0.00    +0.000 S 
ATOM     13  O   UNL     1       3.639   1.294  18.547  0.00  0.00    +0.000 OA
ATOM     14  O   UNL     1       5.042   2.497  20.292  0.00  0.00    +0.000 OA
ENDROOT
BRANCH   1  16
ATOM     15  O   UNL     1       0.362   6.912  20.968  0.00  0.00    +0.000 OA
ATOM     16  C   UNL     1       1.517   7.225  20.731  0.00  0.00    +0.000 C 
BRANCH  16  17
ATOM     17  O   UNL     1       2.119   8.239  21.400  0.00  0.00    +0.000 OA
ATOM     18  H   UNL     1       1.651   9.094  21.394  0.00  0.00    +0.000 HD
ENDBRANCH  16  17
ENDBRANCH   1  16
BRANCH   2  19
ATOM     19  C   UNL     1       2.905   8.620  18.053  0.00  0.00    +0.000 C 
BRANCH  19  20
ATOM     20  C   UNL     1       1.512   9.128  17.738  0.00  0.00    +0.000 C 
BRANCH  20  21
ATOM     21  C   UNL     1       1.032  10.308  18.534  0.00  0.00    +0.000 C 
BRANCH  21  22
ATOM     22  O   UNL     1      -0.087   9.887  19.308  0.00  0.00    +0.000 OA
BRANCH  22  23
ATOM     23  C   UNL     1      -1.095  10.810  19.383  0.00  0.00    +0.000 A 
ATOM     24  C   UNL     1      -1.131  11.464  20.651  0.00  0.00    +0.000 A 
ATOM     25  C   UNL     1      -1.906  12.589  20.795  0.00  0.00    +0.000 A 
ATOM     26  C   UNL     1      -2.967  12.685  19.930  0.00  0.00    +0.000 A 
ATOM     27  C   UNL     1      -3.120  11.784  18.854  0.00  0.00    +0.000 A 
ATOM     28  C   UNL     1      -4.314  11.776  18.150  0.00  0.00    +0.000 A 
ATOM     29  C   UNL     1      -4.521  10.942  17.037  0.00  0.00    +0.000 A 
ATOM     30  C   UNL     1      -3.569  10.968  16.055  0.00  0.00    +0.000 A 
ATOM     31  C   UNL     1      -2.419  10.726  16.845  0.00  0.00    +0.000 A 
ATOM     32  C   UNL     1      -2.098  11.052  18.333  0.00  0.00    +0.000 A 
ENDBRANCH  22  23
ENDBRANCH  21  22
ENDBRANCH  20  21
ENDBRANCH  19  20
ENDBRANCH   2  19
TORSDOF 7
ENDMDL
