MODEL 1
REMARK VINA RESULT:      -7.8      0.000      0.000
REMARK  Name = 
REMARK  8 active torsions:
REMARK  status: ('A' for Active; 'I' for Inactive)
REMARK    1  A    between atoms: C_1  and  O_2
REMARK    2  A    between atoms: O_2  and  C_3
REMARK    3  A    between atoms: C_6  and  N_7
REMARK    4  A    between atoms: C_8  and  C_10
REMARK    5  A    between atoms: C_10  and  C_11
REMARK    6  A    between atoms: C_13  and  C_14
REMARK    7  A    between atoms: N_20  and  C_21
REMARK    8  A    between atoms: N_24  and  C_25
REMARK                            x       y       z     vdW  Elec       q    Type
REMARK                         _______ _______ _______ _____ _____    ______ ____
ROOT
ATOM      1  C   UNL     1       7.515   7.475  18.069  0.00  0.00    +0.000 C 
ATOM      2  C   UNL     1       6.469   7.331  17.231  0.00  0.00    +0.000 C 
ENDROOT
BRANCH   2   3
ATOM      3  C   UNL     1       5.609   6.154  17.022  0.00  0.00    +0.000 A 
ATOM      4  C   UNL     1       6.214   4.956  16.563  0.00  0.00    +0.000 A 
ATOM      5  C   UNL     1       5.610   3.712  16.787  0.00  0.00    +0.000 A 
ATOM      6  C   UNL     1       4.431   3.722  17.498  0.00  0.00    +0.000 A 
ATOM      7  C   UNL     1       3.737   4.899  17.772  0.00  0.00    +0.000 A 
ATOM      8  C   UNL     1       4.302   6.141  17.541  0.00  0.00    +0.000 A 
ATOM      9  N   UNL     1       2.568   4.588  18.527  0.00  0.00    +0.000 N 
ATOM     10  C   UNL     1       1.319   4.571  17.768  0.00  0.00    +0.000 C 
ATOM     11  C   UNL     1       2.783   3.249  19.006  0.00  0.00    +0.000 A 
ATOM     12  O   UNL     1       2.091   2.659  19.822  0.00  0.00    +0.000 OA
ATOM     13  N   UNL     1       3.793   2.700  18.200  0.00  0.00    +0.000 N 
ATOM     14  C   UNL     1       3.807   1.305  17.902  0.00  0.00    +0.000 C 
ENDBRANCH   2   3
BRANCH   1  16
ATOM     15  N   UNL     1       8.992   9.114  19.179  0.00  0.00    +0.000 N 
ATOM     16  C   UNL     1       8.202   8.807  18.088  0.00  0.00    +0.000 C 
ATOM     17  O   UNL     1       8.029   9.549  17.123  0.00  0.00    +0.000 OA
ATOM     18  H   UNL     1       9.235   8.380  19.832  0.00  0.00    +0.000 HD
BRANCH  15  22
ATOM     19  C   UNL     1      10.915  12.856  19.707  0.00  0.00    +0.000 A 
ATOM     20  C   UNL     1      10.152  12.320  20.729  0.00  0.00    +0.000 A 
ATOM     21  C   UNL     1       9.528  11.088  20.591  0.00  0.00    +0.000 A 
ATOM     22  C   UNL     1       9.626  10.371  19.389  0.00  0.00    +0.000 A 
ATOM     23  C   UNL     1      10.407  10.910  18.361  0.00  0.00    +0.000 A 
ATOM     24  C   UNL     1      11.038  12.148  18.504  0.00  0.00    +0.000 A 
BRANCH  19  26
ATOM     25  C   UNL     1      11.944  14.816  18.873  0.00  0.00    +0.000 C 
ATOM     26  O   UNL     1      11.459  14.077  19.985  0.00  0.00    +0.000 OA
ENDBRANCH  19  26
ENDBRANCH  15  22
ENDBRANCH   1  16
BRANCH   1  27
ATOM     27  C   UNL     1       7.918   6.286  18.926  0.00  0.00    +0.000 C 
ATOM     28  N   UNL     1       8.251   5.301  19.638  0.00  0.00    +0.000 NA
ENDBRANCH   1  27
TORSDOF 5
ENDMDL
MODEL 2
REMARK VINA RESULT:      -7.8      0.997      1.250
REMARK  Name = 
REMARK  8 active torsions:
REMARK  status: ('A' for Active; 'I' for Inactive)
REMARK    1  A    between atoms: C_1  and  O_2
REMARK    2  A    between atoms: O_2  and  C_3
REMARK    3  A    between atoms: C_6  and  N_7
REMARK    4  A    between atoms: C_8  and  C_10
REMARK    5  A    between atoms: C_10  and  C_11
REMARK    6  A    between atoms: C_13  and  C_14
REMARK    7  A    between atoms: N_20  and  C_21
REMARK    8  A    between atoms: N_24  and  C_25
REMARK                            x       y       z     vdW  Elec       q    Type
REMARK                         _______ _______ _______ _____ _____    ______ ____
ROOT
ATOM      1  C   UNL     1       7.414   7.307  18.127  0.00  0.00    +0.000 C 
ATOM      2  C   UNL     1       6.215   7.232  17.515  0.00  0.00    +0.000 C 
ENDROOT
BRANCH   2   3
ATOM      3  C   UNL     1       5.222   6.145  17.559  0.00  0.00    +0.000 A 
ATOM      4  C   UNL     1       5.419   5.024  16.714  0.00  0.00    +0.000 A 
ATOM      5  C   UNL     1       4.839   3.784  17.012  0.00  0.00    +0.000 A 
ATOM      6  C   UNL     1       4.105   3.716  18.176  0.00  0.00    +0.000 A 
ATOM      7  C   UNL     1       3.744   4.853  18.896  0.00  0.00    +0.000 A 
ATOM      8  C   UNL     1       4.287   6.093  18.609  0.00  0.00    +0.000 A 
ATOM      9  N   UNL     1       3.002   4.460  20.049  0.00  0.00    +0.000 N 
ATOM     10  C   UNL     1       1.554   4.626  19.947  0.00  0.00    +0.000 C 
ATOM     11  C   UNL     1       3.252   3.050  20.186  0.00  0.00    +0.000 A 
ATOM     12  O   UNL     1       2.929   2.353  21.136  0.00  0.00    +0.000 OA
ATOM     13  N   UNL     1       3.731   2.612  18.941  0.00  0.00    +0.000 N 
ATOM     14  C   UNL     1       3.452   1.292  18.478  0.00  0.00    +0.000 C 
ENDBRANCH   2   3
BRANCH   1  16
ATOM     15  N   UNL     1       8.684   9.220  19.037  0.00  0.00    +0.000 N 
ATOM     16  C   UNL     1       8.215   8.556  17.920  0.00  0.00    +0.000 C 
ATOM     17  O   UNL     1       8.417   8.915  16.760  0.00  0.00    +0.000 OA
ATOM     18  H   UNL     1       8.640   8.759  19.937  0.00  0.00    +0.000 HD
BRANCH  15  22
ATOM     19  C   UNL     1      10.781  12.905  19.036  0.00  0.00    +0.000 A 
ATOM     20  C   UNL     1       9.911  12.604  18.003  0.00  0.00    +0.000 A 
ATOM     21  C   UNL     1       9.196  11.414  17.989  0.00  0.00    +0.000 A 
ATOM     22  C   UNL     1       9.370  10.466  19.008  0.00  0.00    +0.000 A 
ATOM     23  C   UNL     1      10.243  10.777  20.056  0.00  0.00    +0.000 A 
ATOM     24  C   UNL     1      10.957  11.978  20.072  0.00  0.00    +0.000 A 
BRANCH  19  26
ATOM     25  C   UNL     1      11.163  14.830  17.714  0.00  0.00    +0.000 C 
ATOM     26  O   UNL     1      11.418  14.106  18.910  0.00  0.00    +0.000 OA
ENDBRANCH  19  26
ENDBRANCH  15  22
ENDBRANCH   1  16
BRANCH   1  27
ATOM     27  C   UNL     1       7.861   6.128  18.977  0.00  0.00    +0.000 C 
ATOM     28  N   UNL     1       8.233   5.152  19.682  0.00  0.00    +0.000 NA
ENDBRANCH   1  27
TORSDOF 5
ENDMDL
MODEL 3
REMARK VINA RESULT:      -7.6      7.690      9.374
REMARK  Name = 
REMARK  8 active torsions:
REMARK  status: ('A' for Active; 'I' for Inactive)
REMARK    1  A    between atoms: C_1  and  O_2
REMARK    2  A    between atoms: O_2  and  C_3
REMARK    3  A    between atoms: C_6  and  N_7
REMARK    4  A    between atoms: C_8  and  C_10
REMARK    5  A    between atoms: C_10  and  C_11
REMARK    6  A    between atoms: C_13  and  C_14
REMARK    7  A    between atoms: N_20  and  C_21
REMARK    8  A    between atoms: N_24  and  C_25
REMARK                            x       y       z     vdW  Elec       q    Type
REMARK                         _______ _______ _______ _____ _____    ______ ____
ROOT
ATOM      1  C   UNL     1       0.147   9.833  20.503  0.00  0.00    +0.000 C 
ATOM      2  C   UNL     1       1.099   8.900  20.702  0.00  0.00    +0.000 C 
ENDROOT
BRANCH   2   3
ATOM      3  C   UNL     1       1.693   7.964  19.731  0.00  0.00    +0.000 A 
ATOM      4  C   UNL     1       2.157   8.487  18.497  0.00  0.00    +0.000 A 
ATOM      5  C   UNL     1       3.128   7.810  17.747  0.00  0.00    +0.000 A 
ATOM      6  C   UNL     1       3.618   6.643  18.290  0.00  0.00    +0.000 A 
ATOM      7  C   UNL     1       3.025   6.028  19.392  0.00  0.00    +0.000 A 
ATOM      8  C   UNL     1       2.050   6.666  20.137  0.00  0.00    +0.000 A 
ATOM      9  N   UNL     1       3.762   4.852  19.723  0.00  0.00    +0.000 N 
ATOM     10  C   UNL     1       3.164   3.595  19.279  0.00  0.00    +0.000 C 
ATOM     11  C   UNL     1       5.011   4.990  19.025  0.00  0.00    +0.000 A 
ATOM     12  O   UNL     1       5.991   4.273  19.160  0.00  0.00    +0.000 OA
ATOM     13  N   UNL     1       4.800   5.952  18.025  0.00  0.00    +0.000 N 
ATOM     14  C   UNL     1       5.497   5.875  16.783  0.00  0.00    +0.000 C 
ENDBRANCH   2   3
BRANCH   1  16
ATOM     15  N   UNL     1      -1.291  11.566  21.517  0.00  0.00    +0.000 N 
ATOM     16  C   UNL     1      -0.254  10.667  21.681  0.00  0.00    +0.000 C 
ATOM     17  O   UNL     1       0.359  10.496  22.734  0.00  0.00    +0.000 OA
ATOM     18  H   UNL     1      -1.865  11.508  20.686  0.00  0.00    +0.000 HD
BRANCH  15  22
ATOM     19  C   UNL     1      -2.654  14.270  24.485  0.00  0.00    +0.000 A 
ATOM     20  C   UNL     1      -1.434  14.479  23.867  0.00  0.00    +0.000 A 
ATOM     21  C   UNL     1      -0.973  13.621  22.878  0.00  0.00    +0.000 A 
ATOM     22  C   UNL     1      -1.720  12.493  22.508  0.00  0.00    +0.000 A 
ATOM     23  C   UNL     1      -2.959  12.290  23.128  0.00  0.00    +0.000 A 
ATOM     24  C   UNL     1      -3.423  13.158  24.118  0.00  0.00    +0.000 A 
BRANCH  19  26
ATOM     25  C   UNL     1      -3.724  16.314  25.009  0.00  0.00    +0.000 C 
ATOM     26  O   UNL     1      -2.970  15.191  25.442  0.00  0.00    +0.000 OA
ENDBRANCH  19  26
ENDBRANCH  15  22
ENDBRANCH   1  16
BRANCH   1  27
ATOM     27  C   UNL     1      -0.445   9.970  19.109  0.00  0.00    +0.000 C 
ATOM     28  N   UNL     1      -0.936  10.084  17.954  0.00  0.00    +0.000 NA
ENDBRANCH   1  27
TORSDOF 5
ENDMDL
MODEL 4
REMARK VINA RESULT:      -7.5      5.597      8.255
REMARK  Name = 
REMARK  8 active torsions:
REMARK  status: ('A' for Active; 'I' for Inactive)
REMARK    1  A    between atoms: C_1  and  O_2
REMARK    2  A    between atoms: O_2  and  C_3
REMARK    3  A    between atoms: C_6  and  N_7
REMARK    4  A    between atoms: C_8  and  C_10
REMARK    5  A    between atoms: C_10  and  C_11
REMARK    6  A    between atoms: C_13  and  C_14
REMARK    7  A    between atoms: N_20  and  C_21
REMARK    8  A    between atoms: N_24  and  C_25
REMARK                            x       y       z     vdW  Elec       q    Type
REMARK                         _______ _______ _______ _____ _____    ______ ____
ROOT
ATOM      1  C   UNL     1       2.035   7.560  19.517  0.00  0.00    +0.000 C 
ATOM      2  C   UNL     1       2.481   6.322  19.808  0.00  0.00    +0.000 C 
ENDROOT
BRANCH   2   3
ATOM      3  C   UNL     1       3.369   5.451  19.018  0.00  0.00    +0.000 A 
ATOM      4  C   UNL     1       2.779   4.586  18.062  0.00  0.00    +0.000 A 
ATOM      5  C   UNL     1       3.520   4.100  16.976  0.00  0.00    +0.000 A 
ATOM      6  C   UNL     1       4.823   4.535  16.880  0.00  0.00    +0.000 A 
ATOM      7  C   UNL     1       5.459   5.216  17.917  0.00  0.00    +0.000 A 
ATOM      8  C   UNL     1       4.755   5.688  19.010  0.00  0.00    +0.000 A 
ATOM      9  N   UNL     1       6.789   5.540  17.516  0.00  0.00    +0.000 N 
ATOM     10  C   UNL     1       7.834   4.674  18.059  0.00  0.00    +0.000 C 
ATOM     11  C   UNL     1       6.800   5.361  16.090  0.00  0.00    +0.000 A 
ATOM     12  O   UNL     1       7.703   5.682  15.332  0.00  0.00    +0.000 OA
ATOM     13  N   UNL     1       5.685   4.564  15.784  0.00  0.00    +0.000 N 
ATOM     14  C   UNL     1       5.722   3.652  14.688  0.00  0.00    +0.000 C 
ENDBRANCH   2   3
BRANCH   1  16
ATOM     15  N   UNL     1       0.542   9.415  20.172  0.00  0.00    +0.000 N 
ATOM     16  C   UNL     1       1.150   8.226  20.526  0.00  0.00    +0.000 C 
ATOM     17  O   UNL     1       1.008   7.668  21.613  0.00  0.00    +0.000 OA
ATOM     18  H   UNL     1       0.556   9.705  19.202  0.00  0.00    +0.000 HD
BRANCH  15  22
ATOM     19  C   UNL     1      -1.828  11.853  22.705  0.00  0.00    +0.000 A 
ATOM     20  C   UNL     1      -1.162  10.757  23.225  0.00  0.00    +0.000 A 
ATOM     21  C   UNL     1      -0.363   9.954  22.423  0.00  0.00    +0.000 A 
ATOM     22  C   UNL     1      -0.243  10.214  21.049  0.00  0.00    +0.000 A 
ATOM     23  C   UNL     1      -0.910  11.329  20.528  0.00  0.00    +0.000 A 
ATOM     24  C   UNL     1      -1.708  12.139  21.339  0.00  0.00    +0.000 A 
BRANCH  19  26
ATOM     25  C   UNL     1      -3.374  13.601  23.095  0.00  0.00    +0.000 C 
ATOM     26  O   UNL     1      -2.580  12.542  23.612  0.00  0.00    +0.000 OA
ENDBRANCH  19  26
ENDBRANCH  15  22
ENDBRANCH   1  16
BRANCH   1  27
ATOM     27  C   UNL     1       2.461   8.186  18.199  0.00  0.00    +0.000 C 
ATOM     28  N   UNL     1       2.812   8.705  17.105  0.00  0.00    +0.000 NA
ENDBRANCH   1  27
TORSDOF 5
ENDMDL
MODEL 5
REMARK VINA RESULT:      -7.4      7.173     10.444
REMARK  Name = 
REMARK  8 active torsions:
REMARK  status: ('A' for Active; 'I' for Inactive)
REMARK    1  A    between atoms: C_1  and  O_2
REMARK    2  A    between atoms: O_2  and  C_3
REMARK    3  A    between atoms: C_6  and  N_7
REMARK    4  A    between atoms: C_8  and  C_10
REMARK    5  A    between atoms: C_10  and  C_11
REMARK    6  A    between atoms: C_13  and  C_14
REMARK    7  A    between atoms: N_20  and  C_21
REMARK    8  A    between atoms: N_24  and  C_25
REMARK                            x       y       z     vdW  Elec       q    Type
REMARK                         _______ _______ _______ _____ _____    ______ ____
ROOT
ATOM      1  C   UNL     1       1.407  10.083  18.619  0.00  0.00    +0.000 C 
ATOM      2  C   UNL     1       0.235  10.029  19.282  0.00  0.00    +0.000 C 
ENDROOT
BRANCH   2   3
ATOM      3  C   UNL     1      -0.588  11.139  19.794  0.00  0.00    +0.000 A 
ATOM      4  C   UNL     1      -1.706  11.552  19.025  0.00  0.00    +0.000 A 
ATOM      5  C   UNL     1      -2.780  12.228  19.620  0.00  0.00    +0.000 A 
ATOM      6  C   UNL     1      -2.699  12.431  20.980  0.00  0.00    +0.000 A 
ATOM      7  C   UNL     1      -1.524  12.208  21.696  0.00  0.00    +0.000 A 
ATOM      8  C   UNL     1      -0.441  11.562  21.127  0.00  0.00    +0.000 A 
ATOM      9  N   UNL     1      -1.756  12.496  23.074  0.00  0.00    +0.000 N 
ATOM     10  C   UNL     1      -1.251  13.787  23.537  0.00  0.00    +0.000 C 
ATOM     11  C   UNL     1      -3.187  12.536  23.208  0.00  0.00    +0.000 A 
ATOM     12  O   UNL     1      -3.809  12.601  24.257  0.00  0.00    +0.000 OA
ATOM     13  N   UNL     1      -3.699  12.706  21.911  0.00  0.00    +0.000 N 
ATOM     14  C   UNL     1      -4.906  13.435  21.695  0.00  0.00    +0.000 C 
ENDBRANCH   2   3
BRANCH   1  16
ATOM     15  N   UNL     1       1.915   7.706  19.055  0.00  0.00    +0.000 N 
ATOM     16  C   UNL     1       2.017   8.782  18.195  0.00  0.00    +0.000 C 
ATOM     17  O   UNL     1       2.568   8.745  17.095  0.00  0.00    +0.000 OA
ATOM     18  H   UNL     1       1.285   7.766  19.845  0.00  0.00    +0.000 HD
BRANCH  15  22
ATOM     19  C   UNL     1       3.813   3.960  18.473  0.00  0.00    +0.000 A 
ATOM     20  C   UNL     1       2.556   4.188  17.943  0.00  0.00    +0.000 A 
ATOM     21  C   UNL     1       1.920   5.411  18.101  0.00  0.00    +0.000 A 
ATOM     22  C   UNL     1       2.525   6.439  18.840  0.00  0.00    +0.000 A 
ATOM     23  C   UNL     1       3.802   6.209  19.366  0.00  0.00    +0.000 A 
ATOM     24  C   UNL     1       4.441   4.978  19.201  0.00  0.00    +0.000 A 
BRANCH  19  26
ATOM     25  C   UNL     1       3.364   1.646  18.268  0.00  0.00    +0.000 C 
ATOM     26  O   UNL     1       4.307   2.708  18.243  0.00  0.00    +0.000 OA
ENDBRANCH  19  26
ENDBRANCH  15  22
ENDBRANCH   1  16
BRANCH   1  27
ATOM     27  C   UNL     1       2.019  11.449  18.351  0.00  0.00    +0.000 C 
ATOM     28  N   UNL     1       2.525  12.582  18.128  0.00  0.00    +0.000 NA
ENDBRANCH   1  27
TORSDOF 5
ENDMDL
MODEL 6
REMARK VINA RESULT:      -7.3      5.758      8.450
REMARK  Name = 
REMARK  8 active torsions:
REMARK  status: ('A' for Active; 'I' for Inactive)
REMARK    1  A    between atoms: C_1  and  O_2
REMARK    2  A    between atoms: O_2  and  C_3
REMARK    3  A    between atoms: C_6  and  N_7
REMARK    4  A    between atoms: C_8  and  C_10
REMARK    5  A    between atoms: C_10  and  C_11
REMARK    6  A    between atoms: C_13  and  C_14
REMARK    7  A    between atoms: N_20  and  C_21
REMARK    8  A    between atoms: N_24  and  C_25
REMARK                            x       y       z     vdW  Elec       q    Type
REMARK                         _______ _______ _______ _____ _____    ______ ____
ROOT
ATOM      1  C   UNL     1       1.827   7.815  19.613  0.00  0.00    +0.000 C 
ATOM      2  C   UNL     1       2.291   6.602  19.972  0.00  0.00    +0.000 C 
ENDROOT
BRANCH   2   3
ATOM      3  C   UNL     1       3.213   5.713  19.243  0.00  0.00    +0.000 A 
ATOM      4  C   UNL     1       2.660   4.789  18.319  0.00  0.00    +0.000 A 
ATOM      5  C   UNL     1       3.432   4.268  17.273  0.00  0.00    +0.000 A 
ATOM      6  C   UNL     1       4.727   4.726  17.179  0.00  0.00    +0.000 A 
ATOM      7  C   UNL     1       5.328   5.470  18.192  0.00  0.00    +0.000 A 
ATOM      8  C   UNL     1       4.593   5.980  19.248  0.00  0.00    +0.000 A 
ATOM      9  N   UNL     1       6.659   5.803  17.801  0.00  0.00    +0.000 N 
ATOM     10  C   UNL     1       7.711   4.989  18.405  0.00  0.00    +0.000 C 
ATOM     11  C   UNL     1       6.701   5.556  16.385  0.00  0.00    +0.000 A 
ATOM     12  O   UNL     1       7.612   5.859  15.630  0.00  0.00    +0.000 OA
ATOM     13  N   UNL     1       5.610   4.720  16.099  0.00  0.00    +0.000 N 
ATOM     14  C   UNL     1       5.686   3.757  15.050  0.00  0.00    +0.000 C 
ENDBRANCH   2   3
BRANCH   1  16
ATOM     15  N   UNL     1       0.370   9.724  20.190  0.00  0.00    +0.000 N 
ATOM     16  C   UNL     1       0.908   8.510  20.571  0.00  0.00    +0.000 C 
ATOM     17  O   UNL     1       0.677   7.952  21.643  0.00  0.00    +0.000 OA
ATOM     18  H   UNL     1       0.454  10.018  19.225  0.00  0.00    +0.000 HD
BRANCH  15  22
ATOM     19  C   UNL     1      -1.999  12.126  22.759  0.00  0.00    +0.000 A 
ATOM     20  C   UNL     1      -1.941  12.409  21.406  0.00  0.00    +0.000 A 
ATOM     21  C   UNL     1      -1.190  11.628  20.539  0.00  0.00    +0.000 A 
ATOM     22  C   UNL     1      -0.436  10.548  21.024  0.00  0.00    +0.000 A 
ATOM     23  C   UNL     1      -0.505  10.258  22.392  0.00  0.00    +0.000 A 
ATOM     24  C   UNL     1      -1.266  11.042  23.261  0.00  0.00    +0.000 A 
BRANCH  19  26
ATOM     25  C   UNL     1      -3.878  12.413  24.168  0.00  0.00    +0.000 C 
ATOM     26  O   UNL     1      -2.771  12.985  23.486  0.00  0.00    +0.000 OA
ENDBRANCH  19  26
ENDBRANCH  15  22
ENDBRANCH   1  16
BRANCH   1  27
ATOM     27  C   UNL     1       2.266   8.385  18.274  0.00  0.00    +0.000 C 
ATOM     28  N   UNL     1       2.629   8.859  17.164  0.00  0.00    +0.000 NA
ENDBRANCH   1  27
TORSDOF 5
ENDMDL
MODEL 7
REMARK VINA RESULT:      -7.3      7.239      8.833
REMARK  Name = 
REMARK  8 active torsions:
REMARK  status: ('A' for Active; 'I' for Inactive)
REMARK    1  A    between atoms: C_1  and  O_2
REMARK    2  A    between atoms: O_2  and  C_3
REMARK    3  A    between atoms: C_6  and  N_7
REMARK    4  A    between atoms: C_8  and  C_10
REMARK    5  A    between atoms: C_10  and  C_11
REMARK    6  A    between atoms: C_13  and  C_14
REMARK    7  A    between atoms: N_20  and  C_21
REMARK    8  A    between atoms: N_24  and  C_25
REMARK                            x       y       z     vdW  Elec       q    Type
REMARK                         _______ _______ _______ _____ _____    ______ ____
ROOT
ATOM      1  C   UNL     1       0.592   9.346  20.611  0.00  0.00    +0.000 C 
ATOM      2  C   UNL     1       1.218   8.204  20.962  0.00  0.00    +0.000 C 
ENDROOT
BRANCH   2   3
ATOM      3  C   UNL     1       1.754   7.141  20.093  0.00  0.00    +0.000 A 
ATOM      4  C   UNL     1       2.620   7.515  19.035  0.00  0.00    +0.000 A 
ATOM      5  C   UNL     1       3.524   6.597  18.485  0.00  0.00    +0.000 A 
ATOM      6  C   UNL     1       3.542   5.341  19.049  0.00  0.00    +0.000 A 
ATOM      7  C   UNL     1       2.562   4.913  19.944  0.00  0.00    +0.000 A 
ATOM      8  C   UNL     1       1.644   5.795  20.486  0.00  0.00    +0.000 A 
ATOM      9  N   UNL     1       2.856   3.580  20.358  0.00  0.00    +0.000 N 
ATOM     10  C   UNL     1       2.068   2.535  19.708  0.00  0.00    +0.000 C 
ATOM     11  C   UNL     1       4.226   3.369  19.975  0.00  0.00    +0.000 A 
ATOM     12  O   UNL     1       4.918   2.410  20.284  0.00  0.00    +0.000 OA
ATOM     13  N   UNL     1       4.524   4.351  19.017  0.00  0.00    +0.000 N 
ATOM     14  C   UNL     1       5.450   4.085  17.965  0.00  0.00    +0.000 C 
ENDBRANCH   2   3
BRANCH   1  16
ATOM     15  N   UNL     1      -0.837  11.174  21.456  0.00  0.00    +0.000 N 
ATOM     16  C   UNL     1       0.169  10.264  21.717  0.00  0.00    +0.000 C 
ATOM     17  O   UNL     1       0.738  10.147  22.802  0.00  0.00    +0.000 OA
ATOM     18  H   UNL     1      -1.380  11.076  20.608  0.00  0.00    +0.000 HD
BRANCH  15  22
ATOM     19  C   UNL     1      -2.232  14.091  24.199  0.00  0.00    +0.000 A 
ATOM     20  C   UNL     1      -1.063  14.309  23.492  0.00  0.00    +0.000 A 
ATOM     21  C   UNL     1      -0.595  13.381  22.572  0.00  0.00    +0.000 A 
ATOM     22  C   UNL     1      -1.279  12.174  22.367  0.00  0.00    +0.000 A 
ATOM     23  C   UNL     1      -2.466  11.959  23.077  0.00  0.00    +0.000 A 
ATOM     24  C   UNL     1      -2.939  12.898  23.997  0.00  0.00    +0.000 A 
BRANCH  19  26
ATOM     25  C   UNL     1      -1.527  15.535  25.936  0.00  0.00    +0.000 C 
ATOM     26  O   UNL     1      -2.562  15.087  25.072  0.00  0.00    +0.000 OA
ENDBRANCH  19  26
ENDBRANCH  15  22
ENDBRANCH   1  16
BRANCH   1  27
ATOM     27  C   UNL     1       0.365   9.616  19.133  0.00  0.00    +0.000 C 
ATOM     28  N   UNL     1       0.177   9.839  17.907  0.00  0.00    +0.000 NA
ENDBRANCH   1  27
TORSDOF 5
ENDMDL
MODEL 8
REMARK VINA RESULT:      -7.3      6.826     10.082
REMARK  Name = 
REMARK  8 active torsions:
REMARK  status: ('A' for Active; 'I' for Inactive)
REMARK    1  A    between atoms: C_1  and  O_2
REMARK    2  A    between atoms: O_2  and  C_3
REMARK    3  A    between atoms: C_6  and  N_7
REMARK    4  A    between atoms: C_8  and  C_10
REMARK    5  A    between atoms: C_10  and  C_11
REMARK    6  A    between atoms: C_13  and  C_14
REMARK    7  A    between atoms: N_20  and  C_21
REMARK    8  A    between atoms: N_24  and  C_25
REMARK                            x       y       z     vdW  Elec       q    Type
REMARK                         _______ _______ _______ _____ _____    ______ ____
ROOT
ATOM      1  C   UNL     1       0.365  10.123  19.290  0.00  0.00    +0.000 C 
ATOM      2  C   UNL     1       0.947   9.258  18.436  0.00  0.00    +0.000 C 
ENDROOT
BRANCH   2   3
ATOM      3  C   UNL     1       2.054   8.318  18.687  0.00  0.00    +0.000 A 
ATOM      4  C   UNL     1       1.924   7.403  19.762  0.00  0.00    +0.000 A 
ATOM      5  C   UNL     1       2.655   6.208  19.784  0.00  0.00    +0.000 A 
ATOM      6  C   UNL     1       3.468   5.966  18.699  0.00  0.00    +0.000 A 
ATOM      7  C   UNL     1       3.749   6.945  17.748  0.00  0.00    +0.000 A 
ATOM      8  C   UNL     1       3.057   8.142  17.716  0.00  0.00    +0.000 A 
ATOM      9  N   UNL     1       4.605   6.394  16.749  0.00  0.00    +0.000 N 
ATOM     10  C   UNL     1       6.017   6.754  16.866  0.00  0.00    +0.000 C 
ATOM     11  C   UNL     1       4.521   4.971  16.934  0.00  0.00    +0.000 A 
ATOM     12  O   UNL     1       4.981   4.120  16.187  0.00  0.00    +0.000 OA
ATOM     13  N   UNL     1       4.011   4.772  18.227  0.00  0.00    +0.000 N 
ATOM     14  C   UNL     1       4.401   3.635  18.996  0.00  0.00    +0.000 C 
ENDBRANCH   2   3
BRANCH   1  16
ATOM     15  N   UNL     1      -2.039  10.413  18.804  0.00  0.00    +0.000 N 
ATOM     16  C   UNL     1      -0.767  10.951  18.762  0.00  0.00    +0.000 C 
ATOM     17  O   UNL     1      -0.499  12.071  18.330  0.00  0.00    +0.000 OA
ATOM     18  H   UNL     1      -2.201   9.574  19.346  0.00  0.00    +0.000 HD
BRANCH  15  22
ATOM     19  C   UNL     1      -5.505  12.303  17.256  0.00  0.00    +0.000 A 
ATOM     20  C   UNL     1      -4.704  11.540  16.426  0.00  0.00    +0.000 A 
ATOM     21  C   UNL     1      -3.575  10.894  16.910  0.00  0.00    +0.000 A 
ATOM     22  C   UNL     1      -3.197  11.032  18.253  0.00  0.00    +0.000 A 
ATOM     23  C   UNL     1      -4.015  11.796  19.094  0.00  0.00    +0.000 A 
ATOM     24  C   UNL     1      -5.153  12.440  18.606  0.00  0.00    +0.000 A 
BRANCH  19  26
ATOM     25  C   UNL     1      -6.878  14.216  17.025  0.00  0.00    +0.000 C 
ATOM     26  O   UNL     1      -6.575  12.883  16.638  0.00  0.00    +0.000 OA
ENDBRANCH  19  26
ENDBRANCH  15  22
ENDBRANCH   1  16
BRANCH   1  27
ATOM     27  C   UNL     1       0.893  10.194  20.713  0.00  0.00    +0.000 C 
ATOM     28  N   UNL     1       1.330  10.253  21.894  0.00  0.00    +0.000 NA
ENDBRANCH   1  27
TORSDOF 5
ENDMDL
MODEL 9
REMARK VINA RESULT:      -7.3      7.004     10.046
REMARK  Name = 
REMARK  8 active torsions:
REMARK  status: ('A' for Active; 'I' for Inactive)
REMARK    1  A    between atoms: C_1  and  O_2
REMARK    2  A    between atoms: O_2  and  C_3
REMARK    3  A    between atoms: C_6  and  N_7
REMARK    4  A    between atoms: C_8  and  C_10
REMARK    5  A    between atoms: C_10  and  C_11
REMARK    6  A    between atoms: C_13  and  C_14
REMARK    7  A    between atoms: N_20  and  C_21
REMARK    8  A    between atoms: N_24  and  C_25
REMARK                            x       y       z     vdW  Elec       q    Type
REMARK                         _______ _______ _______ _____ _____    ______ ____
ROOT
ATOM      1  C   UNL     1       1.255   9.363  19.074  0.00  0.00    +0.000 C 
ATOM      2  C   UNL     1       0.806  10.507  18.521  0.00  0.00    +0.000 C 
ENDROOT
BRANCH   2   3
ATOM      3  C   UNL     1       0.008  11.580  19.139  0.00  0.00    +0.000 A 
ATOM      4  C   UNL     1      -1.405  11.477  19.087  0.00  0.00    +0.000 A 
ATOM      5  C   UNL     1      -2.211  12.148  20.016  0.00  0.00    +0.000 A 
ATOM      6  C   UNL     1      -1.555  12.875  20.985  0.00  0.00    +0.000 A 
ATOM      7  C   UNL     1      -0.189  13.140  20.918  0.00  0.00    +0.000 A 
ATOM      8  C   UNL     1       0.626  12.506  19.997  0.00  0.00    +0.000 A 
ATOM      9  N   UNL     1       0.196  13.900  22.063  0.00  0.00    +0.000 N 
ATOM     10  C   UNL     1       0.373  15.332  21.832  0.00  0.00    +0.000 C 
ATOM     11  C   UNL     1      -0.898  13.758  22.985  0.00  0.00    +0.000 A 
ATOM     12  O   UNL     1      -0.907  14.125  24.150  0.00  0.00    +0.000 OA
ATOM     13  N   UNL     1      -1.998  13.326  22.228  0.00  0.00    +0.000 N 
ATOM     14  C   UNL     1      -3.324  13.710  22.586  0.00  0.00    +0.000 C 
ENDBRANCH   2   3
BRANCH   1  16
ATOM     15  N   UNL     1       2.400   7.207  18.700  0.00  0.00    +0.000 N 
ATOM     16  C   UNL     1       2.072   8.454  18.206  0.00  0.00    +0.000 C 
ATOM     17  O   UNL     1       2.395   8.870  17.094  0.00  0.00    +0.000 OA
ATOM     18  H   UNL     1       1.937   6.871  19.535  0.00  0.00    +0.000 HD
BRANCH  15  22
ATOM     19  C   UNL     1       4.851   4.357  16.737  0.00  0.00    +0.000 A 
ATOM     20  C   UNL     1       5.315   5.644  16.943  0.00  0.00    +0.000 A 
ATOM     21  C   UNL     1       4.543   6.591  17.601  0.00  0.00    +0.000 A 
ATOM     22  C   UNL     1       3.249   6.274  18.040  0.00  0.00    +0.000 A 
ATOM     23  C   UNL     1       2.785   4.968  17.840  0.00  0.00    +0.000 A 
ATOM     24  C   UNL     1       3.567   4.016  17.183  0.00  0.00    +0.000 A 
BRANCH  19  26
ATOM     25  C   UNL     1       6.099   3.959  14.767  0.00  0.00    +0.000 C 
ATOM     26  O   UNL     1       5.718   3.540  16.070  0.00  0.00    +0.000 OA
ENDBRANCH  19  26
ENDBRANCH  15  22
ENDBRANCH   1  16
BRANCH   1  27
ATOM     27  C   UNL     1       0.905   9.081  20.526  0.00  0.00    +0.000 C 
ATOM     28  N   UNL     1       0.613   8.848  21.730  0.00  0.00    +0.000 NA
ENDBRANCH   1  27
TORSDOF 5
ENDMDL
