MODEL 1
REMARK VINA RESULT:      -7.5      0.000      0.000
REMARK  Name = 
REMARK  12 active torsions:
REMARK  status: ('A' for Active; 'I' for Inactive)
REMARK    1  A    between atoms: C_1  and  C_2
REMARK    2  A    between atoms: C_2  and  C_3
REMARK    3  A    between atoms: C_4  and  C_5
REMARK    4  A    between atoms: C_5  and  C_6
REMARK    5  A    between atoms: C_6  and  C_7
REMARK    6  A    between atoms: C_7  and  C_8
REMARK    7  A    between atoms: C_7  and  C_9
REMARK    8  A    between atoms: C_7  and  C_18
REMARK    9  A    between atoms: C_10  and  C_11
REMARK   10  A    between atoms: C_14  and  O_15
REMARK   11  A    between atoms: C_19  and  C_20
REMARK   12  A    between atoms: C_23  and  O_24
REMARK                            x       y       z     vdW  Elec       q    Type
REMARK                         _______ _______ _______ _____ _____    ______ ____
ROOT
ATOM      1  C   UNL     1       3.610   4.357  17.733  0.00  0.00    +0.000 C 
ATOM      2  C   UNL     1       4.608   4.219  18.906  0.00  0.00    +0.000 C 
ENDROOT
BRANCH   1   3
ATOM      3  C   UNL     1       4.286   4.492  16.370  0.00  0.00    +0.000 C 
ATOM      4  C   UNL     1       5.531   4.103  16.055  0.00  0.00    +0.000 C 
BRANCH   4   5
ATOM      5  C   UNL     1       6.061   4.213  14.698  0.00  0.00    +0.000 A 
ATOM      6  C   UNL     1       7.173   5.023  14.436  0.00  0.00    +0.000 A 
ATOM      7  C   UNL     1       7.705   5.081  13.144  0.00  0.00    +0.000 A 
ATOM      8  C   UNL     1       7.116   4.336  12.128  0.00  0.00    +0.000 A 
ATOM      9  C   UNL     1       6.001   3.540  12.375  0.00  0.00    +0.000 A 
ATOM     10  C   UNL     1       5.472   3.481  13.664  0.00  0.00    +0.000 A 
BRANCH   8  11
ATOM     11  O   UNL     1       7.609   4.352  10.856  0.00  0.00    +0.000 OA
ATOM     12  H   UNL     1       7.743   5.277  10.590  0.00  0.00    +0.000 HD
ENDBRANCH   8  11
ENDBRANCH   4   5
ENDBRANCH   1   3
BRANCH   1  13
ATOM     13  C   UNL     1       2.758   5.589  18.048  0.00  0.00    +0.000 C 
ATOM     14  C   UNL     1       3.201   6.756  18.547  0.00  0.00    +0.000 C 
BRANCH  14  15
ATOM     15  C   UNL     1       2.284   7.856  18.834  0.00  0.00    +0.000 A 
ATOM     16  C   UNL     1       1.807   8.063  20.134  0.00  0.00    +0.000 A 
ATOM     17  C   UNL     1       0.901   9.096  20.395  0.00  0.00    +0.000 A 
ATOM     18  C   UNL     1       0.478   9.913  19.351  0.00  0.00    +0.000 A 
ATOM     19  C   UNL     1       0.955   9.725  18.058  0.00  0.00    +0.000 A 
ATOM     20  C   UNL     1       1.857   8.693  17.798  0.00  0.00    +0.000 A 
BRANCH  18  21
ATOM     21  O   UNL     1      -0.420  10.918  19.555  0.00  0.00    +0.000 OA
ATOM     22  H   UNL     1       0.046  11.673  19.950  0.00  0.00    +0.000 HD
ENDBRANCH  18  21
ENDBRANCH  14  15
ENDBRANCH   1  13
BRANCH   1  23
ATOM     23  C   UNL     1       2.673   3.105  17.685  0.00  0.00    +0.000 C 
BRANCH  23  24
ATOM     24  C   UNL     1       1.302   3.324  18.344  0.00  0.00    +0.000 C 
BRANCH  24  28
ATOM     25  C   UNL     1       1.365   2.316  22.112  0.00  0.00    +0.000 C 
ATOM     26  C   UNL     1       1.411   3.163  20.872  0.00  0.00    +0.000 C 
ATOM     27  C   UNL     1       1.780   4.612  21.043  0.00  0.00    +0.000 C 
ATOM     28  C   UNL     1       1.141   2.623  19.665  0.00  0.00    +0.000 C 
ENDBRANCH  24  28
ENDBRANCH  23  24
ENDBRANCH   1  23
TORSDOF 9
ENDMDL
MODEL 2
REMARK VINA RESULT:      -7.5      4.487      7.256
REMARK  Name = 
REMARK  12 active torsions:
REMARK  status: ('A' for Active; 'I' for Inactive)
REMARK    1  A    between atoms: C_1  and  C_2
REMARK    2  A    between atoms: C_2  and  C_3
REMARK    3  A    between atoms: C_4  and  C_5
REMARK    4  A    between atoms: C_5  and  C_6
REMARK    5  A    between atoms: C_6  and  C_7
REMARK    6  A    between atoms: C_7  and  C_8
REMARK    7  A    between atoms: C_7  and  C_9
REMARK    8  A    between atoms: C_7  and  C_18
REMARK    9  A    between atoms: C_10  and  C_11
REMARK   10  A    between atoms: C_14  and  O_15
REMARK   11  A    between atoms: C_19  and  C_20
REMARK   12  A    between atoms: C_23  and  O_24
REMARK                            x       y       z     vdW  Elec       q    Type
REMARK                         _______ _______ _______ _____ _____    ______ ____
ROOT
ATOM      1  C   UNL     1       6.473   5.868  17.180  0.00  0.00    +0.000 C 
ATOM      2  C   UNL     1       7.631   4.848  17.284  0.00  0.00    +0.000 C 
ENDROOT
BRANCH   1   3
ATOM      3  C   UNL     1       6.897   7.303  17.486  0.00  0.00    +0.000 C 
ATOM      4  C   UNL     1       8.045   7.691  18.063  0.00  0.00    +0.000 C 
BRANCH   4   5
ATOM      5  C   UNL     1       8.387   9.099  18.248  0.00  0.00    +0.000 A 
ATOM      6  C   UNL     1       9.309   9.481  19.231  0.00  0.00    +0.000 A 
ATOM      7  C   UNL     1       9.669  10.825  19.365  0.00  0.00    +0.000 A 
ATOM      8  C   UNL     1       9.099  11.773  18.522  0.00  0.00    +0.000 A 
ATOM      9  C   UNL     1       8.171  11.406  17.551  0.00  0.00    +0.000 A 
ATOM     10  C   UNL     1       7.813  10.064  17.417  0.00  0.00    +0.000 A 
BRANCH   8  11
ATOM     11  O   UNL     1       9.431  13.094  18.609  0.00  0.00    +0.000 OA
ATOM     12  H   UNL     1       9.512  13.450  17.710  0.00  0.00    +0.000 HD
ENDBRANCH   8  11
ENDBRANCH   4   5
ENDBRANCH   1   3
BRANCH   1  13
ATOM     13  C   UNL     1       5.402   5.391  18.164  0.00  0.00    +0.000 C 
ATOM     14  C   UNL     1       5.247   4.137  18.624  0.00  0.00    +0.000 C 
BRANCH  14  15
ATOM     15  C   UNL     1       4.164   3.795  19.542  0.00  0.00    +0.000 A 
ATOM     16  C   UNL     1       4.152   2.558  20.198  0.00  0.00    +0.000 A 
ATOM     17  C   UNL     1       3.094   2.222  21.049  0.00  0.00    +0.000 A 
ATOM     18  C   UNL     1       2.054   3.128  21.235  0.00  0.00    +0.000 A 
ATOM     19  C   UNL     1       2.061   4.364  20.599  0.00  0.00    +0.000 A 
ATOM     20  C   UNL     1       3.116   4.698  19.749  0.00  0.00    +0.000 A 
BRANCH  18  21
ATOM     21  O   UNL     1       0.992   2.834  22.038  0.00  0.00    +0.000 OA
ATOM     22  H   UNL     1       0.879   1.870  22.060  0.00  0.00    +0.000 HD
ENDBRANCH  18  21
ENDBRANCH  14  15
ENDBRANCH   1  13
BRANCH   1  23
ATOM     23  C   UNL     1       5.870   5.840  15.737  0.00  0.00    +0.000 C 
BRANCH  23  24
ATOM     24  C   UNL     1       6.558   4.841  14.792  0.00  0.00    +0.000 C 
BRANCH  24  28
ATOM     25  C   UNL     1       4.730   3.071  11.835  0.00  0.00    +0.000 C 
ATOM     26  C   UNL     1       5.822   3.710  12.646  0.00  0.00    +0.000 C 
ATOM     27  C   UNL     1       7.139   3.948  11.957  0.00  0.00    +0.000 C 
ATOM     28  C   UNL     1       5.603   4.061  13.931  0.00  0.00    +0.000 C 
ENDBRANCH  24  28
ENDBRANCH  23  24
ENDBRANCH   1  23
TORSDOF 9
ENDMDL
MODEL 3
REMARK VINA RESULT:      -7.5      4.347      7.078
REMARK  Name = 
REMARK  12 active torsions:
REMARK  status: ('A' for Active; 'I' for Inactive)
REMARK    1  A    between atoms: C_1  and  C_2
REMARK    2  A    between atoms: C_2  and  C_3
REMARK    3  A    between atoms: C_4  and  C_5
REMARK    4  A    between atoms: C_5  and  C_6
REMARK    5  A    between atoms: C_6  and  C_7
REMARK    6  A    between atoms: C_7  and  C_8
REMARK    7  A    between atoms: C_7  and  C_9
REMARK    8  A    between atoms: C_7  and  C_18
REMARK    9  A    between atoms: C_10  and  C_11
REMARK   10  A    between atoms: C_14  and  O_15
REMARK   11  A    between atoms: C_19  and  C_20
REMARK   12  A    between atoms: C_23  and  O_24
REMARK                            x       y       z     vdW  Elec       q    Type
REMARK                         _______ _______ _______ _____ _____    ______ ____
ROOT
ATOM      1  C   UNL     1       6.714   5.740  16.918  0.00  0.00    +0.000 C 
ATOM      2  C   UNL     1       7.889   4.757  17.130  0.00  0.00    +0.000 C 
ENDROOT
BRANCH   1   3
ATOM      3  C   UNL     1       7.052   7.181  17.292  0.00  0.00    +0.000 C 
ATOM      4  C   UNL     1       8.090   7.590  18.038  0.00  0.00    +0.000 C 
BRANCH   4   5
ATOM      5  C   UNL     1       8.367   9.004  18.280  0.00  0.00    +0.000 A 
ATOM      6  C   UNL     1       9.195   9.393  19.340  0.00  0.00    +0.000 A 
ATOM      7  C   UNL     1       9.496  10.745  19.531  0.00  0.00    +0.000 A 
ATOM      8  C   UNL     1       8.960  11.694  18.666  0.00  0.00    +0.000 A 
ATOM      9  C   UNL     1       8.124  11.319  17.618  0.00  0.00    +0.000 A 
ATOM     10  C   UNL     1       7.825   9.970  17.427  0.00  0.00    +0.000 A 
BRANCH   8  11
ATOM     11  O   UNL     1       9.237  13.022  18.808  0.00  0.00    +0.000 OA
ATOM     12  H   UNL     1       8.429  13.526  18.620  0.00  0.00    +0.000 HD
ENDBRANCH   8  11
ENDBRANCH   4   5
ENDBRANCH   1   3
BRANCH   1  13
ATOM     13  C   UNL     1       5.561   5.208  17.772  0.00  0.00    +0.000 C 
ATOM     14  C   UNL     1       4.259   5.197  17.433  0.00  0.00    +0.000 C 
BRANCH  14  15
ATOM     15  C   UNL     1       3.242   4.688  18.348  0.00  0.00    +0.000 A 
ATOM     16  C   UNL     1       2.958   5.360  19.543  0.00  0.00    +0.000 A 
ATOM     17  C   UNL     1       2.008   4.847  20.431  0.00  0.00    +0.000 A 
ATOM     18  C   UNL     1       1.349   3.663  20.116  0.00  0.00    +0.000 A 
ATOM     19  C   UNL     1       1.613   2.992  18.927  0.00  0.00    +0.000 A 
ATOM     20  C   UNL     1       2.563   3.504  18.042  0.00  0.00    +0.000 A 
BRANCH  18  21
ATOM     21  O   UNL     1       0.431   3.115  20.963  0.00  0.00    +0.000 OA
ATOM     22  H   UNL     1       0.774   3.171  21.869  0.00  0.00    +0.000 HD
ENDBRANCH  18  21
ENDBRANCH  14  15
ENDBRANCH   1  13
BRANCH   1  23
ATOM     23  C   UNL     1       6.272   5.721  15.418  0.00  0.00    +0.000 C 
BRANCH  23  24
ATOM     24  C   UNL     1       6.658   4.435  14.668  0.00  0.00    +0.000 C 
BRANCH  24  28
ATOM     25  C   UNL     1       4.498   3.203  11.663  0.00  0.00    +0.000 C 
ATOM     26  C   UNL     1       5.698   3.588  12.480  0.00  0.00    +0.000 C 
ATOM     27  C   UNL     1       7.025   3.632  11.772  0.00  0.00    +0.000 C 
ATOM     28  C   UNL     1       5.566   3.891  13.789  0.00  0.00    +0.000 C 
ENDBRANCH  24  28
ENDBRANCH  23  24
ENDBRANCH   1  23
TORSDOF 9
ENDMDL
MODEL 4
REMARK VINA RESULT:      -7.5      2.070      8.225
REMARK  Name = 
REMARK  12 active torsions:
REMARK  status: ('A' for Active; 'I' for Inactive)
REMARK    1  A    between atoms: C_1  and  C_2
REMARK    2  A    between atoms: C_2  and  C_3
REMARK    3  A    between atoms: C_4  and  C_5
REMARK    4  A    between atoms: C_5  and  C_6
REMARK    5  A    between atoms: C_6  and  C_7
REMARK    6  A    between atoms: C_7  and  C_8
REMARK    7  A    between atoms: C_7  and  C_9
REMARK    8  A    between atoms: C_7  and  C_18
REMARK    9  A    between atoms: C_10  and  C_11
REMARK   10  A    between atoms: C_14  and  O_15
REMARK   11  A    between atoms: C_19  and  C_20
REMARK   12  A    between atoms: C_23  and  O_24
REMARK                            x       y       z     vdW  Elec       q    Type
REMARK                         _______ _______ _______ _____ _____    ______ ____
ROOT
ATOM      1  C   UNL     1       4.952   4.675  18.376  0.00  0.00    +0.000 C 
ATOM      2  C   UNL     1       4.255   3.388  18.875  0.00  0.00    +0.000 C 
ENDROOT
BRANCH   1   3
ATOM      3  C   UNL     1       4.030   5.892  18.340  0.00  0.00    +0.000 C 
ATOM      4  C   UNL     1       3.109   6.224  19.258  0.00  0.00    +0.000 C 
BRANCH   4   5
ATOM      5  C   UNL     1       2.324   7.452  19.166  0.00  0.00    +0.000 A 
ATOM      6  C   UNL     1       1.669   7.961  20.294  0.00  0.00    +0.000 A 
ATOM      7  C   UNL     1       0.963   9.165  20.208  0.00  0.00    +0.000 A 
ATOM      8  C   UNL     1       0.913   9.843  18.994  0.00  0.00    +0.000 A 
ATOM      9  C   UNL     1       1.548   9.338  17.863  0.00  0.00    +0.000 A 
ATOM     10  C   UNL     1       2.254   8.137  17.950  0.00  0.00    +0.000 A 
BRANCH   8  11
ATOM     11  O   UNL     1       0.247  11.027  18.868  0.00  0.00    +0.000 OA
ATOM     12  H   UNL     1      -0.065  11.108  17.952  0.00  0.00    +0.000 HD
ENDBRANCH   8  11
ENDBRANCH   4   5
ENDBRANCH   1   3
BRANCH   1  13
ATOM     13  C   UNL     1       5.486   4.350  16.979  0.00  0.00    +0.000 C 
ATOM     14  C   UNL     1       5.233   5.036  15.851  0.00  0.00    +0.000 C 
BRANCH  14  15
ATOM     15  C   UNL     1       5.780   4.610  14.565  0.00  0.00    +0.000 A 
ATOM     16  C   UNL     1       5.056   3.746  13.735  0.00  0.00    +0.000 A 
ATOM     17  C   UNL     1       5.601   3.314  12.522  0.00  0.00    +0.000 A 
ATOM     18  C   UNL     1       6.868   3.751  12.149  0.00  0.00    +0.000 A 
ATOM     19  C   UNL     1       7.591   4.619  12.959  0.00  0.00    +0.000 A 
ATOM     20  C   UNL     1       7.048   5.048  14.170  0.00  0.00    +0.000 A 
BRANCH  18  21
ATOM     21  O   UNL     1       7.447   3.338  10.986  0.00  0.00    +0.000 OA
ATOM     22  H   UNL     1       8.376   3.619  10.987  0.00  0.00    +0.000 HD
ENDBRANCH  18  21
ENDBRANCH  14  15
ENDBRANCH   1  13
BRANCH   1  23
ATOM     23  C   UNL     1       6.164   5.015  19.305  0.00  0.00    +0.000 C 
BRANCH  23  24
ATOM     24  C   UNL     1       7.472   5.294  18.548  0.00  0.00    +0.000 C 
BRANCH  24  28
ATOM     25  C   UNL     1       8.661   9.008  18.425  0.00  0.00    +0.000 C 
ATOM     26  C   UNL     1       7.880   7.760  18.123  0.00  0.00    +0.000 C 
ATOM     27  C   UNL     1       6.900   7.823  16.983  0.00  0.00    +0.000 C 
ATOM     28  C   UNL     1       8.075   6.639  18.848  0.00  0.00    +0.000 C 
ENDBRANCH  24  28
ENDBRANCH  23  24
ENDBRANCH   1  23
TORSDOF 9
ENDMDL
MODEL 5
REMARK VINA RESULT:      -7.4      2.209      3.396
REMARK  Name = 
REMARK  12 active torsions:
REMARK  status: ('A' for Active; 'I' for Inactive)
REMARK    1  A    between atoms: C_1  and  C_2
REMARK    2  A    between atoms: C_2  and  C_3
REMARK    3  A    between atoms: C_4  and  C_5
REMARK    4  A    between atoms: C_5  and  C_6
REMARK    5  A    between atoms: C_6  and  C_7
REMARK    6  A    between atoms: C_7  and  C_8
REMARK    7  A    between atoms: C_7  and  C_9
REMARK    8  A    between atoms: C_7  and  C_18
REMARK    9  A    between atoms: C_10  and  C_11
REMARK   10  A    between atoms: C_14  and  O_15
REMARK   11  A    between atoms: C_19  and  C_20
REMARK   12  A    between atoms: C_23  and  O_24
REMARK                            x       y       z     vdW  Elec       q    Type
REMARK                         _______ _______ _______ _____ _____    ______ ____
ROOT
ATOM      1  C   UNL     1       1.904   5.060  20.419  0.00  0.00    +0.000 C 
ATOM      2  C   UNL     1       2.542   4.582  21.743  0.00  0.00    +0.000 C 
ENDROOT
BRANCH   1   3
ATOM      3  C   UNL     1       2.910   5.223  19.282  0.00  0.00    +0.000 C 
ATOM      4  C   UNL     1       4.246   5.275  19.400  0.00  0.00    +0.000 C 
BRANCH   4   5
ATOM      5  C   UNL     1       5.128   5.363  18.239  0.00  0.00    +0.000 A 
ATOM      6  C   UNL     1       6.415   4.811  18.283  0.00  0.00    +0.000 A 
ATOM      7  C   UNL     1       7.232   4.854  17.150  0.00  0.00    +0.000 A 
ATOM      8  C   UNL     1       6.757   5.453  15.987  0.00  0.00    +0.000 A 
ATOM      9  C   UNL     1       5.486   6.017  15.937  0.00  0.00    +0.000 A 
ATOM     10  C   UNL     1       4.671   5.974  17.068  0.00  0.00    +0.000 A 
BRANCH   8  11
ATOM     11  O   UNL     1       7.516   5.506  14.854  0.00  0.00    +0.000 OA
ATOM     12  H   UNL     1       7.303   4.733  14.306  0.00  0.00    +0.000 HD
ENDBRANCH   8  11
ENDBRANCH   4   5
ENDBRANCH   1   3
BRANCH   1  13
ATOM     13  C   UNL     1       1.216   6.390  20.738  0.00  0.00    +0.000 C 
ATOM     14  C   UNL     1       1.706   7.618  20.492  0.00  0.00    +0.000 C 
BRANCH  14  15
ATOM     15  C   UNL     1       0.967   8.819  20.870  0.00  0.00    +0.000 A 
ATOM     16  C   UNL     1       0.581   9.029  22.199  0.00  0.00    +0.000 A 
ATOM     17  C   UNL     1      -0.157  10.163  22.548  0.00  0.00    +0.000 A 
ATOM     18  C   UNL     1      -0.506  11.080  21.561  0.00  0.00    +0.000 A 
ATOM     19  C   UNL     1      -0.118  10.890  20.240  0.00  0.00    +0.000 A 
ATOM     20  C   UNL     1       0.617   9.756  19.892  0.00  0.00    +0.000 A 
BRANCH  18  21
ATOM     21  O   UNL     1      -1.244  12.189  21.852  0.00  0.00    +0.000 OA
ATOM     22  H   UNL     1      -2.184  11.946  21.846  0.00  0.00    +0.000 HD
ENDBRANCH  18  21
ENDBRANCH  14  15
ENDBRANCH   1  13
BRANCH   1  23
ATOM     23  C   UNL     1       0.815   4.037  19.956  0.00  0.00    +0.000 C 
BRANCH  23  24
ATOM     24  C   UNL     1       1.252   2.567  20.066  0.00  0.00    +0.000 C 
BRANCH  24  28
ATOM     25  C   UNL     1       3.985   1.459  17.513  0.00  0.00    +0.000 C 
ATOM     26  C   UNL     1       3.323   1.809  18.816  0.00  0.00    +0.000 C 
ATOM     27  C   UNL     1       4.201   1.879  20.036  0.00  0.00    +0.000 C 
ATOM     28  C   UNL     1       1.998   2.061  18.862  0.00  0.00    +0.000 C 
ENDBRANCH  24  28
ENDBRANCH  23  24
ENDBRANCH   1  23
TORSDOF 9
ENDMDL
MODEL 6
REMARK VINA RESULT:      -7.4      4.455      7.276
REMARK  Name = 
REMARK  12 active torsions:
REMARK  status: ('A' for Active; 'I' for Inactive)
REMARK    1  A    between atoms: C_1  and  C_2
REMARK    2  A    between atoms: C_2  and  C_3
REMARK    3  A    between atoms: C_4  and  C_5
REMARK    4  A    between atoms: C_5  and  C_6
REMARK    5  A    between atoms: C_6  and  C_7
REMARK    6  A    between atoms: C_7  and  C_8
REMARK    7  A    between atoms: C_7  and  C_9
REMARK    8  A    between atoms: C_7  and  C_18
REMARK    9  A    between atoms: C_10  and  C_11
REMARK   10  A    between atoms: C_14  and  O_15
REMARK   11  A    between atoms: C_19  and  C_20
REMARK   12  A    between atoms: C_23  and  O_24
REMARK                            x       y       z     vdW  Elec       q    Type
REMARK                         _______ _______ _______ _____ _____    ______ ____
ROOT
ATOM      1  C   UNL     1       6.470   5.863  17.284  0.00  0.00    +0.000 C 
ATOM      2  C   UNL     1       7.626   4.840  17.370  0.00  0.00    +0.000 C 
ENDROOT
BRANCH   1   3
ATOM      3  C   UNL     1       6.891   7.288  17.636  0.00  0.00    +0.000 C 
ATOM      4  C   UNL     1       8.112   7.686  18.029  0.00  0.00    +0.000 C 
BRANCH   4   5
ATOM      5  C   UNL     1       8.432   9.090  18.274  0.00  0.00    +0.000 A 
ATOM      6  C   UNL     1       7.962  10.086  17.408  0.00  0.00    +0.000 A 
ATOM      7  C   UNL     1       8.229  11.431  17.680  0.00  0.00    +0.000 A 
ATOM      8  C   UNL     1       8.970  11.766  18.809  0.00  0.00    +0.000 A 
ATOM      9  C   UNL     1       9.454  10.784  19.668  0.00  0.00    +0.000 A 
ATOM     10  C   UNL     1       9.186   9.441  19.396  0.00  0.00    +0.000 A 
BRANCH   8  11
ATOM     11  O   UNL     1       9.243  13.066  19.120  0.00  0.00    +0.000 OA
ATOM     12  H   UNL     1       8.561  13.385  19.733  0.00  0.00    +0.000 HD
ENDBRANCH   8  11
ENDBRANCH   4   5
ENDBRANCH   1   3
BRANCH   1  13
ATOM     13  C   UNL     1       5.389   5.359  18.243  0.00  0.00    +0.000 C 
ATOM     14  C   UNL     1       4.827   4.137  18.237  0.00  0.00    +0.000 C 
BRANCH  14  15
ATOM     15  C   UNL     1       3.779   3.779  19.188  0.00  0.00    +0.000 A 
ATOM     16  C   UNL     1       4.019   2.827  20.187  0.00  0.00    +0.000 A 
ATOM     17  C   UNL     1       3.000   2.463  21.072  0.00  0.00    +0.000 A 
ATOM     18  C   UNL     1       1.746   3.054  20.950  0.00  0.00    +0.000 A 
ATOM     19  C   UNL     1       1.499   4.009  19.970  0.00  0.00    +0.000 A 
ATOM     20  C   UNL     1       2.516   4.371  19.085  0.00  0.00    +0.000 A 
BRANCH  18  21
ATOM     21  O   UNL     1       0.717   2.713  21.777  0.00  0.00    +0.000 OA
ATOM     22  H   UNL     1       0.626   1.747  21.774  0.00  0.00    +0.000 HD
ENDBRANCH  18  21
ENDBRANCH  14  15
ENDBRANCH   1  13
BRANCH   1  23
ATOM     23  C   UNL     1       5.882   5.877  15.835  0.00  0.00    +0.000 C 
BRANCH  23  24
ATOM     24  C   UNL     1       6.508   4.834  14.896  0.00  0.00    +0.000 C 
BRANCH  24  28
ATOM     25  C   UNL     1       4.629   3.235  11.875  0.00  0.00    +0.000 C 
ATOM     26  C   UNL     1       5.746   3.771  12.724  0.00  0.00    +0.000 C 
ATOM     27  C   UNL     1       7.104   3.880  12.084  0.00  0.00    +0.000 C 
ATOM     28  C   UNL     1       5.516   4.145  14.000  0.00  0.00    +0.000 C 
ENDBRANCH  24  28
ENDBRANCH  23  24
ENDBRANCH   1  23
TORSDOF 9
ENDMDL
MODEL 7
REMARK VINA RESULT:      -7.3      4.521      7.749
REMARK  Name = 
REMARK  12 active torsions:
REMARK  status: ('A' for Active; 'I' for Inactive)
REMARK    1  A    between atoms: C_1  and  C_2
REMARK    2  A    between atoms: C_2  and  C_3
REMARK    3  A    between atoms: C_4  and  C_5
REMARK    4  A    between atoms: C_5  and  C_6
REMARK    5  A    between atoms: C_6  and  C_7
REMARK    6  A    between atoms: C_7  and  C_8
REMARK    7  A    between atoms: C_7  and  C_9
REMARK    8  A    between atoms: C_7  and  C_18
REMARK    9  A    between atoms: C_10  and  C_11
REMARK   10  A    between atoms: C_14  and  O_15
REMARK   11  A    between atoms: C_19  and  C_20
REMARK   12  A    between atoms: C_23  and  O_24
REMARK                            x       y       z     vdW  Elec       q    Type
REMARK                         _______ _______ _______ _____ _____    ______ ____
ROOT
ATOM      1  C   UNL     1       5.867   6.418  16.964  0.00  0.00    +0.000 C 
ATOM      2  C   UNL     1       4.972   6.856  15.782  0.00  0.00    +0.000 C 
ENDROOT
BRANCH   1   3
ATOM      3  C   UNL     1       5.103   5.692  18.069  0.00  0.00    +0.000 C 
ATOM      4  C   UNL     1       3.804   5.356  18.054  0.00  0.00    +0.000 C 
BRANCH   4   5
ATOM      5  C   UNL     1       3.183   4.597  19.137  0.00  0.00    +0.000 A 
ATOM      6  C   UNL     1       3.748   3.392  19.571  0.00  0.00    +0.000 A 
ATOM      7  C   UNL     1       3.177   2.698  20.642  0.00  0.00    +0.000 A 
ATOM      8  C   UNL     1       2.042   3.213  21.262  0.00  0.00    +0.000 A 
ATOM      9  C   UNL     1       1.463   4.402  20.828  0.00  0.00    +0.000 A 
ATOM     10  C   UNL     1       2.035   5.094  19.760  0.00  0.00    +0.000 A 
BRANCH   8  11
ATOM     11  O   UNL     1       1.459   2.577  22.319  0.00  0.00    +0.000 OA
ATOM     12  H   UNL     1       2.145   2.387  22.980  0.00  0.00    +0.000 HD
ENDBRANCH   8  11
ENDBRANCH   4   5
ENDBRANCH   1   3
BRANCH   1  13
ATOM     13  C   UNL     1       6.518   7.696  17.495  0.00  0.00    +0.000 C 
ATOM     14  C   UNL     1       7.833   7.980  17.495  0.00  0.00    +0.000 C 
BRANCH  14  15
ATOM     15  C   UNL     1       8.341   9.227  18.059  0.00  0.00    +0.000 A 
ATOM     16  C   UNL     1       9.023   9.229  19.282  0.00  0.00    +0.000 A 
ATOM     17  C   UNL     1       9.475  10.431  19.833  0.00  0.00    +0.000 A 
ATOM     18  C   UNL     1       9.240  11.624  19.157  0.00  0.00    +0.000 A 
ATOM     19  C   UNL     1       8.576  11.634  17.936  0.00  0.00    +0.000 A 
ATOM     20  C   UNL     1       8.123  10.434  17.386  0.00  0.00    +0.000 A 
BRANCH  18  21
ATOM     21  O   UNL     1       9.645  12.822  19.668  0.00  0.00    +0.000 OA
ATOM     22  H   UNL     1       9.681  12.748  20.635  0.00  0.00    +0.000 HD
ENDBRANCH  18  21
ENDBRANCH  14  15
ENDBRANCH   1  13
BRANCH   1  23
ATOM     23  C   UNL     1       6.994   5.463  16.449  0.00  0.00    +0.000 C 
BRANCH  23  24
ATOM     24  C   UNL     1       6.493   4.353  15.512  0.00  0.00    +0.000 C 
BRANCH  24  28
ATOM     25  C   UNL     1       7.234   3.944  11.704  0.00  0.00    +0.000 C 
ATOM     26  C   UNL     1       6.478   4.002  13.001  0.00  0.00    +0.000 C 
ATOM     27  C   UNL     1       5.032   3.588  12.972  0.00  0.00    +0.000 C 
ATOM     28  C   UNL     1       7.094   4.399  14.134  0.00  0.00    +0.000 C 
ENDBRANCH  24  28
ENDBRANCH  23  24
ENDBRANCH   1  23
TORSDOF 9
ENDMDL
MODEL 8
REMARK VINA RESULT:      -7.3      2.144      3.628
REMARK  Name = 
REMARK  12 active torsions:
REMARK  status: ('A' for Active; 'I' for Inactive)
REMARK    1  A    between atoms: C_1  and  C_2
REMARK    2  A    between atoms: C_2  and  C_3
REMARK    3  A    between atoms: C_4  and  C_5
REMARK    4  A    between atoms: C_5  and  C_6
REMARK    5  A    between atoms: C_6  and  C_7
REMARK    6  A    between atoms: C_7  and  C_8
REMARK    7  A    between atoms: C_7  and  C_9
REMARK    8  A    between atoms: C_7  and  C_18
REMARK    9  A    between atoms: C_10  and  C_11
REMARK   10  A    between atoms: C_14  and  O_15
REMARK   11  A    between atoms: C_19  and  C_20
REMARK   12  A    between atoms: C_23  and  O_24
REMARK                            x       y       z     vdW  Elec       q    Type
REMARK                         _______ _______ _______ _____ _____    ______ ____
ROOT
ATOM      1  C   UNL     1       1.893   5.061  20.432  0.00  0.00    +0.000 C 
ATOM      2  C   UNL     1       2.527   4.569  21.754  0.00  0.00    +0.000 C 
ENDROOT
BRANCH   1   3
ATOM      3  C   UNL     1       2.899   5.212  19.293  0.00  0.00    +0.000 C 
ATOM      4  C   UNL     1       4.235   5.260  19.410  0.00  0.00    +0.000 C 
BRANCH   4   5
ATOM      5  C   UNL     1       5.116   5.335  18.247  0.00  0.00    +0.000 A 
ATOM      6  C   UNL     1       4.622   5.067  16.965  0.00  0.00    +0.000 A 
ATOM      7  C   UNL     1       5.459   5.192  15.853  0.00  0.00    +0.000 A 
ATOM      8  C   UNL     1       6.784   5.576  16.035  0.00  0.00    +0.000 A 
ATOM      9  C   UNL     1       7.290   5.831  17.306  0.00  0.00    +0.000 A 
ATOM     10  C   UNL     1       6.453   5.707  18.415  0.00  0.00    +0.000 A 
BRANCH   8  11
ATOM     11  O   UNL     1       7.633   5.724  14.977  0.00  0.00    +0.000 OA
ATOM     12  H   UNL     1       7.404   5.062  14.304  0.00  0.00    +0.000 HD
ENDBRANCH   8  11
ENDBRANCH   4   5
ENDBRANCH   1   3
BRANCH   1  13
ATOM     13  C   UNL     1       1.227   6.400  20.756  0.00  0.00    +0.000 C 
ATOM     14  C   UNL     1       1.734   7.621  20.512  0.00  0.00    +0.000 C 
BRANCH  14  15
ATOM     15  C   UNL     1       1.014   8.832  20.895  0.00  0.00    +0.000 A 
ATOM     16  C   UNL     1       0.869   9.890  19.989  0.00  0.00    +0.000 A 
ATOM     17  C   UNL     1       0.210  11.061  20.374  0.00  0.00    +0.000 A 
ATOM     18  C   UNL     1      -0.299  11.166  21.665  0.00  0.00    +0.000 A 
ATOM     19  C   UNL     1      -0.172  10.117  22.569  0.00  0.00    +0.000 A 
ATOM     20  C   UNL     1       0.488   8.949  22.186  0.00  0.00    +0.000 A 
BRANCH  18  21
ATOM     21  O   UNL     1      -0.930  12.297  22.090  0.00  0.00    +0.000 OA
ATOM     22  H   UNL     1      -1.046  12.890  21.330  0.00  0.00    +0.000 HD
ENDBRANCH  18  21
ENDBRANCH  14  15
ENDBRANCH   1  13
BRANCH   1  23
ATOM     23  C   UNL     1       0.787   4.055  19.969  0.00  0.00    +0.000 C 
BRANCH  23  24
ATOM     24  C   UNL     1       1.196   2.578  20.090  0.00  0.00    +0.000 C 
BRANCH  24  28
ATOM     25  C   UNL     1       3.921   1.412  17.554  0.00  0.00    +0.000 C 
ATOM     26  C   UNL     1       3.260   1.782  18.851  0.00  0.00    +0.000 C 
ATOM     27  C   UNL     1       4.136   1.852  20.073  0.00  0.00    +0.000 C 
ATOM     28  C   UNL     1       1.938   2.051  18.893  0.00  0.00    +0.000 C 
ENDBRANCH  24  28
ENDBRANCH  23  24
ENDBRANCH   1  23
TORSDOF 9
ENDMDL
MODEL 9
REMARK VINA RESULT:      -7.2      1.246      1.668
REMARK  Name = 
REMARK  12 active torsions:
REMARK  status: ('A' for Active; 'I' for Inactive)
REMARK    1  A    between atoms: C_1  and  C_2
REMARK    2  A    between atoms: C_2  and  C_3
REMARK    3  A    between atoms: C_4  and  C_5
REMARK    4  A    between atoms: C_5  and  C_6
REMARK    5  A    between atoms: C_6  and  C_7
REMARK    6  A    between atoms: C_7  and  C_8
REMARK    7  A    between atoms: C_7  and  C_9
REMARK    8  A    between atoms: C_7  and  C_18
REMARK    9  A    between atoms: C_10  and  C_11
REMARK   10  A    between atoms: C_14  and  O_15
REMARK   11  A    between atoms: C_19  and  C_20
REMARK   12  A    between atoms: C_23  and  O_24
REMARK                            x       y       z     vdW  Elec       q    Type
REMARK                         _______ _______ _______ _____ _____    ______ ____
ROOT
ATOM      1  C   UNL     1       5.416   5.126  18.422  0.00  0.00    +0.000 C 
ATOM      2  C   UNL     1       6.700   5.606  19.138  0.00  0.00    +0.000 C 
ENDROOT
BRANCH   1   3
ATOM      3  C   UNL     1       5.649   4.702  16.974  0.00  0.00    +0.000 C 
ATOM      4  C   UNL     1       6.222   5.438  16.008  0.00  0.00    +0.000 C 
BRANCH   4   5
ATOM      5  C   UNL     1       6.463   4.911  14.667  0.00  0.00    +0.000 A 
ATOM      6  C   UNL     1       7.515   5.411  13.889  0.00  0.00    +0.000 A 
ATOM      7  C   UNL     1       7.770   4.865  12.628  0.00  0.00    +0.000 A 
ATOM      8  C   UNL     1       6.968   3.831  12.155  0.00  0.00    +0.000 A 
ATOM      9  C   UNL     1       5.911   3.338  12.914  0.00  0.00    +0.000 A 
ATOM     10  C   UNL     1       5.657   3.883  14.173  0.00  0.00    +0.000 A 
BRANCH   8  11
ATOM     11  O   UNL     1       7.189   3.260  10.936  0.00  0.00    +0.000 OA
ATOM     12  H   UNL     1       8.100   2.924  10.915  0.00  0.00    +0.000 HD
ENDBRANCH   8  11
ENDBRANCH   4   5
ENDBRANCH   1   3
BRANCH   1  13
ATOM     13  C   UNL     1       4.429   6.294  18.500  0.00  0.00    +0.000 C 
ATOM     14  C   UNL     1       3.310   6.342  19.243  0.00  0.00    +0.000 C 
BRANCH  14  15
ATOM     15  C   UNL     1       2.428   7.505  19.212  0.00  0.00    +0.000 A 
ATOM     16  C   UNL     1       1.759   7.922  20.370  0.00  0.00    +0.000 A 
ATOM     17  C   UNL     1       0.889   9.015  20.325  0.00  0.00    +0.000 A 
ATOM     18  C   UNL     1       0.692   9.682  19.120  0.00  0.00    +0.000 A 
ATOM     19  C   UNL     1       1.360   9.286  17.967  0.00  0.00    +0.000 A 
ATOM     20  C   UNL     1       2.227   8.194  18.012  0.00  0.00    +0.000 A 
BRANCH  18  21
ATOM     21  O   UNL     1      -0.164  10.739  19.026  0.00  0.00    +0.000 OA
ATOM     22  H   UNL     1      -1.068  10.397  18.935  0.00  0.00    +0.000 HD
ENDBRANCH  18  21
ENDBRANCH  14  15
ENDBRANCH   1  13
BRANCH   1  23
ATOM     23  C   UNL     1       4.805   3.908  19.190  0.00  0.00    +0.000 C 
BRANCH  23  24
ATOM     24  C   UNL     1       4.114   2.879  18.280  0.00  0.00    +0.000 C 
BRANCH  24  28
ATOM     25  C   UNL     1       0.336   2.544  19.190  0.00  0.00    +0.000 C 
ATOM     26  C   UNL     1       1.592   2.994  18.498  0.00  0.00    +0.000 C 
ATOM     27  C   UNL     1       1.461   4.112  17.498  0.00  0.00    +0.000 C 
ATOM     28  C   UNL     1       2.776   2.417  18.787  0.00  0.00    +0.000 C 
ENDBRANCH  24  28
ENDBRANCH  23  24
ENDBRANCH   1  23
TORSDOF 9
ENDMDL
