MODEL 1
REMARK VINA RESULT:      -7.6      0.000      0.000
REMARK  Name = 
REMARK  4 active torsions:
REMARK  status: ('A' for Active; 'I' for Inactive)
REMARK    1  A    between atoms: C_1  and  C_2
REMARK    2  A    between atoms: C_8  and  C_9
REMARK    3  A    between atoms: N_13  and  S_14
REMARK    4  A    between atoms: S_14  and  C_15
REMARK                            x       y       z     vdW  Elec       q    Type
REMARK                         _______ _______ _______ _____ _____    ______ ____
ROOT
ATOM      1  C   UNL     1       4.884   4.403  18.852  0.00  0.00    +0.000 A 
ATOM      2  N   UNL     1       6.060   4.876  19.217  0.00  0.00    +0.000 NA
ATOM      3  N   UNL     1       6.913   4.690  18.149  0.00  0.00    +0.000 NA
ATOM      4  C   UNL     1       6.186   4.178  17.183  0.00  0.00    +0.000 A 
ATOM      5  N   UNL     1       6.765   3.741  15.978  0.00  0.00    +0.000 N 
ATOM      6  O   UNL     1       4.889   3.970  17.546  0.00  0.00    +0.000 OA
ATOM      7  H   UNL     1       7.745   3.499  16.106  0.00  0.00    +0.000 HD
ENDROOT
BRANCH   1  15
ATOM      8  C   UNL     1       2.667   6.451  18.783  0.00  0.00    +0.000 C 
ATOM      9  C   UNL     1       2.596   5.184  19.598  0.00  0.00    +0.000 A 
ATOM     10  C   UNL     1       1.434   4.966  20.370  0.00  0.00    +0.000 A 
ATOM     11  C   UNL     1       1.302   3.821  21.151  0.00  0.00    +0.000 A 
ATOM     12  C   UNL     1       2.329   2.893  21.171  0.00  0.00    +0.000 A 
ATOM     13  F   UNL     1       2.209   1.795  21.928  0.00  0.00    +0.000 F 
ATOM     14  C   UNL     1       3.484   3.083  20.420  0.00  0.00    +0.000 A 
ATOM     15  C   UNL     1       3.643   4.226  19.616  0.00  0.00    +0.000 A 
ENDBRANCH   1  15
BRANCH   5  16
ATOM     16  S   UNL     1       6.653   4.889  14.760  0.00  0.00    +0.000 S 
ATOM     17  C   UNL     1       6.111   3.966  13.321  0.00  0.00    +0.000 C 
ATOM     18  O   UNL     1       5.561   5.757  15.136  0.00  0.00    +0.000 OA
ATOM     19  O   UNL     1       7.972   5.423  14.490  0.00  0.00    +0.000 OA
ENDBRANCH   5  16
TORSDOF 2
ENDMDL
MODEL 2
REMARK VINA RESULT:      -7.6      1.220      2.007
REMARK  Name = 
REMARK  4 active torsions:
REMARK  status: ('A' for Active; 'I' for Inactive)
REMARK    1  A    between atoms: C_1  and  C_2
REMARK    2  A    between atoms: C_8  and  C_9
REMARK    3  A    between atoms: N_13  and  S_14
REMARK    4  A    between atoms: S_14  and  C_15
REMARK                            x       y       z     vdW  Elec       q    Type
REMARK                         _______ _______ _______ _____ _____    ______ ____
ROOT
ATOM      1  C   UNL     1       5.160   4.484  18.825  0.00  0.00    +0.000 A 
ATOM      2  N   UNL     1       6.329   5.008  19.139  0.00  0.00    +0.000 NA
ATOM      3  N   UNL     1       7.153   4.827  18.048  0.00  0.00    +0.000 NA
ATOM      4  C   UNL     1       6.414   4.266  17.119  0.00  0.00    +0.000 A 
ATOM      5  N   UNL     1       6.968   3.821  15.905  0.00  0.00    +0.000 N 
ATOM      6  O   UNL     1       5.137   4.021  17.530  0.00  0.00    +0.000 OA
ATOM      7  H   UNL     1       7.960   3.617  16.005  0.00  0.00    +0.000 HD
ENDROOT
BRANCH   1  15
ATOM      8  C   UNL     1       4.435   1.780  19.957  0.00  0.00    +0.000 C 
ATOM      9  C   UNL     1       3.595   3.016  20.166  0.00  0.00    +0.000 A 
ATOM     10  C   UNL     1       2.408   2.881  20.919  0.00  0.00    +0.000 A 
ATOM     11  C   UNL     1       1.581   3.977  21.147  0.00  0.00    +0.000 A 
ATOM     12  C   UNL     1       1.929   5.209  20.620  0.00  0.00    +0.000 A 
ATOM     13  F   UNL     1       1.131   6.264  20.830  0.00  0.00    +0.000 F 
ATOM     14  C   UNL     1       3.092   5.369  19.874  0.00  0.00    +0.000 A 
ATOM     15  C   UNL     1       3.951   4.282  19.633  0.00  0.00    +0.000 A 
ENDBRANCH   1  15
BRANCH   5  16
ATOM     16  S   UNL     1       6.775   4.934  14.665  0.00  0.00    +0.000 S 
ATOM     17  C   UNL     1       6.163   3.968  13.284  0.00  0.00    +0.000 C 
ATOM     18  O   UNL     1       5.696   5.802  15.080  0.00  0.00    +0.000 OA
ATOM     19  O   UNL     1       8.071   5.474  14.307  0.00  0.00    +0.000 OA
ENDBRANCH   5  16
TORSDOF 2
ENDMDL
MODEL 3
REMARK VINA RESULT:      -7.4      0.890      1.057
REMARK  Name = 
REMARK  4 active torsions:
REMARK  status: ('A' for Active; 'I' for Inactive)
REMARK    1  A    between atoms: C_1  and  C_2
REMARK    2  A    between atoms: C_8  and  C_9
REMARK    3  A    between atoms: N_13  and  S_14
REMARK    4  A    between atoms: S_14  and  C_15
REMARK                            x       y       z     vdW  Elec       q    Type
REMARK                         _______ _______ _______ _____ _____    ______ ____
ROOT
ATOM      1  C   UNL     1       4.824   4.301  18.838  0.00  0.00    +0.000 A 
ATOM      2  N   UNL     1       6.002   4.770  19.203  0.00  0.00    +0.000 NA
ATOM      3  N   UNL     1       6.853   4.586  18.134  0.00  0.00    +0.000 NA
ATOM      4  C   UNL     1       6.124   4.079  17.167  0.00  0.00    +0.000 A 
ATOM      5  N   UNL     1       6.701   3.645  15.959  0.00  0.00    +0.000 N 
ATOM      6  O   UNL     1       4.827   3.873  17.530  0.00  0.00    +0.000 OA
ATOM      7  H   UNL     1       7.681   3.401  16.085  0.00  0.00    +0.000 HD
ENDROOT
BRANCH   1  15
ATOM      8  C   UNL     1       2.566   6.300  18.692  0.00  0.00    +0.000 C 
ATOM      9  C   UNL     1       2.517   5.059  19.549  0.00  0.00    +0.000 A 
ATOM     10  C   UNL     1       1.357   4.843  20.323  0.00  0.00    +0.000 A 
ATOM     11  C   UNL     1       1.244   3.722  21.141  0.00  0.00    +0.000 A 
ATOM     12  C   UNL     1       2.289   2.817  21.195  0.00  0.00    +0.000 A 
ATOM     13  F   UNL     1       2.188   1.741  21.987  0.00  0.00    +0.000 F 
ATOM     14  C   UNL     1       3.443   3.005  20.443  0.00  0.00    +0.000 A 
ATOM     15  C   UNL     1       3.583   4.124  19.602  0.00  0.00    +0.000 A 
ENDBRANCH   1  15
BRANCH   5  16
ATOM     16  S   UNL     1       6.590   4.798  14.745  0.00  0.00    +0.000 S 
ATOM     17  C   UNL     1       5.334   5.939  15.322  0.00  0.00    +0.000 C 
ATOM     18  O   UNL     1       7.846   5.512  14.765  0.00  0.00    +0.000 OA
ATOM     19  O   UNL     1       6.111   4.165  13.534  0.00  0.00    +0.000 OA
ENDBRANCH   5  16
TORSDOF 2
ENDMDL
MODEL 4
REMARK VINA RESULT:      -7.3      1.535      2.209
REMARK  Name = 
REMARK  4 active torsions:
REMARK  status: ('A' for Active; 'I' for Inactive)
REMARK    1  A    between atoms: C_1  and  C_2
REMARK    2  A    between atoms: C_8  and  C_9
REMARK    3  A    between atoms: N_13  and  S_14
REMARK    4  A    between atoms: S_14  and  C_15
REMARK                            x       y       z     vdW  Elec       q    Type
REMARK                         _______ _______ _______ _____ _____    ______ ____
ROOT
ATOM      1  C   UNL     1       4.769   4.181  18.626  0.00  0.00    +0.000 A 
ATOM      2  N   UNL     1       5.934   4.646  19.035  0.00  0.00    +0.000 NA
ATOM      3  N   UNL     1       6.816   4.490  17.986  0.00  0.00    +0.000 NA
ATOM      4  C   UNL     1       6.116   4.003  16.987  0.00  0.00    +0.000 A 
ATOM      5  N   UNL     1       6.728   3.600  15.786  0.00  0.00    +0.000 N 
ATOM      6  O   UNL     1       4.810   3.784  17.309  0.00  0.00    +0.000 OA
ATOM      7  H   UNL     1       7.705   3.356  15.934  0.00  0.00    +0.000 HD
ENDROOT
BRANCH   1  15
ATOM      8  C   UNL     1       3.532   1.446  18.950  0.00  0.00    +0.000 C 
ATOM      9  C   UNL     1       2.912   2.704  19.504  0.00  0.00    +0.000 A 
ATOM     10  C   UNL     1       1.687   2.581  20.195  0.00  0.00    +0.000 A 
ATOM     11  C   UNL     1       1.054   3.700  20.729  0.00  0.00    +0.000 A 
ATOM     12  C   UNL     1       1.636   4.946  20.570  0.00  0.00    +0.000 A 
ATOM     13  F   UNL     1       1.026   6.026  21.075  0.00  0.00    +0.000 F 
ATOM     14  C   UNL     1       2.842   5.095  19.894  0.00  0.00    +0.000 A 
ATOM     15  C   UNL     1       3.508   3.982  19.350  0.00  0.00    +0.000 A 
ENDBRANCH   1  15
BRANCH   5  16
ATOM     16  S   UNL     1       6.647   4.780  14.597  0.00  0.00    +0.000 S 
ATOM     17  C   UNL     1       5.348   5.886  15.149  0.00  0.00    +0.000 C 
ATOM     18  O   UNL     1       7.888   5.514  14.685  0.00  0.00    +0.000 OA
ATOM     19  O   UNL     1       6.228   4.169  13.352  0.00  0.00    +0.000 OA
ENDBRANCH   5  16
TORSDOF 2
ENDMDL
MODEL 5
REMARK VINA RESULT:      -7.2      1.529      2.233
REMARK  Name = 
REMARK  4 active torsions:
REMARK  status: ('A' for Active; 'I' for Inactive)
REMARK    1  A    between atoms: C_1  and  C_2
REMARK    2  A    between atoms: C_8  and  C_9
REMARK    3  A    between atoms: N_13  and  S_14
REMARK    4  A    between atoms: S_14  and  C_15
REMARK                            x       y       z     vdW  Elec       q    Type
REMARK                         _______ _______ _______ _____ _____    ______ ____
ROOT
ATOM      1  C   UNL     1       5.130   4.439  19.314  0.00  0.00    +0.000 A 
ATOM      2  N   UNL     1       6.242   4.907  19.848  0.00  0.00    +0.000 NA
ATOM      3  N   UNL     1       7.192   4.914  18.849  0.00  0.00    +0.000 NA
ATOM      4  C   UNL     1       6.581   4.513  17.758  0.00  0.00    +0.000 A 
ATOM      5  N   UNL     1       7.285   4.279  16.562  0.00  0.00    +0.000 N 
ATOM      6  O   UNL     1       5.272   4.199  17.966  0.00  0.00    +0.000 OA
ATOM      7  H   UNL     1       8.263   4.065  16.746  0.00  0.00    +0.000 HD
ENDROOT
BRANCH   1  15
ATOM      8  C   UNL     1       4.496   1.638  20.245  0.00  0.00    +0.000 C 
ATOM      9  C   UNL     1       3.526   2.788  20.362  0.00  0.00    +0.000 A 
ATOM     10  C   UNL     1       2.259   2.521  20.926  0.00  0.00    +0.000 A 
ATOM     11  C   UNL     1       1.312   3.532  21.060  0.00  0.00    +0.000 A 
ATOM     12  C   UNL     1       1.620   4.810  20.627  0.00  0.00    +0.000 A 
ATOM     13  F   UNL     1       0.709   5.784  20.747  0.00  0.00    +0.000 F 
ATOM     14  C   UNL     1       2.860   5.100  20.068  0.00  0.00    +0.000 A 
ATOM     15  C   UNL     1       3.840   4.101  19.927  0.00  0.00    +0.000 A 
ENDBRANCH   1  15
BRANCH   5  16
ATOM     16  S   UNL     1       7.213   5.584  15.510  0.00  0.00    +0.000 S 
ATOM     17  C   UNL     1       5.468   5.769  15.142  0.00  0.00    +0.000 C 
ATOM     18  O   UNL     1       7.602   6.738  16.286  0.00  0.00    +0.000 OA
ATOM     19  O   UNL     1       7.904   5.241  14.283  0.00  0.00    +0.000 OA
ENDBRANCH   5  16
TORSDOF 2
ENDMDL
MODEL 6
REMARK VINA RESULT:      -6.8      2.952      3.764
REMARK  Name = 
REMARK  4 active torsions:
REMARK  status: ('A' for Active; 'I' for Inactive)
REMARK    1  A    between atoms: C_1  and  C_2
REMARK    2  A    between atoms: C_8  and  C_9
REMARK    3  A    between atoms: N_13  and  S_14
REMARK    4  A    between atoms: S_14  and  C_15
REMARK                            x       y       z     vdW  Elec       q    Type
REMARK                         _______ _______ _______ _____ _____    ______ ____
ROOT
ATOM      1  C   UNL     1       5.490   5.671  16.338  0.00  0.00    +0.000 A 
ATOM      2  N   UNL     1       6.721   6.079  16.096  0.00  0.00    +0.000 NA
ATOM      3  N   UNL     1       7.255   5.210  15.168  0.00  0.00    +0.000 NA
ATOM      4  C   UNL     1       6.295   4.370  14.857  0.00  0.00    +0.000 A 
ATOM      5  N   UNL     1       6.528   3.260  14.024  0.00  0.00    +0.000 N 
ATOM      6  O   UNL     1       5.143   4.598  15.550  0.00  0.00    +0.000 OA
ATOM      7  H   UNL     1       7.506   2.981  14.046  0.00  0.00    +0.000 HD
ENDROOT
BRANCH   1  15
ATOM      8  C   UNL     1       4.983   4.186  18.917  0.00  0.00    +0.000 C 
ATOM      9  C   UNL     1       4.246   5.444  18.529  0.00  0.00    +0.000 A 
ATOM     10  C   UNL     1       3.267   5.931  19.422  0.00  0.00    +0.000 A 
ATOM     11  C   UNL     1       2.544   7.083  19.127  0.00  0.00    +0.000 A 
ATOM     12  C   UNL     1       2.789   7.751  17.939  0.00  0.00    +0.000 A 
ATOM     13  F   UNL     1       2.091   8.855  17.648  0.00  0.00    +0.000 F 
ATOM     14  C   UNL     1       3.749   7.293  17.043  0.00  0.00    +0.000 A 
ATOM     15  C   UNL     1       4.500   6.135  17.317  0.00  0.00    +0.000 A 
ENDBRANCH   1  15
BRANCH   5  16
ATOM     16  S   UNL     1       6.092   3.552  12.431  0.00  0.00    +0.000 S 
ATOM     17  C   UNL     1       6.197   1.948  11.635  0.00  0.00    +0.000 C 
ATOM     18  O   UNL     1       4.693   3.911  12.465  0.00  0.00    +0.000 OA
ATOM     19  O   UNL     1       7.073   4.428  11.824  0.00  0.00    +0.000 OA
ENDBRANCH   5  16
TORSDOF 2
ENDMDL
MODEL 7
REMARK VINA RESULT:      -6.8      1.224      1.531
REMARK  Name = 
REMARK  4 active torsions:
REMARK  status: ('A' for Active; 'I' for Inactive)
REMARK    1  A    between atoms: C_1  and  C_2
REMARK    2  A    between atoms: C_8  and  C_9
REMARK    3  A    between atoms: N_13  and  S_14
REMARK    4  A    between atoms: S_14  and  C_15
REMARK                            x       y       z     vdW  Elec       q    Type
REMARK                         _______ _______ _______ _____ _____    ______ ____
ROOT
ATOM      1  C   UNL     1       4.631   4.131  19.144  0.00  0.00    +0.000 A 
ATOM      2  N   UNL     1       5.767   4.446  19.736  0.00  0.00    +0.000 NA
ATOM      3  N   UNL     1       6.728   4.505  18.748  0.00  0.00    +0.000 NA
ATOM      4  C   UNL     1       6.104   4.288  17.614  0.00  0.00    +0.000 A 
ATOM      5  N   UNL     1       6.804   4.151  16.402  0.00  0.00    +0.000 N 
ATOM      6  O   UNL     1       4.772   4.048  17.777  0.00  0.00    +0.000 OA
ATOM      7  H   UNL     1       7.761   3.845  16.561  0.00  0.00    +0.000 HD
ENDROOT
BRANCH   1  15
ATOM      8  C   UNL     1       2.118   5.491  18.168  0.00  0.00    +0.000 C 
ATOM      9  C   UNL     1       2.124   4.452  19.261  0.00  0.00    +0.000 A 
ATOM     10  C   UNL     1       0.888   4.120  19.855  0.00  0.00    +0.000 A 
ATOM     11  C   UNL     1       0.818   3.174  20.874  0.00  0.00    +0.000 A 
ATOM     12  C   UNL     1       1.980   2.561  21.309  0.00  0.00    +0.000 A 
ATOM     13  F   UNL     1       1.918   1.656  22.295  0.00  0.00    +0.000 F 
ATOM     14  C   UNL     1       3.211   2.870  20.741  0.00  0.00    +0.000 A 
ATOM     15  C   UNL     1       3.312   3.816  19.705  0.00  0.00    +0.000 A 
ENDBRANCH   1  15
BRANCH   5  16
ATOM     16  S   UNL     1       6.840   5.577  15.518  0.00  0.00    +0.000 S 
ATOM     17  C   UNL     1       7.342   6.827  16.701  0.00  0.00    +0.000 C 
ATOM     18  O   UNL     1       7.927   5.429  14.578  0.00  0.00    +0.000 OA
ATOM     19  O   UNL     1       5.499   5.888  15.065  0.00  0.00    +0.000 OA
ENDBRANCH   5  16
TORSDOF 2
ENDMDL
MODEL 8
REMARK VINA RESULT:      -6.7      0.864      1.041
REMARK  Name = 
REMARK  4 active torsions:
REMARK  status: ('A' for Active; 'I' for Inactive)
REMARK    1  A    between atoms: C_1  and  C_2
REMARK    2  A    between atoms: C_8  and  C_9
REMARK    3  A    between atoms: N_13  and  S_14
REMARK    4  A    between atoms: S_14  and  C_15
REMARK                            x       y       z     vdW  Elec       q    Type
REMARK                         _______ _______ _______ _____ _____    ______ ____
ROOT
ATOM      1  C   UNL     1       4.827   4.264  18.583  0.00  0.00    +0.000 A 
ATOM      2  N   UNL     1       6.062   4.684  18.778  0.00  0.00    +0.000 NA
ATOM      3  N   UNL     1       6.755   4.438  17.612  0.00  0.00    +0.000 NA
ATOM      4  C   UNL     1       5.883   3.946  16.762  0.00  0.00    +0.000 A 
ATOM      5  N   UNL     1       6.275   3.460  15.502  0.00  0.00    +0.000 N 
ATOM      6  O   UNL     1       4.637   3.810  17.298  0.00  0.00    +0.000 OA
ATOM      7  H   UNL     1       7.250   3.172  15.505  0.00  0.00    +0.000 HD
ENDROOT
BRANCH   1  15
ATOM      8  C   UNL     1       2.789   6.477  18.851  0.00  0.00    +0.000 C 
ATOM      9  C   UNL     1       2.730   5.198  19.649  0.00  0.00    +0.000 A 
ATOM     10  C   UNL     1       1.671   5.050  20.571  0.00  0.00    +0.000 A 
ATOM     11  C   UNL     1       1.557   3.899  21.345  0.00  0.00    +0.000 A 
ATOM     12  C   UNL     1       2.500   2.895  21.209  0.00  0.00    +0.000 A 
ATOM     13  F   UNL     1       2.398   1.790  21.958  0.00  0.00    +0.000 F 
ATOM     14  C   UNL     1       3.553   3.016  20.309  0.00  0.00    +0.000 A 
ATOM     15  C   UNL     1       3.691   4.164  19.508  0.00  0.00    +0.000 A 
ENDBRANCH   1  15
BRANCH   5  16
ATOM     16  S   UNL     1       6.056   4.592  14.282  0.00  0.00    +0.000 S 
ATOM     17  C   UNL     1       7.707   4.900  13.654  0.00  0.00    +0.000 C 
ATOM     18  O   UNL     1       5.331   3.908  13.237  0.00  0.00    +0.000 OA
ATOM     19  O   UNL     1       5.551   5.820  14.861  0.00  0.00    +0.000 OA
ENDBRANCH   5  16
TORSDOF 2
ENDMDL
MODEL 9
REMARK VINA RESULT:      -6.7      1.323      1.347
REMARK  Name = 
REMARK  4 active torsions:
REMARK  status: ('A' for Active; 'I' for Inactive)
REMARK    1  A    between atoms: C_1  and  C_2
REMARK    2  A    between atoms: C_8  and  C_9
REMARK    3  A    between atoms: N_13  and  S_14
REMARK    4  A    between atoms: S_14  and  C_15
REMARK                            x       y       z     vdW  Elec       q    Type
REMARK                         _______ _______ _______ _____ _____    ______ ____
ROOT
ATOM      1  C   UNL     1       4.639   4.391  19.062  0.00  0.00    +0.000 A 
ATOM      2  N   UNL     1       5.660   4.877  19.741  0.00  0.00    +0.000 NA
ATOM      3  N   UNL     1       6.733   4.911  18.875  0.00  0.00    +0.000 NA
ATOM      4  C   UNL     1       6.280   4.507  17.711  0.00  0.00    +0.000 A 
ATOM      5  N   UNL     1       7.140   4.297  16.618  0.00  0.00    +0.000 N 
ATOM      6  O   UNL     1       4.961   4.164  17.744  0.00  0.00    +0.000 OA
ATOM      7  H   UNL     1       8.089   4.102  16.928  0.00  0.00    +0.000 HD
ENDROOT
BRANCH   1  15
ATOM      8  C   UNL     1       2.674   6.446  20.078  0.00  0.00    +0.000 C 
ATOM      9  C   UNL     1       2.356   4.975  19.984  0.00  0.00    +0.000 A 
ATOM     10  C   UNL     1       1.077   4.553  20.408  0.00  0.00    +0.000 A 
ATOM     11  C   UNL     1       0.716   3.210  20.355  0.00  0.00    +0.000 A 
ATOM     12  C   UNL     1       1.629   2.281  19.887  0.00  0.00    +0.000 A 
ATOM     13  F   UNL     1       1.289   0.987  19.842  0.00  0.00    +0.000 F 
ATOM     14  C   UNL     1       2.896   2.670  19.464  0.00  0.00    +0.000 A 
ATOM     15  C   UNL     1       3.287   4.021  19.498  0.00  0.00    +0.000 A 
ENDBRANCH   1  15
BRANCH   5  16
ATOM     16  S   UNL     1       7.179   5.608  15.572  0.00  0.00    +0.000 S 
ATOM     17  C   UNL     1       5.454   5.971  15.242  0.00  0.00    +0.000 C 
ATOM     18  O   UNL     1       7.699   6.712  16.344  0.00  0.00    +0.000 OA
ATOM     19  O   UNL     1       7.806   5.204  14.330  0.00  0.00    +0.000 OA
ENDBRANCH   5  16
TORSDOF 2
ENDMDL
