MODEL 1
REMARK VINA RESULT:      -6.8      0.000      0.000
REMARK  Name = 
REMARK  19 active torsions:
REMARK  status: ('A' for Active; 'I' for Inactive)
REMARK    1  A    between atoms: C_1  and  C_2
REMARK    2  A    between atoms: C_2  and  O_3
REMARK    3  A    between atoms: O_3  and  C_4
REMARK    4  A    between atoms: C_4  and  C_6
REMARK    5  A    between atoms: C_6  and  C_7
REMARK    6  A    between atoms: C_6  and  N_21
REMARK    7  A    between atoms: C_7  and  C_8
REMARK    8  A    between atoms: C_10  and  P_11
REMARK    9  A    between atoms: P_11  and  O_13
REMARK   10  A    between atoms: P_11  and  O_16
REMARK   11  A    between atoms: O_13  and  C_14
REMARK   12  A    between atoms: C_14  and  C_15
REMARK   13  A    between atoms: O_16  and  C_17
REMARK   14  A    between atoms: C_17  and  C_18
REMARK   15  A    between atoms: C_22  and  O_24
REMARK   16  A    between atoms: O_24  and  C_25
REMARK   17  A    between atoms: C_25  and  C_26
REMARK   18  A    between atoms: C_25  and  C_27
REMARK   19  A    between atoms: C_25  and  C_28
REMARK                            x       y       z     vdW  Elec       q    Type
REMARK                         _______ _______ _______ _____ _____    ______ ____
ROOT
ATOM      1  C   UNL     1       2.149   4.927  18.221  0.00  0.00    +0.000 C 
ENDROOT
BRANCH   1   2
ATOM      2  N   UNL     1       3.149   4.464  17.262  0.00  0.00    +0.000 N 
ATOM      3  C   UNL     1       4.357   4.009  17.692  0.00  0.00    +0.000 C 
ATOM      4  O   UNL     1       4.637   3.853  18.872  0.00  0.00    +0.000 OA
ATOM      5  H   UNL     1       3.053   4.673  16.276  0.00  0.00    +0.000 HD
BRANCH   3   6
ATOM      6  O   UNL     1       5.189   3.770  16.655  0.00  0.00    +0.000 OA
BRANCH   6   7
ATOM      7  C   UNL     1       6.211   4.764  16.370  0.00  0.00    +0.000 C 
ATOM      8  C   UNL     1       7.429   4.583  17.288  0.00  0.00    +0.000 C 
ATOM      9  C   UNL     1       6.658   4.509  14.925  0.00  0.00    +0.000 C 
ATOM     10  C   UNL     1       5.633   6.188  16.441  0.00  0.00    +0.000 C 
ENDBRANCH   6   7
ENDBRANCH   3   6
ENDBRANCH   1   2
BRANCH   1  11
ATOM     11  C   UNL     1       1.369   3.720  18.780  0.00  0.00    +0.000 C 
ATOM     12  O   UNL     1       1.221   2.668  18.166  0.00  0.00    +0.000 OA
BRANCH  11  13
ATOM     13  O   UNL     1       0.974   3.923  20.067  0.00  0.00    +0.000 OA
BRANCH  13  15
ATOM     14  C   UNL     1       2.534   2.782  21.585  0.00  0.00    +0.000 C 
ATOM     15  C   UNL     1       1.137   2.831  20.986  0.00  0.00    +0.000 C 
ENDBRANCH  13  15
ENDBRANCH  11  13
ENDBRANCH   1  11
BRANCH   1  16
ATOM     16  C   UNL     1       2.707   5.830  19.333  0.00  0.00    +0.000 C 
BRANCH  16  17
ATOM     17  C   UNL     1       2.309   7.258  19.192  0.00  0.00    +0.000 A 
ATOM     18  C   UNL     1       1.787   8.183  20.073  0.00  0.00    +0.000 A 
ATOM     19  C   UNL     1       1.404   9.288  19.280  0.00  0.00    +0.000 A 
ATOM     20  C   UNL     1       1.807   9.015  17.997  0.00  0.00    +0.000 A 
ATOM     21  O   UNL     1       2.358   7.777  17.932  0.00  0.00    +0.000 OA
BRANCH  19  22
ATOM     22  P   UNL     1       0.411  10.662  19.730  0.00  0.00    +0.000 P 
ATOM     23  O   UNL     1       1.363  11.756  20.106  0.00  0.00    +0.000 OA
BRANCH  22  24
ATOM     24  O   UNL     1      -0.453  11.003  18.412  0.00  0.00    +0.000 OA
BRANCH  24  25
ATOM     25  C   UNL     1      -1.849  10.794  18.457  0.00  0.00    +0.000 C 
ATOM     26  C   UNL     1      -2.220   9.872  17.314  0.00  0.00    +0.000 C 
ENDBRANCH  24  25
ENDBRANCH  22  24
BRANCH  22  27
ATOM     27  O   UNL     1      -0.715  10.292  20.816  0.00  0.00    +0.000 OA
BRANCH  27  28
ATOM     28  C   UNL     1      -0.369  10.363  22.186  0.00  0.00    +0.000 C 
ATOM     29  C   UNL     1      -1.194  11.455  22.838  0.00  0.00    +0.000 C 
ENDBRANCH  27  28
ENDBRANCH  22  27
ENDBRANCH  19  22
ENDBRANCH  16  17
ENDBRANCH   1  16
TORSDOF 13
ENDMDL
MODEL 2
REMARK VINA RESULT:      -6.7      1.409      4.033
REMARK  Name = 
REMARK  19 active torsions:
REMARK  status: ('A' for Active; 'I' for Inactive)
REMARK    1  A    between atoms: C_1  and  C_2
REMARK    2  A    between atoms: C_2  and  O_3
REMARK    3  A    between atoms: O_3  and  C_4
REMARK    4  A    between atoms: C_4  and  C_6
REMARK    5  A    between atoms: C_6  and  C_7
REMARK    6  A    between atoms: C_6  and  N_21
REMARK    7  A    between atoms: C_7  and  C_8
REMARK    8  A    between atoms: C_10  and  P_11
REMARK    9  A    between atoms: P_11  and  O_13
REMARK   10  A    between atoms: P_11  and  O_16
REMARK   11  A    between atoms: O_13  and  C_14
REMARK   12  A    between atoms: C_14  and  C_15
REMARK   13  A    between atoms: O_16  and  C_17
REMARK   14  A    between atoms: C_17  and  C_18
REMARK   15  A    between atoms: C_22  and  O_24
REMARK   16  A    between atoms: O_24  and  C_25
REMARK   17  A    between atoms: C_25  and  C_26
REMARK   18  A    between atoms: C_25  and  C_27
REMARK   19  A    between atoms: C_25  and  C_28
REMARK                            x       y       z     vdW  Elec       q    Type
REMARK                         _______ _______ _______ _____ _____    ______ ____
ROOT
ATOM      1  C   UNL     1       4.534   6.363  17.343  0.00  0.00    +0.000 C 
ENDROOT
BRANCH   1   2
ATOM      2  N   UNL     1       3.643   5.225  17.555  0.00  0.00    +0.000 N 
ATOM      3  C   UNL     1       3.831   4.392  18.615  0.00  0.00    +0.000 C 
ATOM      4  O   UNL     1       4.655   4.597  19.494  0.00  0.00    +0.000 OA
ATOM      5  H   UNL     1       3.023   4.910  16.819  0.00  0.00    +0.000 HD
BRANCH   3   6
ATOM      6  O   UNL     1       3.005   3.325  18.553  0.00  0.00    +0.000 OA
BRANCH   6   7
ATOM      7  C   UNL     1       2.027   3.169  19.618  0.00  0.00    +0.000 C 
ATOM      8  C   UNL     1       1.327   4.501  19.924  0.00  0.00    +0.000 C 
ATOM      9  C   UNL     1       0.975   2.186  19.084  0.00  0.00    +0.000 C 
ATOM     10  C   UNL     1       2.666   2.544  20.869  0.00  0.00    +0.000 C 
ENDBRANCH   6   7
ENDBRANCH   3   6
ENDBRANCH   1   2
BRANCH   1  11
ATOM     11  C   UNL     1       5.647   5.972  16.350  0.00  0.00    +0.000 C 
ATOM     12  O   UNL     1       5.548   6.107  15.136  0.00  0.00    +0.000 OA
BRANCH  11  13
ATOM     13  O   UNL     1       6.781   5.577  16.992  0.00  0.00    +0.000 OA
BRANCH  13  15
ATOM     14  C   UNL     1       7.922   5.812  19.155  0.00  0.00    +0.000 C 
ATOM     15  C   UNL     1       7.371   6.503  17.918  0.00  0.00    +0.000 C 
ENDBRANCH  13  15
ENDBRANCH  11  13
ENDBRANCH   1  11
BRANCH   1  16
ATOM     16  C   UNL     1       3.817   7.662  16.939  0.00  0.00    +0.000 C 
BRANCH  16  17
ATOM     17  C   UNL     1       2.752   8.073  17.894  0.00  0.00    +0.000 A 
ATOM     18  C   UNL     1       1.744   9.015  17.836  0.00  0.00    +0.000 A 
ATOM     19  C   UNL     1       1.219   9.090  19.146  0.00  0.00    +0.000 A 
ATOM     20  C   UNL     1       1.858   8.127  19.886  0.00  0.00    +0.000 A 
ATOM     21  O   UNL     1       2.798   7.503  19.133  0.00  0.00    +0.000 OA
BRANCH  19  22
ATOM     22  P   UNL     1       0.133  10.291  19.818  0.00  0.00    +0.000 P 
ATOM     23  O   UNL     1       0.954  11.530  20.012  0.00  0.00    +0.000 OA
BRANCH  22  24
ATOM     24  O   UNL     1      -1.028  10.470  18.712  0.00  0.00    +0.000 OA
BRANCH  24  25
ATOM     25  C   UNL     1      -1.424  11.781  18.367  0.00  0.00    +0.000 C 
ATOM     26  C   UNL     1      -2.527  12.201  19.316  0.00  0.00    +0.000 C 
ENDBRANCH  24  25
ENDBRANCH  22  24
BRANCH  22  27
ATOM     27  O   UNL     1      -0.671   9.759  21.104  0.00  0.00    +0.000 OA
BRANCH  27  28
ATOM     28  C   UNL     1      -0.490  10.440  22.332  0.00  0.00    +0.000 C 
ATOM     29  C   UNL     1       0.106   9.473  23.337  0.00  0.00    +0.000 C 
ENDBRANCH  27  28
ENDBRANCH  22  27
ENDBRANCH  19  22
ENDBRANCH  16  17
ENDBRANCH   1  16
TORSDOF 13
ENDMDL
MODEL 3
REMARK VINA RESULT:      -6.6      1.419      4.157
REMARK  Name = 
REMARK  19 active torsions:
REMARK  status: ('A' for Active; 'I' for Inactive)
REMARK    1  A    between atoms: C_1  and  C_2
REMARK    2  A    between atoms: C_2  and  O_3
REMARK    3  A    between atoms: O_3  and  C_4
REMARK    4  A    between atoms: C_4  and  C_6
REMARK    5  A    between atoms: C_6  and  C_7
REMARK    6  A    between atoms: C_6  and  N_21
REMARK    7  A    between atoms: C_7  and  C_8
REMARK    8  A    between atoms: C_10  and  P_11
REMARK    9  A    between atoms: P_11  and  O_13
REMARK   10  A    between atoms: P_11  and  O_16
REMARK   11  A    between atoms: O_13  and  C_14
REMARK   12  A    between atoms: C_14  and  C_15
REMARK   13  A    between atoms: O_16  and  C_17
REMARK   14  A    between atoms: C_17  and  C_18
REMARK   15  A    between atoms: C_22  and  O_24
REMARK   16  A    between atoms: O_24  and  C_25
REMARK   17  A    between atoms: C_25  and  C_26
REMARK   18  A    between atoms: C_25  and  C_27
REMARK   19  A    between atoms: C_25  and  C_28
REMARK                            x       y       z     vdW  Elec       q    Type
REMARK                         _______ _______ _______ _____ _____    ______ ____
ROOT
ATOM      1  C   UNL     1       4.075   6.621  17.769  0.00  0.00    +0.000 C 
ENDROOT
BRANCH   1   2
ATOM      2  N   UNL     1       3.332   5.405  18.092  0.00  0.00    +0.000 N 
ATOM      3  C   UNL     1       3.656   4.673  19.193  0.00  0.00    +0.000 C 
ATOM      4  O   UNL     1       4.484   5.029  20.019  0.00  0.00    +0.000 OA
ATOM      5  H   UNL     1       2.725   4.973  17.406  0.00  0.00    +0.000 HD
BRANCH   3   6
ATOM      6  O   UNL     1       2.958   3.517  19.236  0.00  0.00    +0.000 OA
BRANCH   6   7
ATOM      7  C   UNL     1       1.880   3.418  20.205  0.00  0.00    +0.000 C 
ATOM      8  C   UNL     1       1.330   4.807  20.563  0.00  0.00    +0.000 C 
ATOM      9  C   UNL     1       0.762   2.625  19.515  0.00  0.00    +0.000 C 
ATOM     10  C   UNL     1       2.322   2.627  21.448  0.00  0.00    +0.000 C 
ENDBRANCH   6   7
ENDBRANCH   3   6
ENDBRANCH   1   2
BRANCH   1  11
ATOM     11  C   UNL     1       5.324   6.259  16.941  0.00  0.00    +0.000 C 
ATOM     12  O   UNL     1       6.469   6.364  17.366  0.00  0.00    +0.000 OA
BRANCH  11  13
ATOM     13  O   UNL     1       4.995   5.705  15.742  0.00  0.00    +0.000 OA
BRANCH  13  15
ATOM     14  C   UNL     1       6.402   4.334  14.266  0.00  0.00    +0.000 C 
ATOM     15  C   UNL     1       5.479   4.380  15.474  0.00  0.00    +0.000 C 
ENDBRANCH  13  15
ENDBRANCH  11  13
ENDBRANCH   1  11
BRANCH   1  16
ATOM     16  C   UNL     1       3.231   7.722  17.107  0.00  0.00    +0.000 C 
BRANCH  16  17
ATOM     17  C   UNL     1       2.337   8.437  18.059  0.00  0.00    +0.000 A 
ATOM     18  C   UNL     1       1.748   9.686  18.045  0.00  0.00    +0.000 A 
ATOM     19  C   UNL     1       1.213   9.867  19.340  0.00  0.00    +0.000 A 
ATOM     20  C   UNL     1       1.413   8.693  20.021  0.00  0.00    +0.000 A 
ATOM     21  O   UNL     1       2.101   7.815  19.250  0.00  0.00    +0.000 OA
BRANCH  19  22
ATOM     22  P   UNL     1       0.605  11.340  20.072  0.00  0.00    +0.000 P 
ATOM     23  O   UNL     1       1.390  12.461  19.462  0.00  0.00    +0.000 OA
BRANCH  22  24
ATOM     24  O   UNL     1      -0.961  11.383  19.685  0.00  0.00    +0.000 OA
BRANCH  24  25
ATOM     25  C   UNL     1      -1.413  10.546  18.642  0.00  0.00    +0.000 C 
ATOM     26  C   UNL     1      -2.792  11.018  18.228  0.00  0.00    +0.000 C 
ENDBRANCH  24  25
ENDBRANCH  22  24
BRANCH  22  27
ATOM     27  O   UNL     1       0.579  11.277  21.678  0.00  0.00    +0.000 OA
BRANCH  27  28
ATOM     28  C   UNL     1      -0.618  10.865  22.310  0.00  0.00    +0.000 C 
ATOM     29  C   UNL     1      -0.308   9.687  23.213  0.00  0.00    +0.000 C 
ENDBRANCH  27  28
ENDBRANCH  22  27
ENDBRANCH  19  22
ENDBRANCH  16  17
ENDBRANCH   1  16
TORSDOF 13
ENDMDL
MODEL 4
REMARK VINA RESULT:      -6.6      1.120      2.134
REMARK  Name = 
REMARK  19 active torsions:
REMARK  status: ('A' for Active; 'I' for Inactive)
REMARK    1  A    between atoms: C_1  and  C_2
REMARK    2  A    between atoms: C_2  and  O_3
REMARK    3  A    between atoms: O_3  and  C_4
REMARK    4  A    between atoms: C_4  and  C_6
REMARK    5  A    between atoms: C_6  and  C_7
REMARK    6  A    between atoms: C_6  and  N_21
REMARK    7  A    between atoms: C_7  and  C_8
REMARK    8  A    between atoms: C_10  and  P_11
REMARK    9  A    between atoms: P_11  and  O_13
REMARK   10  A    between atoms: P_11  and  O_16
REMARK   11  A    between atoms: O_13  and  C_14
REMARK   12  A    between atoms: C_14  and  C_15
REMARK   13  A    between atoms: O_16  and  C_17
REMARK   14  A    between atoms: C_17  and  C_18
REMARK   15  A    between atoms: C_22  and  O_24
REMARK   16  A    between atoms: O_24  and  C_25
REMARK   17  A    between atoms: C_25  and  C_26
REMARK   18  A    between atoms: C_25  and  C_27
REMARK   19  A    between atoms: C_25  and  C_28
REMARK                            x       y       z     vdW  Elec       q    Type
REMARK                         _______ _______ _______ _____ _____    ______ ____
ROOT
ATOM      1  C   UNL     1       2.166   4.941  18.258  0.00  0.00    +0.000 C 
ENDROOT
BRANCH   1   2
ATOM      2  N   UNL     1       3.225   4.500  17.352  0.00  0.00    +0.000 N 
ATOM      3  C   UNL     1       4.391   4.003  17.848  0.00  0.00    +0.000 C 
ATOM      4  O   UNL     1       4.582   3.792  19.036  0.00  0.00    +0.000 OA
ATOM      5  H   UNL     1       3.204   4.753  16.372  0.00  0.00    +0.000 HD
BRANCH   3   6
ATOM      6  O   UNL     1       5.291   3.793  16.863  0.00  0.00    +0.000 OA
BRANCH   6   7
ATOM      7  C   UNL     1       6.309   4.809  16.654  0.00  0.00    +0.000 C 
ATOM      8  C   UNL     1       7.472   4.637  17.643  0.00  0.00    +0.000 C 
ATOM      9  C   UNL     1       6.850   4.581  15.236  0.00  0.00    +0.000 C 
ATOM     10  C   UNL     1       5.702   6.221  16.707  0.00  0.00    +0.000 C 
ENDBRANCH   6   7
ENDBRANCH   3   6
ENDBRANCH   1   2
BRANCH   1  11
ATOM     11  C   UNL     1       1.387   3.717  18.780  0.00  0.00    +0.000 C 
ATOM     12  O   UNL     1       1.290   2.664  18.160  0.00  0.00    +0.000 OA
BRANCH  11  13
ATOM     13  O   UNL     1       0.931   3.910  20.048  0.00  0.00    +0.000 OA
BRANCH  13  15
ATOM     14  C   UNL     1       2.493   2.923  21.668  0.00  0.00    +0.000 C 
ATOM     15  C   UNL     1       1.134   2.845  20.990  0.00  0.00    +0.000 C 
ENDBRANCH  13  15
ENDBRANCH  11  13
ENDBRANCH   1  11
BRANCH   1  16
ATOM     16  C   UNL     1       2.645   5.860  19.393  0.00  0.00    +0.000 C 
BRANCH  16  17
ATOM     17  C   UNL     1       2.237   7.281  19.218  0.00  0.00    +0.000 A 
ATOM     18  C   UNL     1       1.732   8.232  20.082  0.00  0.00    +0.000 A 
ATOM     19  C   UNL     1       1.324   9.310  19.265  0.00  0.00    +0.000 A 
ATOM     20  C   UNL     1       1.697   8.998  17.981  0.00  0.00    +0.000 A 
ATOM     21  O   UNL     1       2.251   7.761  17.941  0.00  0.00    +0.000 OA
BRANCH  19  22
ATOM     22  P   UNL     1       0.337  10.693  19.697  0.00  0.00    +0.000 P 
ATOM     23  O   UNL     1      -0.465  10.274  20.891  0.00  0.00    +0.000 OA
BRANCH  22  24
ATOM     24  O   UNL     1       1.389  11.871  20.025  0.00  0.00    +0.000 OA
BRANCH  24  25
ATOM     25  C   UNL     1       1.962  12.574  18.943  0.00  0.00    +0.000 C 
ATOM     26  C   UNL     1       1.684  14.049  19.146  0.00  0.00    +0.000 C 
ENDBRANCH  24  25
ENDBRANCH  22  24
BRANCH  22  27
ATOM     27  O   UNL     1      -0.492  11.284  18.453  0.00  0.00    +0.000 OA
BRANCH  27  28
ATOM     28  C   UNL     1      -1.827  10.851  18.275  0.00  0.00    +0.000 C 
ATOM     29  C   UNL     1      -1.870   9.878  17.113  0.00  0.00    +0.000 C 
ENDBRANCH  27  28
ENDBRANCH  22  27
ENDBRANCH  19  22
ENDBRANCH  16  17
ENDBRANCH   1  16
TORSDOF 13
ENDMDL
MODEL 5
REMARK VINA RESULT:      -6.5      1.389      4.146
REMARK  Name = 
REMARK  19 active torsions:
REMARK  status: ('A' for Active; 'I' for Inactive)
REMARK    1  A    between atoms: C_1  and  C_2
REMARK    2  A    between atoms: C_2  and  O_3
REMARK    3  A    between atoms: O_3  and  C_4
REMARK    4  A    between atoms: C_4  and  C_6
REMARK    5  A    between atoms: C_6  and  C_7
REMARK    6  A    between atoms: C_6  and  N_21
REMARK    7  A    between atoms: C_7  and  C_8
REMARK    8  A    between atoms: C_10  and  P_11
REMARK    9  A    between atoms: P_11  and  O_13
REMARK   10  A    between atoms: P_11  and  O_16
REMARK   11  A    between atoms: O_13  and  C_14
REMARK   12  A    between atoms: C_14  and  C_15
REMARK   13  A    between atoms: O_16  and  C_17
REMARK   14  A    between atoms: C_17  and  C_18
REMARK   15  A    between atoms: C_22  and  O_24
REMARK   16  A    between atoms: O_24  and  C_25
REMARK   17  A    between atoms: C_25  and  C_26
REMARK   18  A    between atoms: C_25  and  C_27
REMARK   19  A    between atoms: C_25  and  C_28
REMARK                            x       y       z     vdW  Elec       q    Type
REMARK                         _______ _______ _______ _____ _____    ______ ____
ROOT
ATOM      1  C   UNL     1       5.261   6.097  18.252  0.00  0.00    +0.000 C 
ENDROOT
BRANCH   1   2
ATOM      2  N   UNL     1       4.789   5.016  19.116  0.00  0.00    +0.000 N 
ATOM      3  C   UNL     1       4.184   3.921  18.580  0.00  0.00    +0.000 C 
ATOM      4  O   UNL     1       4.099   3.719  17.377  0.00  0.00    +0.000 OA
ATOM      5  H   UNL     1       4.702   5.155  20.115  0.00  0.00    +0.000 HD
BRANCH   3   6
ATOM      6  O   UNL     1       3.690   3.113  19.543  0.00  0.00    +0.000 OA
BRANCH   6   7
ATOM      7  C   UNL     1       2.245   3.012  19.660  0.00  0.00    +0.000 C 
ATOM      8  C   UNL     1       1.549   4.172  18.932  0.00  0.00    +0.000 C 
ATOM      9  C   UNL     1       1.854   1.703  18.958  0.00  0.00    +0.000 C 
ATOM     10  C   UNL     1       1.814   2.904  21.132  0.00  0.00    +0.000 C 
ENDBRANCH   6   7
ENDBRANCH   3   6
ENDBRANCH   1   2
BRANCH   1  11
ATOM     11  C   UNL     1       6.524   5.640  17.495  0.00  0.00    +0.000 C 
ATOM     12  O   UNL     1       7.433   5.006  18.018  0.00  0.00    +0.000 OA
BRANCH  11  13
ATOM     13  O   UNL     1       6.446   5.922  16.165  0.00  0.00    +0.000 OA
BRANCH  13  15
ATOM     14  C   UNL     1       5.758   4.346  14.410  0.00  0.00    +0.000 C 
ATOM     15  C   UNL     1       6.893   4.909  15.250  0.00  0.00    +0.000 C 
ENDBRANCH  13  15
ENDBRANCH  11  13
ENDBRANCH   1  11
BRANCH   1  16
ATOM     16  C   UNL     1       4.189   6.672  17.313  0.00  0.00    +0.000 C 
BRANCH  16  17
ATOM     17  C   UNL     1       3.084   7.367  18.030  0.00  0.00    +0.000 A 
ATOM     18  C   UNL     1       2.209   8.372  17.667  0.00  0.00    +0.000 A 
ATOM     19  C   UNL     1       1.558   8.757  18.861  0.00  0.00    +0.000 A 
ATOM     20  C   UNL     1       1.994   7.904  19.844  0.00  0.00    +0.000 A 
ATOM     21  O   UNL     1       2.928   7.054  19.348  0.00  0.00    +0.000 OA
BRANCH  19  22
ATOM     22  P   UNL     1       0.560  10.169  19.152  0.00  0.00    +0.000 P 
ATOM     23  O   UNL     1       1.475  11.351  19.061  0.00  0.00    +0.000 OA
BRANCH  22  24
ATOM     24  O   UNL     1      -0.553  10.140  17.984  0.00  0.00    +0.000 OA
BRANCH  24  25
ATOM     25  C   UNL     1      -1.894  10.410  18.333  0.00  0.00    +0.000 C 
ATOM     26  C   UNL     1      -2.782   9.860  17.236  0.00  0.00    +0.000 C 
ENDBRANCH  24  25
ENDBRANCH  22  24
BRANCH  22  27
ATOM     27  O   UNL     1      -0.320  10.048  20.492  0.00  0.00    +0.000 OA
BRANCH  27  28
ATOM     28  C   UNL     1       0.175  10.656  21.671  0.00  0.00    +0.000 C 
ATOM     29  C   UNL     1      -0.783  11.755  22.088  0.00  0.00    +0.000 C 
ENDBRANCH  27  28
ENDBRANCH  22  27
ENDBRANCH  19  22
ENDBRANCH  16  17
ENDBRANCH   1  16
TORSDOF 13
ENDMDL
MODEL 6
REMARK VINA RESULT:      -6.5      1.452      4.035
REMARK  Name = 
REMARK  19 active torsions:
REMARK  status: ('A' for Active; 'I' for Inactive)
REMARK    1  A    between atoms: C_1  and  C_2
REMARK    2  A    between atoms: C_2  and  O_3
REMARK    3  A    between atoms: O_3  and  C_4
REMARK    4  A    between atoms: C_4  and  C_6
REMARK    5  A    between atoms: C_6  and  C_7
REMARK    6  A    between atoms: C_6  and  N_21
REMARK    7  A    between atoms: C_7  and  C_8
REMARK    8  A    between atoms: C_10  and  P_11
REMARK    9  A    between atoms: P_11  and  O_13
REMARK   10  A    between atoms: P_11  and  O_16
REMARK   11  A    between atoms: O_13  and  C_14
REMARK   12  A    between atoms: C_14  and  C_15
REMARK   13  A    between atoms: O_16  and  C_17
REMARK   14  A    between atoms: C_17  and  C_18
REMARK   15  A    between atoms: C_22  and  O_24
REMARK   16  A    between atoms: O_24  and  C_25
REMARK   17  A    between atoms: C_25  and  C_26
REMARK   18  A    between atoms: C_25  and  C_27
REMARK   19  A    between atoms: C_25  and  C_28
REMARK                            x       y       z     vdW  Elec       q    Type
REMARK                         _______ _______ _______ _____ _____    ______ ____
ROOT
ATOM      1  C   UNL     1       4.688   6.125  17.502  0.00  0.00    +0.000 C 
ENDROOT
BRANCH   1   2
ATOM      2  N   UNL     1       3.882   4.960  17.860  0.00  0.00    +0.000 N 
ATOM      3  C   UNL     1       4.336   4.065  18.780  0.00  0.00    +0.000 C 
ATOM      4  O   UNL     1       5.358   4.228  19.430  0.00  0.00    +0.000 OA
ATOM      5  H   UNL     1       3.095   4.681  17.287  0.00  0.00    +0.000 HD
BRANCH   3   6
ATOM      6  O   UNL     1       3.522   2.990  18.861  0.00  0.00    +0.000 OA
BRANCH   6   7
ATOM      7  C   UNL     1       2.130   3.225  19.207  0.00  0.00    +0.000 C 
ATOM      8  C   UNL     1       1.407   3.994  18.091  0.00  0.00    +0.000 C 
ATOM      9  C   UNL     1       1.484   1.838  19.328  0.00  0.00    +0.000 C 
ATOM     10  C   UNL     1       2.008   3.924  20.571  0.00  0.00    +0.000 C 
ENDBRANCH   6   7
ENDBRANCH   3   6
ENDBRANCH   1   2
BRANCH   1  11
ATOM     11  C   UNL     1       5.804   5.703  16.526  0.00  0.00    +0.000 C 
ATOM     12  O   UNL     1       5.591   5.319  15.382  0.00  0.00    +0.000 OA
BRANCH  11  13
ATOM     13  O   UNL     1       7.043   5.922  17.048  0.00  0.00    +0.000 OA
BRANCH  13  15
ATOM     14  C   UNL     1       8.266   7.488  18.492  0.00  0.00    +0.000 C 
ATOM     15  C   UNL     1       7.451   7.287  17.225  0.00  0.00    +0.000 C 
ENDBRANCH  13  15
ENDBRANCH  11  13
ENDBRANCH   1  11
BRANCH   1  16
ATOM     16  C   UNL     1       3.876   7.322  16.983  0.00  0.00    +0.000 C 
BRANCH  16  17
ATOM     17  C   UNL     1       2.881   7.835  17.965  0.00  0.00    +0.000 A 
ATOM     18  C   UNL     1       2.072   8.953  17.992  0.00  0.00    +0.000 A 
ATOM     19  C   UNL     1       1.534   9.000  19.298  0.00  0.00    +0.000 A 
ATOM     20  C   UNL     1       1.959   7.866  19.944  0.00  0.00    +0.000 A 
ATOM     21  O   UNL     1       2.785   7.150  19.141  0.00  0.00    +0.000 OA
BRANCH  19  22
ATOM     22  P   UNL     1       0.677  10.316  20.078  0.00  0.00    +0.000 P 
ATOM     23  O   UNL     1       1.172  11.574  19.432  0.00  0.00    +0.000 OA
BRANCH  22  24
ATOM     24  O   UNL     1      -0.884  10.029  19.786  0.00  0.00    +0.000 OA
BRANCH  24  25
ATOM     25  C   UNL     1      -1.540  10.827  18.823  0.00  0.00    +0.000 C 
ATOM     26  C   UNL     1      -1.573  10.055  17.520  0.00  0.00    +0.000 C 
ENDBRANCH  24  25
ENDBRANCH  22  24
BRANCH  22  27
ATOM     27  O   UNL     1       0.762  10.256  21.682  0.00  0.00    +0.000 OA
BRANCH  27  28
ATOM     28  C   UNL     1      -0.329   9.693  22.387  0.00  0.00    +0.000 C 
ATOM     29  C   UNL     1      -1.089  10.811  23.074  0.00  0.00    +0.000 C 
ENDBRANCH  27  28
ENDBRANCH  22  27
ENDBRANCH  19  22
ENDBRANCH  16  17
ENDBRANCH   1  16
TORSDOF 13
ENDMDL
MODEL 7
REMARK VINA RESULT:      -6.4      1.310      3.985
REMARK  Name = 
REMARK  19 active torsions:
REMARK  status: ('A' for Active; 'I' for Inactive)
REMARK    1  A    between atoms: C_1  and  C_2
REMARK    2  A    between atoms: C_2  and  O_3
REMARK    3  A    between atoms: O_3  and  C_4
REMARK    4  A    between atoms: C_4  and  C_6
REMARK    5  A    between atoms: C_6  and  C_7
REMARK    6  A    between atoms: C_6  and  N_21
REMARK    7  A    between atoms: C_7  and  C_8
REMARK    8  A    between atoms: C_10  and  P_11
REMARK    9  A    between atoms: P_11  and  O_13
REMARK   10  A    between atoms: P_11  and  O_16
REMARK   11  A    between atoms: O_13  and  C_14
REMARK   12  A    between atoms: C_14  and  C_15
REMARK   13  A    between atoms: O_16  and  C_17
REMARK   14  A    between atoms: C_17  and  C_18
REMARK   15  A    between atoms: C_22  and  O_24
REMARK   16  A    between atoms: O_24  and  C_25
REMARK   17  A    between atoms: C_25  and  C_26
REMARK   18  A    between atoms: C_25  and  C_27
REMARK   19  A    between atoms: C_25  and  C_28
REMARK                            x       y       z     vdW  Elec       q    Type
REMARK                         _______ _______ _______ _____ _____    ______ ____
ROOT
ATOM      1  C   UNL     1       4.706   6.013  17.479  0.00  0.00    +0.000 C 
ENDROOT
BRANCH   1   2
ATOM      2  N   UNL     1       3.653   5.030  17.725  0.00  0.00    +0.000 N 
ATOM      3  C   UNL     1       3.784   4.117  18.726  0.00  0.00    +0.000 C 
ATOM      4  O   UNL     1       4.704   4.128  19.532  0.00  0.00    +0.000 OA
ATOM      5  H   UNL     1       2.928   4.867  17.038  0.00  0.00    +0.000 HD
BRANCH   3   6
ATOM      6  O   UNL     1       2.784   3.210  18.697  0.00  0.00    +0.000 OA
BRANCH   6   7
ATOM      7  C   UNL     1       1.857   3.194  19.816  0.00  0.00    +0.000 C 
ATOM      8  C   UNL     1       0.631   2.322  19.505  0.00  0.00    +0.000 C 
ATOM      9  C   UNL     1       2.616   2.553  20.986  0.00  0.00    +0.000 C 
ATOM     10  C   UNL     1       1.467   4.622  20.232  0.00  0.00    +0.000 C 
ENDBRANCH   6   7
ENDBRANCH   3   6
ENDBRANCH   1   2
BRANCH   1  11
ATOM     11  C   UNL     1       5.756   5.418  16.520  0.00  0.00    +0.000 C 
ATOM     12  O   UNL     1       5.571   5.278  15.317  0.00  0.00    +0.000 OA
BRANCH  11  13
ATOM     13  O   UNL     1       6.941   5.182  17.150  0.00  0.00    +0.000 OA
BRANCH  13  15
ATOM     14  C   UNL     1       7.866   5.712  19.363  0.00  0.00    +0.000 C 
ATOM     15  C   UNL     1       7.458   6.224  17.991  0.00  0.00    +0.000 C 
ENDBRANCH  13  15
ENDBRANCH  11  13
ENDBRANCH   1  11
BRANCH   1  16
ATOM     16  C   UNL     1       4.195   7.385  17.011  0.00  0.00    +0.000 C 
BRANCH  16  17
ATOM     17  C   UNL     1       3.047   7.894  17.810  0.00  0.00    +0.000 A 
ATOM     18  C   UNL     1       2.087   8.858  17.575  0.00  0.00    +0.000 A 
ATOM     19  C   UNL     1       1.423   9.042  18.809  0.00  0.00    +0.000 A 
ATOM     20  C   UNL     1       1.941   8.117  19.680  0.00  0.00    +0.000 A 
ATOM     21  O   UNL     1       2.935   7.414  19.082  0.00  0.00    +0.000 OA
BRANCH  19  22
ATOM     22  P   UNL     1       0.315  10.320  19.271  0.00  0.00    +0.000 P 
ATOM     23  O   UNL     1       1.145  11.559  19.410  0.00  0.00    +0.000 OA
BRANCH  22  24
ATOM     24  O   UNL     1      -0.750  10.406  18.062  0.00  0.00    +0.000 OA
BRANCH  24  25
ATOM     25  C   UNL     1      -2.110  10.162  18.353  0.00  0.00    +0.000 C 
ATOM     26  C   UNL     1      -2.891  10.269  17.059  0.00  0.00    +0.000 C 
ENDBRANCH  24  25
ENDBRANCH  22  24
BRANCH  22  27
ATOM     27  O   UNL     1      -0.601   9.928  20.533  0.00  0.00    +0.000 OA
BRANCH  27  28
ATOM     28  C   UNL     1      -0.272  10.483  21.793  0.00  0.00    +0.000 C 
ATOM     29  C   UNL     1      -0.234   9.366  22.818  0.00  0.00    +0.000 C 
ENDBRANCH  27  28
ENDBRANCH  22  27
ENDBRANCH  19  22
ENDBRANCH  16  17
ENDBRANCH   1  16
TORSDOF 13
ENDMDL
MODEL 8
REMARK VINA RESULT:      -6.4      1.812      4.456
REMARK  Name = 
REMARK  19 active torsions:
REMARK  status: ('A' for Active; 'I' for Inactive)
REMARK    1  A    between atoms: C_1  and  C_2
REMARK    2  A    between atoms: C_2  and  O_3
REMARK    3  A    between atoms: O_3  and  C_4
REMARK    4  A    between atoms: C_4  and  C_6
REMARK    5  A    between atoms: C_6  and  C_7
REMARK    6  A    between atoms: C_6  and  N_21
REMARK    7  A    between atoms: C_7  and  C_8
REMARK    8  A    between atoms: C_10  and  P_11
REMARK    9  A    between atoms: P_11  and  O_13
REMARK   10  A    between atoms: P_11  and  O_16
REMARK   11  A    between atoms: O_13  and  C_14
REMARK   12  A    between atoms: C_14  and  C_15
REMARK   13  A    between atoms: O_16  and  C_17
REMARK   14  A    between atoms: C_17  and  C_18
REMARK   15  A    between atoms: C_22  and  O_24
REMARK   16  A    between atoms: O_24  and  C_25
REMARK   17  A    between atoms: C_25  and  C_26
REMARK   18  A    between atoms: C_25  and  C_27
REMARK   19  A    between atoms: C_25  and  C_28
REMARK                            x       y       z     vdW  Elec       q    Type
REMARK                         _______ _______ _______ _____ _____    ______ ____
ROOT
ATOM      1  C   UNL     1       3.838   7.007  17.734  0.00  0.00    +0.000 C 
ENDROOT
BRANCH   1   2
ATOM      2  N   UNL     1       3.173   5.726  17.961  0.00  0.00    +0.000 N 
ATOM      3  C   UNL     1       3.543   4.933  19.004  0.00  0.00    +0.000 C 
ATOM      4  O   UNL     1       4.347   5.276  19.858  0.00  0.00    +0.000 OA
ATOM      5  H   UNL     1       2.595   5.310  17.241  0.00  0.00    +0.000 HD
BRANCH   3   6
ATOM      6  O   UNL     1       2.920   3.736  18.955  0.00  0.00    +0.000 OA
BRANCH   6   7
ATOM      7  C   UNL     1       1.943   3.444  19.991  0.00  0.00    +0.000 C 
ATOM      8  C   UNL     1       1.245   4.726  20.470  0.00  0.00    +0.000 C 
ATOM      9  C   UNL     1       0.888   2.541  19.336  0.00  0.00    +0.000 C 
ATOM     10  C   UNL     1       2.582   2.659  21.149  0.00  0.00    +0.000 C 
ENDBRANCH   6   7
ENDBRANCH   3   6
ENDBRANCH   1   2
BRANCH   1  11
ATOM     11  C   UNL     1       5.017   6.813  16.761  0.00  0.00    +0.000 C 
ATOM     12  O   UNL     1       4.916   6.934  15.545  0.00  0.00    +0.000 OA
BRANCH  11  13
ATOM     13  O   UNL     1       6.192   6.614  17.420  0.00  0.00    +0.000 OA
BRANCH  13  15
ATOM     14  C   UNL     1       7.755   4.941  18.311  0.00  0.00    +0.000 C 
ATOM     15  C   UNL     1       6.909   5.403  17.135  0.00  0.00    +0.000 C 
ENDBRANCH  13  15
ENDBRANCH  11  13
ENDBRANCH   1  11
BRANCH   1  16
ATOM     16  C   UNL     1       2.897   8.142  17.299  0.00  0.00    +0.000 C 
BRANCH  16  17
ATOM     17  C   UNL     1       2.029   8.647  18.398  0.00  0.00    +0.000 A 
ATOM     18  C   UNL     1       1.211   9.752  18.522  0.00  0.00    +0.000 A 
ATOM     19  C   UNL     1       0.845   9.802  19.886  0.00  0.00    +0.000 A 
ATOM     20  C   UNL     1       1.369   8.681  20.479  0.00  0.00    +0.000 A 
ATOM     21  O   UNL     1       2.097   7.971  19.581  0.00  0.00    +0.000 OA
BRANCH  19  22
ATOM     22  P   UNL     1       0.074  11.112  20.761  0.00  0.00    +0.000 P 
ATOM     23  O   UNL     1       0.279  10.817  22.215  0.00  0.00    +0.000 OA
BRANCH  22  24
ATOM     24  O   UNL     1       0.839  12.446  20.274  0.00  0.00    +0.000 OA
BRANCH  24  25
ATOM     25  C   UNL     1       0.872  13.553  21.149  0.00  0.00    +0.000 C 
ATOM     26  C   UNL     1       0.044  14.662  20.533  0.00  0.00    +0.000 C 
ENDBRANCH  24  25
ENDBRANCH  22  24
BRANCH  22  27
ATOM     27  O   UNL     1      -1.441  11.371  20.291  0.00  0.00    +0.000 OA
BRANCH  27  28
ATOM     28  C   UNL     1      -1.660  11.839  18.974  0.00  0.00    +0.000 C 
ATOM     29  C   UNL     1      -2.363  10.752  18.185  0.00  0.00    +0.000 C 
ENDBRANCH  27  28
ENDBRANCH  22  27
ENDBRANCH  19  22
ENDBRANCH  16  17
ENDBRANCH   1  16
TORSDOF 13
ENDMDL
MODEL 9
REMARK VINA RESULT:      -6.4      1.741      2.838
REMARK  Name = 
REMARK  19 active torsions:
REMARK  status: ('A' for Active; 'I' for Inactive)
REMARK    1  A    between atoms: C_1  and  C_2
REMARK    2  A    between atoms: C_2  and  O_3
REMARK    3  A    between atoms: O_3  and  C_4
REMARK    4  A    between atoms: C_4  and  C_6
REMARK    5  A    between atoms: C_6  and  C_7
REMARK    6  A    between atoms: C_6  and  N_21
REMARK    7  A    between atoms: C_7  and  C_8
REMARK    8  A    between atoms: C_10  and  P_11
REMARK    9  A    between atoms: P_11  and  O_13
REMARK   10  A    between atoms: P_11  and  O_16
REMARK   11  A    between atoms: O_13  and  C_14
REMARK   12  A    between atoms: C_14  and  C_15
REMARK   13  A    between atoms: O_16  and  C_17
REMARK   14  A    between atoms: C_17  and  C_18
REMARK   15  A    between atoms: C_22  and  O_24
REMARK   16  A    between atoms: O_24  and  C_25
REMARK   17  A    between atoms: C_25  and  C_26
REMARK   18  A    between atoms: C_25  and  C_27
REMARK   19  A    between atoms: C_25  and  C_28
REMARK                            x       y       z     vdW  Elec       q    Type
REMARK                         _______ _______ _______ _____ _____    ______ ____
ROOT
ATOM      1  C   UNL     1       2.276   5.613  19.917  0.00  0.00    +0.000 C 
ENDROOT
BRANCH   1   2
ATOM      2  N   UNL     1       3.732   5.499  19.860  0.00  0.00    +0.000 N 
ATOM      3  C   UNL     1       4.355   5.227  18.680  0.00  0.00    +0.000 C 
ATOM      4  O   UNL     1       3.772   5.175  17.607  0.00  0.00    +0.000 OA
ATOM      5  H   UNL     1       4.276   5.401  20.708  0.00  0.00    +0.000 HD
BRANCH   3   6
ATOM      6  O   UNL     1       5.676   5.015  18.862  0.00  0.00    +0.000 OA
BRANCH   6   7
ATOM      7  C   UNL     1       6.595   5.680  17.953  0.00  0.00    +0.000 C 
ATOM      8  C   UNL     1       7.038   4.735  16.826  0.00  0.00    +0.000 C 
ATOM      9  C   UNL     1       5.806   6.838  17.325  0.00  0.00    +0.000 C 
ATOM     10  C   UNL     1       7.789   6.281  18.714  0.00  0.00    +0.000 C 
ENDBRANCH   6   7
ENDBRANCH   3   6
ENDBRANCH   1   2
BRANCH   1  11
ATOM     11  C   UNL     1       1.653   4.214  20.095  0.00  0.00    +0.000 C 
ATOM     12  O   UNL     1       1.570   3.645  21.177  0.00  0.00    +0.000 OA
BRANCH  11  13
ATOM     13  O   UNL     1       1.108   3.751  18.937  0.00  0.00    +0.000 OA
BRANCH  13  15
ATOM     14  C   UNL     1       2.629   1.931  18.295  0.00  0.00    +0.000 C 
ATOM     15  C   UNL     1       1.216   2.344  18.675  0.00  0.00    +0.000 C 
ENDBRANCH  13  15
ENDBRANCH  11  13
ENDBRANCH   1  11
BRANCH   1  16
ATOM     16  C   UNL     1       1.760   6.623  20.955  0.00  0.00    +0.000 C 
BRANCH  16  17
ATOM     17  C   UNL     1       1.523   7.981  20.394  0.00  0.00    +0.000 A 
ATOM     18  C   UNL     1       0.883   9.104  20.880  0.00  0.00    +0.000 A 
ATOM     19  C   UNL     1       0.789   9.991  19.783  0.00  0.00    +0.000 A 
ATOM     20  C   UNL     1       1.462   9.406  18.740  0.00  0.00    +0.000 A 
ATOM     21  O   UNL     1       1.910   8.177  19.101  0.00  0.00    +0.000 OA
BRANCH  19  22
ATOM     22  P   UNL     1      -0.168  11.453  19.643  0.00  0.00    +0.000 P 
ATOM     23  O   UNL     1      -1.167  11.404  20.758  0.00  0.00    +0.000 OA
BRANCH  22  24
ATOM     24  O   UNL     1       0.891  12.661  19.797  0.00  0.00    +0.000 OA
BRANCH  24  25
ATOM     25  C   UNL     1       1.234  13.398  18.642  0.00  0.00    +0.000 C 
ATOM     26  C   UNL     1       2.611  12.951  18.196  0.00  0.00    +0.000 C 
ENDBRANCH  24  25
ENDBRANCH  22  24
BRANCH  22  27
ATOM     27  O   UNL     1      -0.759  11.676  18.164  0.00  0.00    +0.000 OA
BRANCH  27  28
ATOM     28  C   UNL     1      -2.077  11.235  17.900  0.00  0.00    +0.000 C 
ATOM     29  C   UNL     1      -2.007   9.990  17.036  0.00  0.00    +0.000 C 
ENDBRANCH  27  28
ENDBRANCH  22  27
ENDBRANCH  19  22
ENDBRANCH  16  17
ENDBRANCH   1  16
TORSDOF 13
ENDMDL
