MODEL 1
REMARK VINA RESULT:      -7.2      0.000      0.000
REMARK  Name = 
REMARK  14 active torsions:
REMARK  status: ('A' for Active; 'I' for Inactive)
REMARK    1  A    between atoms: C_1  and  C_2
REMARK    2  A    between atoms: C_2  and  C_3
REMARK    3  A    between atoms: C_3  and  C_4
REMARK    4  A    between atoms: C_4  and  N_5
REMARK    5  A    between atoms: N_5  and  C_6
REMARK    6  A    between atoms: N_5  and  C_8
REMARK    7  A    between atoms: C_6  and  C_7
REMARK    8  A    between atoms: C_8  and  C_9
REMARK    9  A    between atoms: C_9  and  C_10
REMARK   10  A    between atoms: C_10  and  N_11
REMARK   11  A    between atoms: C_12  and  C_14
REMARK   12  A    between atoms: C_18  and  C_19
REMARK   13  A    between atoms: C_21  and  C_22
REMARK   14  A    between atoms: C_24  and  N_25
REMARK                            x       y       z     vdW  Elec       q    Type
REMARK                         _______ _______ _______ _____ _____    ______ ____
ROOT
ATOM      1  C   UNL     1       2.566   6.730  19.065  0.00  0.00    +0.000 A 
ATOM      2  S   UNL     1       3.433   7.540  17.829  0.00  0.00    +0.000 S 
ATOM      3  C   UNL     1       4.113   6.113  17.242  0.00  0.00    +0.000 A 
ATOM      4  N   UNL     1       4.949   6.214  16.191  0.00  0.00    +0.000 NA
ATOM      5  C   UNL     1       5.442   5.060  15.733  0.00  0.00    +0.000 A 
ATOM      6  C   UNL     1       6.358   5.123  14.546  0.00  0.00    +0.000 C 
ATOM      7  C   UNL     1       5.122   3.833  16.286  0.00  0.00    +0.000 A 
ATOM      8  C   UNL     1       4.226   3.739  17.373  0.00  0.00    +0.000 A 
ATOM      9  C   UNL     1       3.914   2.330  17.815  0.00  0.00    +0.000 C 
ATOM     10  C   UNL     1       3.707   4.962  17.920  0.00  0.00    +0.000 A 
ATOM     11  C   UNL     1       2.777   5.346  19.009  0.00  0.00    +0.000 A 
ENDROOT
BRANCH  11  12
ATOM     12  N   UNL     1       2.193   4.412  19.945  0.00  0.00    +0.000 N 
ATOM     13  C   UNL     1       2.715   4.056  21.171  0.00  0.00    +0.000 A 
ATOM     14  C   UNL     1       1.927   3.092  21.761  0.00  0.00    +0.000 A 
ATOM     15  C   UNL     1       0.799   2.933  20.936  0.00  0.00    +0.000 A 
ATOM     16  C   UNL     1       1.003   3.721  19.827  0.00  0.00    +0.000 A 
ENDBRANCH  11  12
BRANCH   1  18
ATOM     17  N   UNL     1       1.565   8.872  19.580  0.00  0.00    +0.000 N 
ATOM     18  C   UNL     1       1.804   7.570  19.991  0.00  0.00    +0.000 C 
ATOM     19  O   UNL     1       1.385   7.211  21.092  0.00  0.00    +0.000 OA
ATOM     20  H   UNL     1       1.961   9.190  18.703  0.00  0.00    +0.000 HD
BRANCH  17  21
ATOM     21  C   UNL     1       0.912   9.830  20.439  0.00  0.00    +0.000 C 
BRANCH  21  22
ATOM     22  C   UNL     1       0.351  11.021  19.661  0.00  0.00    +0.000 C 
BRANCH  22  23
ATOM     23  C   UNL     1      -0.694  10.631  18.603  0.00  0.00    +0.000 C 
BRANCH  23  24
ATOM     24  N   UNL     1      -1.696  11.675  18.319  0.00  0.00    +0.000 NA
BRANCH  24  25
ATOM     25  C   UNL     1      -1.679  12.729  19.349  0.00  0.00    +0.000 C 
ATOM     26  C   UNL     1      -2.820  12.708  20.365  0.00  0.00    +0.000 C 
ENDBRANCH  24  25
BRANCH  24  27
ATOM     27  C   UNL     1      -3.033  11.103  18.066  0.00  0.00    +0.000 C 
BRANCH  27  28
ATOM     28  C   UNL     1      -2.991   9.711  17.428  0.00  0.00    +0.000 C 
BRANCH  28  30
ATOM     29  C   UNL     1      -3.419  10.917  15.287  0.00  0.00    +0.000 C 
ATOM     30  C   UNL     1      -2.661   9.772  15.938  0.00  0.00    +0.000 C 
ENDBRANCH  28  30
ENDBRANCH  27  28
ENDBRANCH  24  27
ENDBRANCH  23  24
ENDBRANCH  22  23
ENDBRANCH  21  22
ENDBRANCH  17  21
ENDBRANCH   1  18
TORSDOF 10
ENDMDL
MODEL 2
REMARK VINA RESULT:      -7.1      0.910      1.436
REMARK  Name = 
REMARK  14 active torsions:
REMARK  status: ('A' for Active; 'I' for Inactive)
REMARK    1  A    between atoms: C_1  and  C_2
REMARK    2  A    between atoms: C_2  and  C_3
REMARK    3  A    between atoms: C_3  and  C_4
REMARK    4  A    between atoms: C_4  and  N_5
REMARK    5  A    between atoms: N_5  and  C_6
REMARK    6  A    between atoms: N_5  and  C_8
REMARK    7  A    between atoms: C_6  and  C_7
REMARK    8  A    between atoms: C_8  and  C_9
REMARK    9  A    between atoms: C_9  and  C_10
REMARK   10  A    between atoms: C_10  and  N_11
REMARK   11  A    between atoms: C_12  and  C_14
REMARK   12  A    between atoms: C_18  and  C_19
REMARK   13  A    between atoms: C_21  and  C_22
REMARK   14  A    between atoms: C_24  and  N_25
REMARK                            x       y       z     vdW  Elec       q    Type
REMARK                         _______ _______ _______ _____ _____    ______ ____
ROOT
ATOM      1  C   UNL     1       2.855   6.968  18.522  0.00  0.00    +0.000 A 
ATOM      2  S   UNL     1       3.883   7.664  17.341  0.00  0.00    +0.000 S 
ATOM      3  C   UNL     1       4.550   6.176  16.911  0.00  0.00    +0.000 A 
ATOM      4  N   UNL     1       5.493   6.176  15.950  0.00  0.00    +0.000 NA
ATOM      5  C   UNL     1       5.975   4.976  15.614  0.00  0.00    +0.000 A 
ATOM      6  C   UNL     1       7.010   4.927  14.528  0.00  0.00    +0.000 C 
ATOM      7  C   UNL     1       5.541   3.801  16.199  0.00  0.00    +0.000 A 
ATOM      8  C   UNL     1       4.533   3.812  17.188  0.00  0.00    +0.000 A 
ATOM      9  C   UNL     1       4.110   2.447  17.674  0.00  0.00    +0.000 C 
ATOM     10  C   UNL     1       4.021   5.087  17.607  0.00  0.00    +0.000 A 
ATOM     11  C   UNL     1       3.003   5.577  18.568  0.00  0.00    +0.000 A 
ENDROOT
BRANCH  11  12
ATOM     12  N   UNL     1       2.281   4.727  19.488  0.00  0.00    +0.000 N 
ATOM     13  C   UNL     1       1.152   3.990  19.197  0.00  0.00    +0.000 A 
ATOM     14  C   UNL     1       0.695   3.353  20.331  0.00  0.00    +0.000 A 
ATOM     15  C   UNL     1       1.647   3.593  21.338  0.00  0.00    +0.000 A 
ATOM     16  C   UNL     1       2.579   4.454  20.808  0.00  0.00    +0.000 A 
ENDBRANCH  11  12
BRANCH   1  18
ATOM     17  N   UNL     1       1.488   8.963  18.624  0.00  0.00    +0.000 N 
ATOM     18  C   UNL     1       2.043   7.896  19.312  0.00  0.00    +0.000 C 
ATOM     19  O   UNL     1       1.839   7.803  20.524  0.00  0.00    +0.000 OA
ATOM     20  H   UNL     1       1.704   9.078  17.640  0.00  0.00    +0.000 HD
BRANCH  17  21
ATOM     21  C   UNL     1       0.749  10.001  19.302  0.00  0.00    +0.000 C 
BRANCH  21  22
ATOM     22  C   UNL     1      -0.744   9.962  18.972  0.00  0.00    +0.000 C 
BRANCH  22  23
ATOM     23  C   UNL     1      -1.340  11.339  18.642  0.00  0.00    +0.000 C 
BRANCH  23  24
ATOM     24  N   UNL     1      -2.398  11.318  17.615  0.00  0.00    +0.000 NA
BRANCH  24  25
ATOM     25  C   UNL     1      -3.658  11.882  18.133  0.00  0.00    +0.000 C 
ATOM     26  C   UNL     1      -4.846  10.927  18.224  0.00  0.00    +0.000 C 
ENDBRANCH  24  25
BRANCH  24  27
ATOM     27  C   UNL     1      -2.545   9.984  17.000  0.00  0.00    +0.000 C 
BRANCH  27  28
ATOM     28  C   UNL     1      -2.490  10.008  15.469  0.00  0.00    +0.000 C 
BRANCH  28  30
ATOM     29  C   UNL     1      -3.778   9.985  13.333  0.00  0.00    +0.000 C 
ATOM     30  C   UNL     1      -3.883  10.082  14.846  0.00  0.00    +0.000 C 
ENDBRANCH  28  30
ENDBRANCH  27  28
ENDBRANCH  24  27
ENDBRANCH  23  24
ENDBRANCH  22  23
ENDBRANCH  21  22
ENDBRANCH  17  21
ENDBRANCH   1  18
TORSDOF 10
ENDMDL
MODEL 3
REMARK VINA RESULT:      -7.1      1.350      2.142
REMARK  Name = 
REMARK  14 active torsions:
REMARK  status: ('A' for Active; 'I' for Inactive)
REMARK    1  A    between atoms: C_1  and  C_2
REMARK    2  A    between atoms: C_2  and  C_3
REMARK    3  A    between atoms: C_3  and  C_4
REMARK    4  A    between atoms: C_4  and  N_5
REMARK    5  A    between atoms: N_5  and  C_6
REMARK    6  A    between atoms: N_5  and  C_8
REMARK    7  A    between atoms: C_6  and  C_7
REMARK    8  A    between atoms: C_8  and  C_9
REMARK    9  A    between atoms: C_9  and  C_10
REMARK   10  A    between atoms: C_10  and  N_11
REMARK   11  A    between atoms: C_12  and  C_14
REMARK   12  A    between atoms: C_18  and  C_19
REMARK   13  A    between atoms: C_21  and  C_22
REMARK   14  A    between atoms: C_24  and  N_25
REMARK                            x       y       z     vdW  Elec       q    Type
REMARK                         _______ _______ _______ _____ _____    ______ ____
ROOT
ATOM      1  C   UNL     1       2.855   7.062  18.322  0.00  0.00    +0.000 A 
ATOM      2  S   UNL     1       3.879   7.735  17.124  0.00  0.00    +0.000 S 
ATOM      3  C   UNL     1       4.551   6.241  16.727  0.00  0.00    +0.000 A 
ATOM      4  N   UNL     1       5.494   6.224  15.765  0.00  0.00    +0.000 NA
ATOM      5  C   UNL     1       5.981   5.019  15.455  0.00  0.00    +0.000 A 
ATOM      6  C   UNL     1       7.015   4.951  14.369  0.00  0.00    +0.000 C 
ATOM      7  C   UNL     1       5.553   3.855  16.067  0.00  0.00    +0.000 A 
ATOM      8  C   UNL     1       4.547   3.884  17.058  0.00  0.00    +0.000 A 
ATOM      9  C   UNL     1       4.130   2.529  17.574  0.00  0.00    +0.000 C 
ATOM     10  C   UNL     1       4.029   5.166  17.448  0.00  0.00    +0.000 A 
ATOM     11  C   UNL     1       3.010   5.672  18.399  0.00  0.00    +0.000 A 
ENDROOT
BRANCH  11  12
ATOM     12  N   UNL     1       2.293   4.840  19.339  0.00  0.00    +0.000 N 
ATOM     13  C   UNL     1       1.197   4.054  19.055  0.00  0.00    +0.000 A 
ATOM     14  C   UNL     1       0.733   3.452  20.205  0.00  0.00    +0.000 A 
ATOM     15  C   UNL     1       1.651   3.768  21.223  0.00  0.00    +0.000 A 
ATOM     16  C   UNL     1       2.567   4.636  20.677  0.00  0.00    +0.000 A 
ENDBRANCH  11  12
BRANCH   1  18
ATOM     17  N   UNL     1       1.455   9.035  18.376  0.00  0.00    +0.000 N 
ATOM     18  C   UNL     1       2.040   8.003  19.092  0.00  0.00    +0.000 C 
ATOM     19  O   UNL     1       1.858   7.950  20.310  0.00  0.00    +0.000 OA
ATOM     20  H   UNL     1       1.653   9.118  17.385  0.00  0.00    +0.000 HD
BRANCH  17  21
ATOM     21  C   UNL     1       0.709  10.084  19.029  0.00  0.00    +0.000 C 
BRANCH  21  22
ATOM     22  C   UNL     1      -0.801   9.920  18.852  0.00  0.00    +0.000 C 
BRANCH  22  23
ATOM     23  C   UNL     1      -1.489  11.150  18.241  0.00  0.00    +0.000 C 
BRANCH  23  24
ATOM     24  N   UNL     1      -2.744  10.857  17.524  0.00  0.00    +0.000 NA
BRANCH  24  25
ATOM     25  C   UNL     1      -2.584  11.039  16.069  0.00  0.00    +0.000 C 
ATOM     26  C   UNL     1      -2.994   9.862  15.186  0.00  0.00    +0.000 C 
ENDBRANCH  24  25
BRANCH  24  27
ATOM     27  C   UNL     1      -3.892  11.584  18.099  0.00  0.00    +0.000 C 
BRANCH  27  28
ATOM     28  C   UNL     1      -5.177  10.751  18.154  0.00  0.00    +0.000 C 
BRANCH  28  30
ATOM     29  C   UNL     1      -6.739  12.544  17.399  0.00  0.00    +0.000 C 
ATOM     30  C   UNL     1      -6.391  11.596  18.535  0.00  0.00    +0.000 C 
ENDBRANCH  28  30
ENDBRANCH  27  28
ENDBRANCH  24  27
ENDBRANCH  23  24
ENDBRANCH  22  23
ENDBRANCH  21  22
ENDBRANCH  17  21
ENDBRANCH   1  18
TORSDOF 10
ENDMDL
MODEL 4
REMARK VINA RESULT:      -7.1      1.085      2.264
REMARK  Name = 
REMARK  14 active torsions:
REMARK  status: ('A' for Active; 'I' for Inactive)
REMARK    1  A    between atoms: C_1  and  C_2
REMARK    2  A    between atoms: C_2  and  C_3
REMARK    3  A    between atoms: C_3  and  C_4
REMARK    4  A    between atoms: C_4  and  N_5
REMARK    5  A    between atoms: N_5  and  C_6
REMARK    6  A    between atoms: N_5  and  C_8
REMARK    7  A    between atoms: C_6  and  C_7
REMARK    8  A    between atoms: C_8  and  C_9
REMARK    9  A    between atoms: C_9  and  C_10
REMARK   10  A    between atoms: C_10  and  N_11
REMARK   11  A    between atoms: C_12  and  C_14
REMARK   12  A    between atoms: C_18  and  C_19
REMARK   13  A    between atoms: C_21  and  C_22
REMARK   14  A    between atoms: C_24  and  N_25
REMARK                            x       y       z     vdW  Elec       q    Type
REMARK                         _______ _______ _______ _____ _____    ______ ____
ROOT
ATOM      1  C   UNL     1       2.651   6.825  18.883  0.00  0.00    +0.000 A 
ATOM      2  S   UNL     1       3.560   7.589  17.649  0.00  0.00    +0.000 S 
ATOM      3  C   UNL     1       4.219   6.135  17.106  0.00  0.00    +0.000 A 
ATOM      4  N   UNL     1       5.078   6.195  16.069  0.00  0.00    +0.000 NA
ATOM      5  C   UNL     1       5.554   5.020  15.646  0.00  0.00    +0.000 A 
ATOM      6  C   UNL     1       6.494   5.038  14.477  0.00  0.00    +0.000 C 
ATOM      7  C   UNL     1       5.196   3.814  16.219  0.00  0.00    +0.000 A 
ATOM      8  C   UNL     1       4.277   3.763  17.290  0.00  0.00    +0.000 A 
ATOM      9  C   UNL     1       3.926   2.371  17.755  0.00  0.00    +0.000 C 
ATOM     10  C   UNL     1       3.775   5.008  17.800  0.00  0.00    +0.000 A 
ATOM     11  C   UNL     1       2.833   5.436  18.862  0.00  0.00    +0.000 A 
ENDROOT
BRANCH  11  12
ATOM     12  N   UNL     1       2.209   4.535  19.805  0.00  0.00    +0.000 N 
ATOM     13  C   UNL     1       2.663   4.247  21.075  0.00  0.00    +0.000 A 
ATOM     14  C   UNL     1       1.858   3.296  21.663  0.00  0.00    +0.000 A 
ATOM     15  C   UNL     1       0.784   3.078  20.782  0.00  0.00    +0.000 A 
ATOM     16  C   UNL     1       1.040   3.817  19.651  0.00  0.00    +0.000 A 
ENDBRANCH  11  12
BRANCH   1  18
ATOM     17  N   UNL     1       1.557   8.948  19.271  0.00  0.00    +0.000 N 
ATOM     18  C   UNL     1       1.890   7.701  19.776  0.00  0.00    +0.000 C 
ATOM     19  O   UNL     1       1.548   7.418  20.925  0.00  0.00    +0.000 OA
ATOM     20  H   UNL     1       1.890   9.209  18.349  0.00  0.00    +0.000 HD
BRANCH  17  21
ATOM     21  C   UNL     1       0.894   9.943  20.081  0.00  0.00    +0.000 C 
BRANCH  21  22
ATOM     22  C   UNL     1      -0.596  10.056  19.758  0.00  0.00    +0.000 C 
BRANCH  22  23
ATOM     23  C   UNL     1      -1.210  11.411  20.143  0.00  0.00    +0.000 C 
BRANCH  23  24
ATOM     24  N   UNL     1      -1.769  12.173  19.011  0.00  0.00    +0.000 NA
BRANCH  24  25
ATOM     25  C   UNL     1      -2.733  11.363  18.243  0.00  0.00    +0.000 C 
ATOM     26  C   UNL     1      -2.449  11.200  16.751  0.00  0.00    +0.000 C 
ENDBRANCH  24  25
BRANCH  24  27
ATOM     27  C   UNL     1      -0.713  12.792  18.187  0.00  0.00    +0.000 C 
BRANCH  27  28
ATOM     28  C   UNL     1      -0.190  14.115  18.756  0.00  0.00    +0.000 C 
BRANCH  28  30
ATOM     29  C   UNL     1       1.937  12.940  18.191  0.00  0.00    +0.000 C 
ATOM     30  C   UNL     1       1.321  14.087  18.976  0.00  0.00    +0.000 C 
ENDBRANCH  28  30
ENDBRANCH  27  28
ENDBRANCH  24  27
ENDBRANCH  23  24
ENDBRANCH  22  23
ENDBRANCH  21  22
ENDBRANCH  17  21
ENDBRANCH   1  18
TORSDOF 10
ENDMDL
MODEL 5
REMARK VINA RESULT:      -6.9      0.706      2.275
REMARK  Name = 
REMARK  14 active torsions:
REMARK  status: ('A' for Active; 'I' for Inactive)
REMARK    1  A    between atoms: C_1  and  C_2
REMARK    2  A    between atoms: C_2  and  C_3
REMARK    3  A    between atoms: C_3  and  C_4
REMARK    4  A    between atoms: C_4  and  N_5
REMARK    5  A    between atoms: N_5  and  C_6
REMARK    6  A    between atoms: N_5  and  C_8
REMARK    7  A    between atoms: C_6  and  C_7
REMARK    8  A    between atoms: C_8  and  C_9
REMARK    9  A    between atoms: C_9  and  C_10
REMARK   10  A    between atoms: C_10  and  N_11
REMARK   11  A    between atoms: C_12  and  C_14
REMARK   12  A    between atoms: C_18  and  C_19
REMARK   13  A    between atoms: C_21  and  C_22
REMARK   14  A    between atoms: C_24  and  N_25
REMARK                            x       y       z     vdW  Elec       q    Type
REMARK                         _______ _______ _______ _____ _____    ______ ____
ROOT
ATOM      1  C   UNL     1       2.780   6.727  18.781  0.00  0.00    +0.000 A 
ATOM      2  S   UNL     1       3.715   7.473  17.555  0.00  0.00    +0.000 S 
ATOM      3  C   UNL     1       4.372   6.010  17.036  0.00  0.00    +0.000 A 
ATOM      4  N   UNL     1       5.247   6.054  16.013  0.00  0.00    +0.000 NA
ATOM      5  C   UNL     1       5.722   4.873  15.608  0.00  0.00    +0.000 A 
ATOM      6  C   UNL     1       6.681   4.873  14.454  0.00  0.00    +0.000 C 
ATOM      7  C   UNL     1       5.346   3.674  16.185  0.00  0.00    +0.000 A 
ATOM      8  C   UNL     1       4.409   3.639  17.241  0.00  0.00    +0.000 A 
ATOM      9  C   UNL     1       4.039   2.254  17.712  0.00  0.00    +0.000 C 
ATOM     10  C   UNL     1       3.908   4.893  17.732  0.00  0.00    +0.000 A 
ATOM     11  C   UNL     1       2.951   5.337  18.774  0.00  0.00    +0.000 A 
ENDROOT
BRANCH  11  12
ATOM     12  N   UNL     1       2.306   4.449  19.715  0.00  0.00    +0.000 N 
ATOM     13  C   UNL     1       1.133   3.755  19.504  0.00  0.00    +0.000 A 
ATOM     14  C   UNL     1       0.780   3.061  20.641  0.00  0.00    +0.000 A 
ATOM     15  C   UNL     1       1.839   3.218  21.553  0.00  0.00    +0.000 A 
ATOM     16  C   UNL     1       2.733   4.090  20.978  0.00  0.00    +0.000 A 
ENDBRANCH  11  12
BRANCH   1  18
ATOM     17  N   UNL     1       1.578   8.805  19.086  0.00  0.00    +0.000 N 
ATOM     18  C   UNL     1       2.011   7.617  19.653  0.00  0.00    +0.000 C 
ATOM     19  O   UNL     1       1.744   7.394  20.835  0.00  0.00    +0.000 OA
ATOM     20  H   UNL     1       1.848   9.021  18.133  0.00  0.00    +0.000 HD
BRANCH  17  21
ATOM     21  C   UNL     1       0.895   9.812  19.863  0.00  0.00    +0.000 C 
BRANCH  21  22
ATOM     22  C   UNL     1       0.268  10.897  18.986  0.00  0.00    +0.000 C 
BRANCH  22  23
ATOM     23  C   UNL     1      -0.887  10.391  18.108  0.00  0.00    +0.000 C 
BRANCH  23  24
ATOM     24  N   UNL     1      -2.225  10.826  18.548  0.00  0.00    +0.000 NA
BRANCH  24  25
ATOM     25  C   UNL     1      -3.256  10.471  17.555  0.00  0.00    +0.000 C 
ATOM     26  C   UNL     1      -2.759   9.877  16.239  0.00  0.00    +0.000 C 
ENDBRANCH  24  25
BRANCH  24  27
ATOM     27  C   UNL     1      -2.241  12.246  18.950  0.00  0.00    +0.000 C 
BRANCH  27  28
ATOM     28  C   UNL     1      -2.839  12.480  20.341  0.00  0.00    +0.000 C 
BRANCH  28  30
ATOM     29  C   UNL     1      -4.913  12.803  21.689  0.00  0.00    +0.000 C 
ATOM     30  C   UNL     1      -4.343  12.742  20.282  0.00  0.00    +0.000 C 
ENDBRANCH  28  30
ENDBRANCH  27  28
ENDBRANCH  24  27
ENDBRANCH  23  24
ENDBRANCH  22  23
ENDBRANCH  21  22
ENDBRANCH  17  21
ENDBRANCH   1  18
TORSDOF 10
ENDMDL
MODEL 6
REMARK VINA RESULT:      -6.9      0.893      1.137
REMARK  Name = 
REMARK  14 active torsions:
REMARK  status: ('A' for Active; 'I' for Inactive)
REMARK    1  A    between atoms: C_1  and  C_2
REMARK    2  A    between atoms: C_2  and  C_3
REMARK    3  A    between atoms: C_3  and  C_4
REMARK    4  A    between atoms: C_4  and  N_5
REMARK    5  A    between atoms: N_5  and  C_6
REMARK    6  A    between atoms: N_5  and  C_8
REMARK    7  A    between atoms: C_6  and  C_7
REMARK    8  A    between atoms: C_8  and  C_9
REMARK    9  A    between atoms: C_9  and  C_10
REMARK   10  A    between atoms: C_10  and  N_11
REMARK   11  A    between atoms: C_12  and  C_14
REMARK   12  A    between atoms: C_18  and  C_19
REMARK   13  A    between atoms: C_21  and  C_22
REMARK   14  A    between atoms: C_24  and  N_25
REMARK                            x       y       z     vdW  Elec       q    Type
REMARK                         _______ _______ _______ _____ _____    ______ ____
ROOT
ATOM      1  C   UNL     1       2.718   6.842  18.810  0.00  0.00    +0.000 A 
ATOM      2  S   UNL     1       3.645   7.599  17.583  0.00  0.00    +0.000 S 
ATOM      3  C   UNL     1       4.301   6.140  17.051  0.00  0.00    +0.000 A 
ATOM      4  N   UNL     1       5.171   6.193  16.023  0.00  0.00    +0.000 NA
ATOM      5  C   UNL     1       5.645   5.014  15.608  0.00  0.00    +0.000 A 
ATOM      6  C   UNL     1       6.598   5.024  14.448  0.00  0.00    +0.000 C 
ATOM      7  C   UNL     1       5.274   3.811  16.178  0.00  0.00    +0.000 A 
ATOM      8  C   UNL     1       4.342   3.768  17.239  0.00  0.00    +0.000 A 
ATOM      9  C   UNL     1       3.978   2.379  17.703  0.00  0.00    +0.000 C 
ATOM     10  C   UNL     1       3.842   5.017  17.742  0.00  0.00    +0.000 A 
ATOM     11  C   UNL     1       2.891   5.453  18.792  0.00  0.00    +0.000 A 
ENDROOT
BRANCH  11  12
ATOM     12  N   UNL     1       2.252   4.557  19.730  0.00  0.00    +0.000 N 
ATOM     13  C   UNL     1       2.690   4.270  21.006  0.00  0.00    +0.000 A 
ATOM     14  C   UNL     1       1.873   3.325  21.587  0.00  0.00    +0.000 A 
ATOM     15  C   UNL     1       0.808   3.109  20.695  0.00  0.00    +0.000 A 
ATOM     16  C   UNL     1       1.081   3.844  19.565  0.00  0.00    +0.000 A 
ENDBRANCH  11  12
BRANCH   1  18
ATOM     17  N   UNL     1       1.482   8.899  19.125  0.00  0.00    +0.000 N 
ATOM     18  C   UNL     1       1.952   7.725  19.692  0.00  0.00    +0.000 C 
ATOM     19  O   UNL     1       1.718   7.508  20.882  0.00  0.00    +0.000 OA
ATOM     20  H   UNL     1       1.725   9.111  18.164  0.00  0.00    +0.000 HD
BRANCH  17  21
ATOM     21  C   UNL     1       0.799   9.900  19.909  0.00  0.00    +0.000 C 
BRANCH  21  22
ATOM     22  C   UNL     1      -0.649  10.102  19.460  0.00  0.00    +0.000 C 
BRANCH  22  23
ATOM     23  C   UNL     1      -0.798  11.054  18.263  0.00  0.00    +0.000 C 
BRANCH  23  24
ATOM     24  N   UNL     1      -1.709  12.190  18.494  0.00  0.00    +0.000 NA
BRANCH  24  25
ATOM     25  C   UNL     1      -1.131  13.154  19.449  0.00  0.00    +0.000 C 
ATOM     26  C   UNL     1      -2.073  13.702  20.519  0.00  0.00    +0.000 C 
ENDBRANCH  24  25
BRANCH  24  27
ATOM     27  C   UNL     1      -3.072  11.744  18.842  0.00  0.00    +0.000 C 
BRANCH  27  28
ATOM     28  C   UNL     1      -3.799  11.046  17.688  0.00  0.00    +0.000 C 
BRANCH  28  30
ATOM     29  C   UNL     1      -6.264  11.213  18.034  0.00  0.00    +0.000 C 
ATOM     30  C   UNL     1      -5.073  11.785  17.283  0.00  0.00    +0.000 C 
ENDBRANCH  28  30
ENDBRANCH  27  28
ENDBRANCH  24  27
ENDBRANCH  23  24
ENDBRANCH  22  23
ENDBRANCH  21  22
ENDBRANCH  17  21
ENDBRANCH   1  18
TORSDOF 10
ENDMDL
MODEL 7
REMARK VINA RESULT:      -6.9      1.457      2.561
REMARK  Name = 
REMARK  14 active torsions:
REMARK  status: ('A' for Active; 'I' for Inactive)
REMARK    1  A    between atoms: C_1  and  C_2
REMARK    2  A    between atoms: C_2  and  C_3
REMARK    3  A    between atoms: C_3  and  C_4
REMARK    4  A    between atoms: C_4  and  N_5
REMARK    5  A    between atoms: N_5  and  C_6
REMARK    6  A    between atoms: N_5  and  C_8
REMARK    7  A    between atoms: C_6  and  C_7
REMARK    8  A    between atoms: C_8  and  C_9
REMARK    9  A    between atoms: C_9  and  C_10
REMARK   10  A    between atoms: C_10  and  N_11
REMARK   11  A    between atoms: C_12  and  C_14
REMARK   12  A    between atoms: C_18  and  C_19
REMARK   13  A    between atoms: C_21  and  C_22
REMARK   14  A    between atoms: C_24  and  N_25
REMARK                            x       y       z     vdW  Elec       q    Type
REMARK                         _______ _______ _______ _____ _____    ______ ____
ROOT
ATOM      1  C   UNL     1       2.911   6.973  18.437  0.00  0.00    +0.000 A 
ATOM      2  S   UNL     1       3.915   7.663  17.233  0.00  0.00    +0.000 S 
ATOM      3  C   UNL     1       4.584   6.176  16.807  0.00  0.00    +0.000 A 
ATOM      4  N   UNL     1       5.512   6.174  15.830  0.00  0.00    +0.000 NA
ATOM      5  C   UNL     1       5.996   4.973  15.497  0.00  0.00    +0.000 A 
ATOM      6  C   UNL     1       7.014   4.922  14.395  0.00  0.00    +0.000 C 
ATOM      7  C   UNL     1       5.579   3.801  16.099  0.00  0.00    +0.000 A 
ATOM      8  C   UNL     1       4.588   3.815  17.105  0.00  0.00    +0.000 A 
ATOM      9  C   UNL     1       4.182   2.452  17.610  0.00  0.00    +0.000 C 
ATOM     10  C   UNL     1       4.074   5.090  17.520  0.00  0.00    +0.000 A 
ATOM     11  C   UNL     1       3.069   5.582  18.493  0.00  0.00    +0.000 A 
ENDROOT
BRANCH  11  12
ATOM     12  N   UNL     1       2.367   4.737  19.433  0.00  0.00    +0.000 N 
ATOM     13  C   UNL     1       2.717   4.520  20.749  0.00  0.00    +0.000 A 
ATOM     14  C   UNL     1       1.862   3.604  21.323  0.00  0.00    +0.000 A 
ATOM     15  C   UNL     1       0.860   3.339  20.373  0.00  0.00    +0.000 A 
ATOM     16  C   UNL     1       1.209   4.013  19.227  0.00  0.00    +0.000 A 
ENDBRANCH  11  12
BRANCH   1  18
ATOM     17  N   UNL     1       1.646   9.031  18.574  0.00  0.00    +0.000 N 
ATOM     18  C   UNL     1       2.106   7.902  19.232  0.00  0.00    +0.000 C 
ATOM     19  O   UNL     1       1.831   7.759  20.425  0.00  0.00    +0.000 OA
ATOM     20  H   UNL     1       1.922   9.184  17.610  0.00  0.00    +0.000 HD
BRANCH  17  21
ATOM     21  C   UNL     1       0.926  10.073  19.267  0.00  0.00    +0.000 C 
BRANCH  21  22
ATOM     22  C   UNL     1      -0.546  10.133  18.856  0.00  0.00    +0.000 C 
BRANCH  22  23
ATOM     23  C   UNL     1      -1.118  11.559  18.816  0.00  0.00    +0.000 C 
BRANCH  23  24
ATOM     24  N   UNL     1      -1.892  11.943  20.011  0.00  0.00    +0.000 NA
BRANCH  24  25
ATOM     25  C   UNL     1      -3.290  12.257  19.665  0.00  0.00    +0.000 C 
ATOM     26  C   UNL     1      -3.964  13.355  20.486  0.00  0.00    +0.000 C 
ENDBRANCH  24  25
BRANCH  24  27
ATOM     27  C   UNL     1      -1.214  12.995  20.794  0.00  0.00    +0.000 C 
BRANCH  27  28
ATOM     28  C   UNL     1      -0.466  12.458  22.018  0.00  0.00    +0.000 C 
BRANCH  28  30
ATOM     29  C   UNL     1      -2.400  11.872  23.482  0.00  0.00    +0.000 C 
ATOM     30  C   UNL     1      -1.222  11.318  22.698  0.00  0.00    +0.000 C 
ENDBRANCH  28  30
ENDBRANCH  27  28
ENDBRANCH  24  27
ENDBRANCH  23  24
ENDBRANCH  22  23
ENDBRANCH  21  22
ENDBRANCH  17  21
ENDBRANCH   1  18
TORSDOF 10
ENDMDL
MODEL 8
REMARK VINA RESULT:      -6.9      0.999      2.496
REMARK  Name = 
REMARK  14 active torsions:
REMARK  status: ('A' for Active; 'I' for Inactive)
REMARK    1  A    between atoms: C_1  and  C_2
REMARK    2  A    between atoms: C_2  and  C_3
REMARK    3  A    between atoms: C_3  and  C_4
REMARK    4  A    between atoms: C_4  and  N_5
REMARK    5  A    between atoms: N_5  and  C_6
REMARK    6  A    between atoms: N_5  and  C_8
REMARK    7  A    between atoms: C_6  and  C_7
REMARK    8  A    between atoms: C_8  and  C_9
REMARK    9  A    between atoms: C_9  and  C_10
REMARK   10  A    between atoms: C_10  and  N_11
REMARK   11  A    between atoms: C_12  and  C_14
REMARK   12  A    between atoms: C_18  and  C_19
REMARK   13  A    between atoms: C_21  and  C_22
REMARK   14  A    between atoms: C_24  and  N_25
REMARK                            x       y       z     vdW  Elec       q    Type
REMARK                         _______ _______ _______ _____ _____    ______ ____
ROOT
ATOM      1  C   UNL     1       2.870   6.892  18.545  0.00  0.00    +0.000 A 
ATOM      2  S   UNL     1       3.879   7.615  17.364  0.00  0.00    +0.000 S 
ATOM      3  C   UNL     1       4.512   6.134  16.864  0.00  0.00    +0.000 A 
ATOM      4  N   UNL     1       5.431   6.156  15.880  0.00  0.00    +0.000 NA
ATOM      5  C   UNL     1       5.886   4.962  15.489  0.00  0.00    +0.000 A 
ATOM      6  C   UNL     1       6.893   4.938  14.376  0.00  0.00    +0.000 C 
ATOM      7  C   UNL     1       5.449   3.773  16.042  0.00  0.00    +0.000 A 
ATOM      8  C   UNL     1       4.468   3.762  17.058  0.00  0.00    +0.000 A 
ATOM      9  C   UNL     1       4.036   2.387  17.505  0.00  0.00    +0.000 C 
ATOM     10  C   UNL     1       3.985   5.029  17.534  0.00  0.00    +0.000 A 
ATOM     11  C   UNL     1       2.999   5.498  18.538  0.00  0.00    +0.000 A 
ENDROOT
BRANCH  11  12
ATOM     12  N   UNL     1       2.288   4.626  19.445  0.00  0.00    +0.000 N 
ATOM     13  C   UNL     1       1.163   3.885  19.146  0.00  0.00    +0.000 A 
ATOM     14  C   UNL     1       0.717   3.224  20.270  0.00  0.00    +0.000 A 
ATOM     15  C   UNL     1       1.671   3.453  21.277  0.00  0.00    +0.000 A 
ATOM     16  C   UNL     1       2.594   4.331  20.759  0.00  0.00    +0.000 A 
ENDBRANCH  11  12
BRANCH   1  18
ATOM     17  N   UNL     1       1.581   8.928  18.765  0.00  0.00    +0.000 N 
ATOM     18  C   UNL     1       2.093   7.802  19.389  0.00  0.00    +0.000 C 
ATOM     19  O   UNL     1       1.882   7.645  20.592  0.00  0.00    +0.000 OA
ATOM     20  H   UNL     1       1.805   9.093  17.790  0.00  0.00    +0.000 HD
BRANCH  17  21
ATOM     21  C   UNL     1       0.881   9.952  19.503  0.00  0.00    +0.000 C 
BRANCH  21  22
ATOM     22  C   UNL     1      -0.002  10.817  18.602  0.00  0.00    +0.000 C 
BRANCH  22  23
ATOM     23  C   UNL     1      -1.421  10.261  18.408  0.00  0.00    +0.000 C 
BRANCH  23  24
ATOM     24  N   UNL     1      -2.501  11.212  18.730  0.00  0.00    +0.000 NA
BRANCH  24  25
ATOM     25  C   UNL     1      -3.302  11.536  17.536  0.00  0.00    +0.000 C 
ATOM     26  C   UNL     1      -4.811  11.329  17.650  0.00  0.00    +0.000 C 
ENDBRANCH  24  25
BRANCH  24  27
ATOM     27  C   UNL     1      -1.998  12.394  19.457  0.00  0.00    +0.000 C 
BRANCH  27  28
ATOM     28  C   UNL     1      -2.493  12.478  20.904  0.00  0.00    +0.000 C 
BRANCH  28  30
ATOM     29  C   UNL     1      -1.351  13.019  23.055  0.00  0.00    +0.000 C 
ATOM     30  C   UNL     1      -1.425  12.033  21.902  0.00  0.00    +0.000 C 
ENDBRANCH  28  30
ENDBRANCH  27  28
ENDBRANCH  24  27
ENDBRANCH  23  24
ENDBRANCH  22  23
ENDBRANCH  21  22
ENDBRANCH  17  21
ENDBRANCH   1  18
TORSDOF 10
ENDMDL
MODEL 9
REMARK VINA RESULT:      -6.8      1.540      2.494
REMARK  Name = 
REMARK  14 active torsions:
REMARK  status: ('A' for Active; 'I' for Inactive)
REMARK    1  A    between atoms: C_1  and  C_2
REMARK    2  A    between atoms: C_2  and  C_3
REMARK    3  A    between atoms: C_3  and  C_4
REMARK    4  A    between atoms: C_4  and  N_5
REMARK    5  A    between atoms: N_5  and  C_6
REMARK    6  A    between atoms: N_5  and  C_8
REMARK    7  A    between atoms: C_6  and  C_7
REMARK    8  A    between atoms: C_8  and  C_9
REMARK    9  A    between atoms: C_9  and  C_10
REMARK   10  A    between atoms: C_10  and  N_11
REMARK   11  A    between atoms: C_12  and  C_14
REMARK   12  A    between atoms: C_18  and  C_19
REMARK   13  A    between atoms: C_21  and  C_22
REMARK   14  A    between atoms: C_24  and  N_25
REMARK                            x       y       z     vdW  Elec       q    Type
REMARK                         _______ _______ _______ _____ _____    ______ ____
ROOT
ATOM      1  C   UNL     1       2.833   6.897  18.548  0.00  0.00    +0.000 A 
ATOM      2  S   UNL     1       3.820   7.615  17.345  0.00  0.00    +0.000 S 
ATOM      3  C   UNL     1       4.481   6.137  16.874  0.00  0.00    +0.000 A 
ATOM      4  N   UNL     1       5.394   6.157  15.883  0.00  0.00    +0.000 NA
ATOM      5  C   UNL     1       5.871   4.964  15.515  0.00  0.00    +0.000 A 
ATOM      6  C   UNL     1       6.872   4.938  14.397  0.00  0.00    +0.000 C 
ATOM      7  C   UNL     1       5.462   3.779  16.096  0.00  0.00    +0.000 A 
ATOM      8  C   UNL     1       4.486   3.770  17.117  0.00  0.00    +0.000 A 
ATOM      9  C   UNL     1       4.086   2.396  17.596  0.00  0.00    +0.000 C 
ATOM     10  C   UNL     1       3.980   5.036  17.570  0.00  0.00    +0.000 A 
ATOM     11  C   UNL     1       2.991   5.506  18.569  0.00  0.00    +0.000 A 
ENDROOT
BRANCH  11  12
ATOM     12  N   UNL     1       2.302   4.639  19.499  0.00  0.00    +0.000 N 
ATOM     13  C   UNL     1       2.649   4.422  20.816  0.00  0.00    +0.000 A 
ATOM     14  C   UNL     1       1.811   3.485  21.380  0.00  0.00    +0.000 A 
ATOM     15  C   UNL     1       0.821   3.201  20.422  0.00  0.00    +0.000 A 
ATOM     16  C   UNL     1       1.163   3.890  19.281  0.00  0.00    +0.000 A 
ENDBRANCH  11  12
BRANCH   1  18
ATOM     17  N   UNL     1       1.490   8.902  18.729  0.00  0.00    +0.000 N 
ATOM     18  C   UNL     1       2.042   7.808  19.377  0.00  0.00    +0.000 C 
ATOM     19  O   UNL     1       1.852   7.680  20.587  0.00  0.00    +0.000 OA
ATOM     20  H   UNL     1       1.695   9.044  17.746  0.00  0.00    +0.000 HD
BRANCH  17  21
ATOM     21  C   UNL     1       0.771   9.926  19.448  0.00  0.00    +0.000 C 
BRANCH  21  22
ATOM     22  C   UNL     1      -0.391  10.500  18.635  0.00  0.00    +0.000 C 
BRANCH  22  23
ATOM     23  C   UNL     1      -1.348  11.375  19.459  0.00  0.00    +0.000 C 
BRANCH  23  24
ATOM     24  N   UNL     1      -0.717  12.068  20.597  0.00  0.00    +0.000 NA
BRANCH  24  25
ATOM     25  C   UNL     1      -1.500  11.890  21.834  0.00  0.00    +0.000 C 
ATOM     26  C   UNL     1      -1.182  12.843  22.985  0.00  0.00    +0.000 C 
ENDBRANCH  24  25
BRANCH  24  27
ATOM     27  C   UNL     1      -0.403  13.476  20.282  0.00  0.00    +0.000 C 
BRANCH  27  28
ATOM     28  C   UNL     1       1.094  13.740  20.094  0.00  0.00    +0.000 C 
BRANCH  28  30
ATOM     29  C   UNL     1       2.502  12.945  18.194  0.00  0.00    +0.000 C 
ATOM     30  C   UNL     1       1.458  13.961  18.627  0.00  0.00    +0.000 C 
ENDBRANCH  28  30
ENDBRANCH  27  28
ENDBRANCH  24  27
ENDBRANCH  23  24
ENDBRANCH  22  23
ENDBRANCH  21  22
ENDBRANCH  17  21
ENDBRANCH   1  18
TORSDOF 10
ENDMDL
