MODEL 1
REMARK VINA RESULT:      -8.6      0.000      0.000
REMARK  Name = 
REMARK  12 active torsions:
REMARK  status: ('A' for Active; 'I' for Inactive)
REMARK    1  A    between atoms: C_1  and  O_2
REMARK    2  A    between atoms: O_2  and  C_3
REMARK    3  A    between atoms: C_3  and  C_5
REMARK    4  A    between atoms: C_5  and  C_6
REMARK    5  A    between atoms: N_14  and  C_15
REMARK    6  A    between atoms: C_15  and  C_16
REMARK    7  A    between atoms: C_16  and  C_17
REMARK    8  A    between atoms: C_17  and  N_18
REMARK    9  A    between atoms: C_19  and  C_21
REMARK   10  A    between atoms: C_21  and  C_22
REMARK   11  A    between atoms: C_22  and  C_23
REMARK   12  A    between atoms: C_26  and  N_27
REMARK                            x       y       z     vdW  Elec       q    Type
REMARK                         _______ _______ _______ _____ _____    ______ ____
ROOT
ATOM      1  C   UNL     1       3.311   6.293  19.266  0.00  0.00    +0.000 C 
ENDROOT
BRANCH   1   5
ATOM      2  C   UNL     1       5.889   5.118  15.942  0.00  0.00    +0.000 C 
ATOM      3  C   UNL     1       5.082   6.440  15.909  0.00  0.00    +0.000 C 
ATOM      4  C   UNL     1       4.637   6.882  17.304  0.00  0.00    +0.000 C 
ATOM      5  N   UNL     1       3.817   5.856  17.955  0.00  0.00    +0.000 NA
ATOM      6  C   UNL     1       4.558   4.598  18.096  0.00  0.00    +0.000 C 
ATOM      7  C   UNL     1       5.038   4.091  16.739  0.00  0.00    +0.000 C 
BRANCH   2   8
ATOM      8  C   UNL     1       6.180   4.646  14.499  0.00  0.00    +0.000 A 
ATOM      9  C   UNL     1       5.341   3.747  13.815  0.00  0.00    +0.000 A 
ATOM     10  C   UNL     1       5.636   3.314  12.520  0.00  0.00    +0.000 A 
ATOM     11  C   UNL     1       6.783   3.766  11.878  0.00  0.00    +0.000 A 
ATOM     12  C   UNL     1       7.626   4.662  12.526  0.00  0.00    +0.000 A 
ATOM     13  C   UNL     1       7.328   5.100  13.821  0.00  0.00    +0.000 A 
ENDBRANCH   2   8
BRANCH   2  14
ATOM     14  C   UNL     1       7.232   5.409  16.653  0.00  0.00    +0.000 C 
ATOM     15  O   UNL     1       7.937   4.544  17.175  0.00  0.00    +0.000 OA
BRANCH  14  17
ATOM     16  C   UNL     1       7.890   7.254  17.937  0.00  0.00    +0.000 C 
ATOM     17  O   UNL     1       7.543   6.734  16.653  0.00  0.00    +0.000 OA
ENDBRANCH  14  17
ENDBRANCH   2  14
ENDBRANCH   1   5
BRANCH   1  18
ATOM     18  C   UNL     1       2.207   5.394  19.831  0.00  0.00    +0.000 C 
BRANCH  18  19
ATOM     19  C   UNL     1       1.366   6.116  20.874  0.00  0.00    +0.000 C 
BRANCH  19  20
ATOM     20  N   UNL     1       1.639   7.539  20.855  0.00  0.00    +0.000 N 
ATOM     21  C   UNL     1       0.682   8.438  21.267  0.00  0.00    +0.000 C 
ATOM     22  O   UNL     1      -0.405   8.105  21.726  0.00  0.00    +0.000 OA
ATOM     23  H   UNL     1       2.395   7.870  20.268  0.00  0.00    +0.000 HD
BRANCH  21  24
ATOM     24  C   UNL     1       1.087   9.880  21.089  0.00  0.00    +0.000 C 
BRANCH  24  25
ATOM     25  C   UNL     1      -0.144  10.771  21.229  0.00  0.00    +0.000 C 
BRANCH  25  26
ATOM     26  C   UNL     1      -0.914  10.880  19.939  0.00  0.00    +0.000 A 
ATOM     27  C   UNL     1      -2.024  11.733  19.854  0.00  0.00    +0.000 A 
ATOM     28  C   UNL     1      -2.751  11.834  18.669  0.00  0.00    +0.000 A 
ATOM     29  C   UNL     1      -2.367  11.071  17.560  0.00  0.00    +0.000 A 
ATOM     30  C   UNL     1      -1.260  10.213  17.631  0.00  0.00    +0.000 A 
ATOM     31  C   UNL     1      -0.541  10.120  18.822  0.00  0.00    +0.000 A 
BRANCH  29  32
ATOM     32  N   UNL     1      -3.134  11.167  16.312  0.00  0.00    +0.000 N 
ATOM     33  O   UNL     1      -4.273  11.650  16.372  0.00  0.00    +0.000 OA
ATOM     34  O   UNL     1      -2.600  10.756  15.273  0.00  0.00    +0.000 OA
ENDBRANCH  29  32
ENDBRANCH  25  26
ENDBRANCH  24  25
ENDBRANCH  21  24
ENDBRANCH  19  20
ENDBRANCH  18  19
ENDBRANCH   1  18
TORSDOF 11
ENDMDL
MODEL 2
REMARK VINA RESULT:      -8.3      2.379      3.015
REMARK  Name = 
REMARK  12 active torsions:
REMARK  status: ('A' for Active; 'I' for Inactive)
REMARK    1  A    between atoms: C_1  and  O_2
REMARK    2  A    between atoms: O_2  and  C_3
REMARK    3  A    between atoms: C_3  and  C_5
REMARK    4  A    between atoms: C_5  and  C_6
REMARK    5  A    between atoms: N_14  and  C_15
REMARK    6  A    between atoms: C_15  and  C_16
REMARK    7  A    between atoms: C_16  and  C_17
REMARK    8  A    between atoms: C_17  and  N_18
REMARK    9  A    between atoms: C_19  and  C_21
REMARK   10  A    between atoms: C_21  and  C_22
REMARK   11  A    between atoms: C_22  and  C_23
REMARK   12  A    between atoms: C_26  and  N_27
REMARK                            x       y       z     vdW  Elec       q    Type
REMARK                         _______ _______ _______ _____ _____    ______ ____
ROOT
ATOM      1  C   UNL     1       2.914   6.693  18.866  0.00  0.00    +0.000 C 
ENDROOT
BRANCH   1   5
ATOM      2  C   UNL     1       5.796   5.294  15.897  0.00  0.00    +0.000 C 
ATOM      3  C   UNL     1       5.098   6.670  15.758  0.00  0.00    +0.000 C 
ATOM      4  C   UNL     1       4.515   7.161  17.085  0.00  0.00    +0.000 C 
ATOM      5  N   UNL     1       3.547   6.204  17.631  0.00  0.00    +0.000 NA
ATOM      6  C   UNL     1       4.171   4.898  17.868  0.00  0.00    +0.000 C 
ATOM      7  C   UNL     1       4.779   4.341  16.585  0.00  0.00    +0.000 C 
BRANCH   2   8
ATOM      8  C   UNL     1       6.231   4.784  14.504  0.00  0.00    +0.000 A 
ATOM      9  C   UNL     1       7.375   5.271  13.845  0.00  0.00    +0.000 A 
ATOM     10  C   UNL     1       7.736   4.814  12.576  0.00  0.00    +0.000 A 
ATOM     11  C   UNL     1       6.957   3.860  11.930  0.00  0.00    +0.000 A 
ATOM     12  C   UNL     1       5.827   3.354  12.562  0.00  0.00    +0.000 A 
ATOM     13  C   UNL     1       5.467   3.807  13.835  0.00  0.00    +0.000 A 
ENDBRANCH   2   8
BRANCH   2  14
ATOM     14  C   UNL     1       7.056   5.497  16.771  0.00  0.00    +0.000 C 
ATOM     15  O   UNL     1       7.671   4.580  17.318  0.00  0.00    +0.000 OA
BRANCH  14  17
ATOM     16  C   UNL     1       7.948   7.162  18.156  0.00  0.00    +0.000 C 
ATOM     17  O   UNL     1       7.404   6.808  16.884  0.00  0.00    +0.000 OA
ENDBRANCH  14  17
ENDBRANCH   2  14
ENDBRANCH   1   5
BRANCH   1  18
ATOM     18  C   UNL     1       2.547   5.580  19.853  0.00  0.00    +0.000 C 
BRANCH  18  19
ATOM     19  C   UNL     1       1.614   6.077  20.948  0.00  0.00    +0.000 C 
BRANCH  19  20
ATOM     20  N   UNL     1       1.853   7.480  21.224  0.00  0.00    +0.000 N 
ATOM     21  C   UNL     1       0.799   8.357  21.330  0.00  0.00    +0.000 C 
ATOM     22  O   UNL     1      -0.377   8.014  21.268  0.00  0.00    +0.000 OA
ATOM     23  H   UNL     1       2.777   7.851  21.038  0.00  0.00    +0.000 HD
BRANCH  21  24
ATOM     24  C   UNL     1       1.221   9.794  21.519  0.00  0.00    +0.000 C 
BRANCH  24  25
ATOM     25  C   UNL     1       0.404  10.686  20.589  0.00  0.00    +0.000 C 
BRANCH  25  26
ATOM     26  C   UNL     1      -0.796  11.277  21.281  0.00  0.00    +0.000 A 
ATOM     27  C   UNL     1      -1.735  12.017  20.548  0.00  0.00    +0.000 A 
ATOM     28  C   UNL     1      -2.844  12.578  21.178  0.00  0.00    +0.000 A 
ATOM     29  C   UNL     1      -3.013  12.402  22.557  0.00  0.00    +0.000 A 
ATOM     30  C   UNL     1      -2.082  11.666  23.303  0.00  0.00    +0.000 A 
ATOM     31  C   UNL     1      -0.976  11.109  22.661  0.00  0.00    +0.000 A 
BRANCH  29  32
ATOM     32  N   UNL     1      -4.174  12.998  23.228  0.00  0.00    +0.000 N 
ATOM     33  O   UNL     1      -4.495  14.152  22.910  0.00  0.00    +0.000 OA
ATOM     34  O   UNL     1      -4.765  12.314  24.076  0.00  0.00    +0.000 OA
ENDBRANCH  29  32
ENDBRANCH  25  26
ENDBRANCH  24  25
ENDBRANCH  21  24
ENDBRANCH  19  20
ENDBRANCH  18  19
ENDBRANCH   1  18
TORSDOF 11
ENDMDL
MODEL 3
REMARK VINA RESULT:      -8.1      0.785      1.623
REMARK  Name = 
REMARK  12 active torsions:
REMARK  status: ('A' for Active; 'I' for Inactive)
REMARK    1  A    between atoms: C_1  and  O_2
REMARK    2  A    between atoms: O_2  and  C_3
REMARK    3  A    between atoms: C_3  and  C_5
REMARK    4  A    between atoms: C_5  and  C_6
REMARK    5  A    between atoms: N_14  and  C_15
REMARK    6  A    between atoms: C_15  and  C_16
REMARK    7  A    between atoms: C_16  and  C_17
REMARK    8  A    between atoms: C_17  and  N_18
REMARK    9  A    between atoms: C_19  and  C_21
REMARK   10  A    between atoms: C_21  and  C_22
REMARK   11  A    between atoms: C_22  and  C_23
REMARK   12  A    between atoms: C_26  and  N_27
REMARK                            x       y       z     vdW  Elec       q    Type
REMARK                         _______ _______ _______ _____ _____    ______ ____
ROOT
ATOM      1  C   UNL     1       3.075   5.365  19.213  0.00  0.00    +0.000 C 
ENDROOT
BRANCH   1   5
ATOM      2  C   UNL     1       5.964   5.029  15.955  0.00  0.00    +0.000 C 
ATOM      3  C   UNL     1       4.849   6.105  15.938  0.00  0.00    +0.000 C 
ATOM      4  C   UNL     1       4.265   6.358  17.329  0.00  0.00    +0.000 C 
ATOM      5  N   UNL     1       3.714   5.129  17.909  0.00  0.00    +0.000 NA
ATOM      6  C   UNL     1       4.744   4.094  18.034  0.00  0.00    +0.000 C 
ATOM      7  C   UNL     1       5.377   3.786  16.680  0.00  0.00    +0.000 C 
BRANCH   2   8
ATOM      8  C   UNL     1       6.408   4.712  14.509  0.00  0.00    +0.000 A 
ATOM      9  C   UNL     1       7.489   5.367  13.891  0.00  0.00    +0.000 A 
ATOM     10  C   UNL     1       7.859   5.081  12.574  0.00  0.00    +0.000 A 
ATOM     11  C   UNL     1       7.151   4.137  11.840  0.00  0.00    +0.000 A 
ATOM     12  C   UNL     1       6.084   3.467  12.429  0.00  0.00    +0.000 A 
ATOM     13  C   UNL     1       5.717   3.748  13.749  0.00  0.00    +0.000 A 
ENDBRANCH   2   8
BRANCH   2  14
ATOM     14  C   UNL     1       7.167   5.617  16.730  0.00  0.00    +0.000 C 
ATOM     15  O   UNL     1       7.521   6.795  16.664  0.00  0.00    +0.000 OA
BRANCH  14  17
ATOM     16  C   UNL     1       8.115   5.109  18.811  0.00  0.00    +0.000 C 
ATOM     17  O   UNL     1       7.807   4.681  17.483  0.00  0.00    +0.000 OA
ENDBRANCH  14  17
ENDBRANCH   2  14
ENDBRANCH   1   5
BRANCH   1  18
ATOM     18  C   UNL     1       1.989   6.445  19.181  0.00  0.00    +0.000 C 
BRANCH  18  19
ATOM     19  C   UNL     1       1.855   7.155  20.521  0.00  0.00    +0.000 C 
BRANCH  19  20
ATOM     20  N   UNL     1       1.692   8.582  20.329  0.00  0.00    +0.000 N 
ATOM     21  C   UNL     1       1.025   9.339  21.264  0.00  0.00    +0.000 C 
ATOM     22  O   UNL     1       0.596   8.886  22.320  0.00  0.00    +0.000 OA
ATOM     23  H   UNL     1       1.798   8.951  19.392  0.00  0.00    +0.000 HD
BRANCH  21  24
ATOM     24  C   UNL     1       0.855  10.785  20.866  0.00  0.00    +0.000 C 
BRANCH  24  25
ATOM     25  C   UNL     1      -0.620  11.163  20.956  0.00  0.00    +0.000 C 
BRANCH  25  26
ATOM     26  C   UNL     1      -1.316  11.053  19.625  0.00  0.00    +0.000 A 
ATOM     27  C   UNL     1      -0.790  10.223  18.624  0.00  0.00    +0.000 A 
ATOM     28  C   UNL     1      -1.418  10.122  17.385  0.00  0.00    +0.000 A 
ATOM     29  C   UNL     1      -2.582  10.862  17.142  0.00  0.00    +0.000 A 
ATOM     30  C   UNL     1      -3.118  11.696  18.132  0.00  0.00    +0.000 A 
ATOM     31  C   UNL     1      -2.480  11.790  19.369  0.00  0.00    +0.000 A 
BRANCH  29  32
ATOM     32  N   UNL     1      -3.243  10.766  15.835  0.00  0.00    +0.000 N 
ATOM     33  O   UNL     1      -2.554  10.422  14.864  0.00  0.00    +0.000 OA
ATOM     34  O   UNL     1      -4.450  11.037  15.777  0.00  0.00    +0.000 OA
ENDBRANCH  29  32
ENDBRANCH  25  26
ENDBRANCH  24  25
ENDBRANCH  21  24
ENDBRANCH  19  20
ENDBRANCH  18  19
ENDBRANCH   1  18
TORSDOF 11
ENDMDL
MODEL 4
REMARK VINA RESULT:      -8.0      2.366      2.673
REMARK  Name = 
REMARK  12 active torsions:
REMARK  status: ('A' for Active; 'I' for Inactive)
REMARK    1  A    between atoms: C_1  and  O_2
REMARK    2  A    between atoms: O_2  and  C_3
REMARK    3  A    between atoms: C_3  and  C_5
REMARK    4  A    between atoms: C_5  and  C_6
REMARK    5  A    between atoms: N_14  and  C_15
REMARK    6  A    between atoms: C_15  and  C_16
REMARK    7  A    between atoms: C_16  and  C_17
REMARK    8  A    between atoms: C_17  and  N_18
REMARK    9  A    between atoms: C_19  and  C_21
REMARK   10  A    between atoms: C_21  and  C_22
REMARK   11  A    between atoms: C_22  and  C_23
REMARK   12  A    between atoms: C_26  and  N_27
REMARK                            x       y       z     vdW  Elec       q    Type
REMARK                         _______ _______ _______ _____ _____    ______ ____
ROOT
ATOM      1  C   UNL     1       2.903   6.694  18.669  0.00  0.00    +0.000 C 
ENDROOT
BRANCH   1   5
ATOM      2  C   UNL     1       5.809   5.228  15.757  0.00  0.00    +0.000 C 
ATOM      3  C   UNL     1       5.152   6.623  15.609  0.00  0.00    +0.000 C 
ATOM      4  C   UNL     1       4.555   7.125  16.925  0.00  0.00    +0.000 C 
ATOM      5  N   UNL     1       3.550   6.193  17.446  0.00  0.00    +0.000 NA
ATOM      6  C   UNL     1       4.131   4.869  17.690  0.00  0.00    +0.000 C 
ATOM      7  C   UNL     1       4.752   4.301  16.418  0.00  0.00    +0.000 C 
BRANCH   2   8
ATOM      8  C   UNL     1       6.260   4.711  14.371  0.00  0.00    +0.000 A 
ATOM      9  C   UNL     1       7.400   5.210  13.714  0.00  0.00    +0.000 A 
ATOM     10  C   UNL     1       7.776   4.746  12.451  0.00  0.00    +0.000 A 
ATOM     11  C   UNL     1       7.016   3.775  11.811  0.00  0.00    +0.000 A 
ATOM     12  C   UNL     1       5.889   3.257  12.440  0.00  0.00    +0.000 A 
ATOM     13  C   UNL     1       5.515   3.717  13.707  0.00  0.00    +0.000 A 
ENDBRANCH   2   8
BRANCH   2  14
ATOM     14  C   UNL     1       7.055   5.392  16.658  0.00  0.00    +0.000 C 
ATOM     15  O   UNL     1       7.619   4.460  17.233  0.00  0.00    +0.000 OA
BRANCH  14  17
ATOM     16  C   UNL     1       7.849   7.077  18.079  0.00  0.00    +0.000 C 
ATOM     17  O   UNL     1       7.453   6.690  16.762  0.00  0.00    +0.000 OA
ENDBRANCH  14  17
ENDBRANCH   2  14
ENDBRANCH   1   5
BRANCH   1  18
ATOM     18  C   UNL     1       2.709   5.623  19.747  0.00  0.00    +0.000 C 
BRANCH  18  19
ATOM     19  C   UNL     1       1.726   6.070  20.820  0.00  0.00    +0.000 C 
BRANCH  19  20
ATOM     20  N   UNL     1       1.783   7.506  20.998  0.00  0.00    +0.000 N 
ATOM     21  C   UNL     1       0.641   8.218  21.287  0.00  0.00    +0.000 C 
ATOM     22  O   UNL     1      -0.453   7.695  21.473  0.00  0.00    +0.000 OA
ATOM     23  H   UNL     1       2.580   8.002  20.618  0.00  0.00    +0.000 HD
BRANCH  21  24
ATOM     24  C   UNL     1       0.852   9.711  21.340  0.00  0.00    +0.000 C 
BRANCH  24  25
ATOM     25  C   UNL     1      -0.414  10.417  20.866  0.00  0.00    +0.000 C 
BRANCH  25  26
ATOM     26  C   UNL     1      -0.123  11.778  20.290  0.00  0.00    +0.000 A 
ATOM     27  C   UNL     1       0.591  12.721  21.045  0.00  0.00    +0.000 A 
ATOM     28  C   UNL     1       0.857  13.987  20.527  0.00  0.00    +0.000 A 
ATOM     29  C   UNL     1       0.400  14.316  19.245  0.00  0.00    +0.000 A 
ATOM     30  C   UNL     1      -0.315  13.384  18.480  0.00  0.00    +0.000 A 
ATOM     31  C   UNL     1      -0.575  12.120  19.009  0.00  0.00    +0.000 A 
BRANCH  29  32
ATOM     32  N   UNL     1       0.671  15.651  18.699  0.00  0.00    +0.000 N 
ATOM     33  O   UNL     1      -0.295  16.406  18.516  0.00  0.00    +0.000 OA
ATOM     34  O   UNL     1       1.848  15.945  18.449  0.00  0.00    +0.000 OA
ENDBRANCH  29  32
ENDBRANCH  25  26
ENDBRANCH  24  25
ENDBRANCH  21  24
ENDBRANCH  19  20
ENDBRANCH  18  19
ENDBRANCH   1  18
TORSDOF 11
ENDMDL
MODEL 5
REMARK VINA RESULT:      -7.9      3.467      3.799
REMARK  Name = 
REMARK  12 active torsions:
REMARK  status: ('A' for Active; 'I' for Inactive)
REMARK    1  A    between atoms: C_1  and  O_2
REMARK    2  A    between atoms: O_2  and  C_3
REMARK    3  A    between atoms: C_3  and  C_5
REMARK    4  A    between atoms: C_5  and  C_6
REMARK    5  A    between atoms: N_14  and  C_15
REMARK    6  A    between atoms: C_15  and  C_16
REMARK    7  A    between atoms: C_16  and  C_17
REMARK    8  A    between atoms: C_17  and  N_18
REMARK    9  A    between atoms: C_19  and  C_21
REMARK   10  A    between atoms: C_21  and  C_22
REMARK   11  A    between atoms: C_22  and  C_23
REMARK   12  A    between atoms: C_26  and  N_27
REMARK                            x       y       z     vdW  Elec       q    Type
REMARK                         _______ _______ _______ _____ _____    ______ ____
ROOT
ATOM      1  C   UNL     1       2.660   5.686  18.912  0.00  0.00    +0.000 C 
ENDROOT
BRANCH   1   5
ATOM      2  C   UNL     1       5.803   4.986  15.961  0.00  0.00    +0.000 C 
ATOM      3  C   UNL     1       4.975   6.295  15.964  0.00  0.00    +0.000 C 
ATOM      4  C   UNL     1       4.285   6.543  17.306  0.00  0.00    +0.000 C 
ATOM      5  N   UNL     1       3.396   5.433  17.663  0.00  0.00    +0.000 NA
ATOM      6  C   UNL     1       4.138   4.172  17.764  0.00  0.00    +0.000 C 
ATOM      7  C   UNL     1       4.858   3.856  16.456  0.00  0.00    +0.000 C 
BRANCH   2   8
ATOM      8  C   UNL     1       6.351   4.714  14.542  0.00  0.00    +0.000 A 
ATOM      9  C   UNL     1       7.464   5.399  14.019  0.00  0.00    +0.000 A 
ATOM     10  C   UNL     1       7.928   5.155  12.724  0.00  0.00    +0.000 A 
ATOM     11  C   UNL     1       7.286   4.224  11.917  0.00  0.00    +0.000 A 
ATOM     12  C   UNL     1       6.190   3.525  12.411  0.00  0.00    +0.000 A 
ATOM     13  C   UNL     1       5.728   3.764  13.709  0.00  0.00    +0.000 A 
ENDBRANCH   2   8
BRANCH   2  14
ATOM     14  C   UNL     1       6.995   5.186  16.927  0.00  0.00    +0.000 C 
ATOM     15  O   UNL     1       7.863   4.337  17.138  0.00  0.00    +0.000 OA
BRANCH  14  17
ATOM     16  C   UNL     1       7.975   6.578  18.537  0.00  0.00    +0.000 C 
ATOM     17  O   UNL     1       6.971   6.404  17.536  0.00  0.00    +0.000 OA
ENDBRANCH  14  17
ENDBRANCH   2  14
ENDBRANCH   1   5
BRANCH   1  18
ATOM     18  C   UNL     1       2.870   7.095  19.476  0.00  0.00    +0.000 C 
BRANCH  18  19
ATOM     19  C   UNL     1       1.701   7.539  20.343  0.00  0.00    +0.000 C 
BRANCH  19  20
ATOM     20  N   UNL     1       1.253   8.862  19.958  0.00  0.00    +0.000 N 
ATOM     21  C   UNL     1       1.053   9.835  20.911  0.00  0.00    +0.000 C 
ATOM     22  O   UNL     1       1.297   9.675  22.102  0.00  0.00    +0.000 OA
ATOM     23  H   UNL     1       0.808   8.969  19.055  0.00  0.00    +0.000 HD
BRANCH  21  24
ATOM     24  C   UNL     1       0.490  11.121  20.358  0.00  0.00    +0.000 C 
BRANCH  24  25
ATOM     25  C   UNL     1       1.105  11.392  18.988  0.00  0.00    +0.000 C 
BRANCH  25  26
ATOM     26  C   UNL     1       1.512  12.833  18.824  0.00  0.00    +0.000 A 
ATOM     27  C   UNL     1       2.739  13.152  18.224  0.00  0.00    +0.000 A 
ATOM     28  C   UNL     1       3.132  14.480  18.078  0.00  0.00    +0.000 A 
ATOM     29  C   UNL     1       2.292  15.501  18.541  0.00  0.00    +0.000 A 
ATOM     30  C   UNL     1       1.064  15.197  19.144  0.00  0.00    +0.000 A 
ATOM     31  C   UNL     1       0.681  13.863  19.285  0.00  0.00    +0.000 A 
BRANCH  29  32
ATOM     32  N   UNL     1       2.706  16.902  18.397  0.00  0.00    +0.000 N 
ATOM     33  O   UNL     1       3.861  17.125  18.009  0.00  0.00    +0.000 OA
ATOM     34  O   UNL     1       1.876  17.779  18.675  0.00  0.00    +0.000 OA
ENDBRANCH  29  32
ENDBRANCH  25  26
ENDBRANCH  24  25
ENDBRANCH  21  24
ENDBRANCH  19  20
ENDBRANCH  18  19
ENDBRANCH   1  18
TORSDOF 11
ENDMDL
MODEL 6
REMARK VINA RESULT:      -7.9      2.713      9.076
REMARK  Name = 
REMARK  12 active torsions:
REMARK  status: ('A' for Active; 'I' for Inactive)
REMARK    1  A    between atoms: C_1  and  O_2
REMARK    2  A    between atoms: O_2  and  C_3
REMARK    3  A    between atoms: C_3  and  C_5
REMARK    4  A    between atoms: C_5  and  C_6
REMARK    5  A    between atoms: N_14  and  C_15
REMARK    6  A    between atoms: C_15  and  C_16
REMARK    7  A    between atoms: C_16  and  C_17
REMARK    8  A    between atoms: C_17  and  N_18
REMARK    9  A    between atoms: C_19  and  C_21
REMARK   10  A    between atoms: C_21  and  C_22
REMARK   11  A    between atoms: C_22  and  C_23
REMARK   12  A    between atoms: C_26  and  N_27
REMARK                            x       y       z     vdW  Elec       q    Type
REMARK                         _______ _______ _______ _____ _____    ______ ____
ROOT
ATOM      1  C   UNL     1       2.436   6.384  19.575  0.00  0.00    +0.000 C 
ENDROOT
BRANCH   1   5
ATOM      2  C   UNL     1       1.024  10.487  19.083  0.00  0.00    +0.000 C 
ATOM      3  C   UNL     1       1.925   9.810  18.019  0.00  0.00    +0.000 C 
ATOM      4  C   UNL     1       1.916   8.285  18.137  0.00  0.00    +0.000 C 
ATOM      5  N   UNL     1       2.359   7.849  19.465  0.00  0.00    +0.000 NA
ATOM      6  C   UNL     1       1.491   8.388  20.517  0.00  0.00    +0.000 C 
ATOM      7  C   UNL     1       1.448   9.912  20.463  0.00  0.00    +0.000 C 
BRANCH   2   8
ATOM      8  C   UNL     1       1.190  12.022  19.010  0.00  0.00    +0.000 A 
ATOM      9  C   UNL     1       0.262  12.910  19.586  0.00  0.00    +0.000 A 
ATOM     10  C   UNL     1       0.418  14.294  19.487  0.00  0.00    +0.000 A 
ATOM     11  C   UNL     1       1.505  14.826  18.803  0.00  0.00    +0.000 A 
ATOM     12  C   UNL     1       2.443  13.973  18.232  0.00  0.00    +0.000 A 
ATOM     13  C   UNL     1       2.290  12.587  18.335  0.00  0.00    +0.000 A 
ENDBRANCH   2   8
BRANCH   2  14
ATOM     14  C   UNL     1      -0.443  10.126  18.749  0.00  0.00    +0.000 C 
ATOM     15  O   UNL     1      -1.303   9.881  19.596  0.00  0.00    +0.000 OA
BRANCH  14  17
ATOM     16  C   UNL     1      -2.042   9.855  17.058  0.00  0.00    +0.000 C 
ATOM     17  O   UNL     1      -0.677  10.093  17.409  0.00  0.00    +0.000 OA
ENDBRANCH  14  17
ENDBRANCH   2  14
ENDBRANCH   1   5
BRANCH   1  18
ATOM     18  C   UNL     1       1.419   5.785  20.552  0.00  0.00    +0.000 C 
BRANCH  18  19
ATOM     19  C   UNL     1       1.790   4.366  20.959  0.00  0.00    +0.000 C 
BRANCH  19  20
ATOM     20  N   UNL     1       2.643   3.754  19.960  0.00  0.00    +0.000 N 
ATOM     21  C   UNL     1       2.102   2.963  18.973  0.00  0.00    +0.000 C 
ATOM     22  O   UNL     1       0.897   2.781  18.836  0.00  0.00    +0.000 OA
ATOM     23  H   UNL     1       3.630   3.664  20.168  0.00  0.00    +0.000 HD
BRANCH  21  24
ATOM     24  C   UNL     1       3.132   2.321  18.077  0.00  0.00    +0.000 C 
BRANCH  24  25
ATOM     25  C   UNL     1       3.400   3.233  16.883  0.00  0.00    +0.000 C 
BRANCH  25  26
ATOM     26  C   UNL     1       4.495   4.228  17.163  0.00  0.00    +0.000 A 
ATOM     27  C   UNL     1       4.616   5.380  16.373  0.00  0.00    +0.000 A 
ATOM     28  C   UNL     1       5.631   6.303  16.616  0.00  0.00    +0.000 A 
ATOM     29  C   UNL     1       6.539   6.068  17.656  0.00  0.00    +0.000 A 
ATOM     30  C   UNL     1       6.431   4.920  18.453  0.00  0.00    +0.000 A 
ATOM     31  C   UNL     1       5.410   4.004  18.201  0.00  0.00    +0.000 A 
BRANCH  29  32
ATOM     32  N   UNL     1       7.616   7.032  17.910  0.00  0.00    +0.000 N 
ATOM     33  O   UNL     1       8.313   6.865  18.921  0.00  0.00    +0.000 OA
ATOM     34  O   UNL     1       7.763   7.959  17.102  0.00  0.00    +0.000 OA
ENDBRANCH  29  32
ENDBRANCH  25  26
ENDBRANCH  24  25
ENDBRANCH  21  24
ENDBRANCH  19  20
ENDBRANCH  18  19
ENDBRANCH   1  18
TORSDOF 11
ENDMDL
MODEL 7
REMARK VINA RESULT:      -7.8      2.545      2.963
REMARK  Name = 
REMARK  12 active torsions:
REMARK  status: ('A' for Active; 'I' for Inactive)
REMARK    1  A    between atoms: C_1  and  O_2
REMARK    2  A    between atoms: O_2  and  C_3
REMARK    3  A    between atoms: C_3  and  C_5
REMARK    4  A    between atoms: C_5  and  C_6
REMARK    5  A    between atoms: N_14  and  C_15
REMARK    6  A    between atoms: C_15  and  C_16
REMARK    7  A    between atoms: C_16  and  C_17
REMARK    8  A    between atoms: C_17  and  N_18
REMARK    9  A    between atoms: C_19  and  C_21
REMARK   10  A    between atoms: C_21  and  C_22
REMARK   11  A    between atoms: C_22  and  C_23
REMARK   12  A    between atoms: C_26  and  N_27
REMARK                            x       y       z     vdW  Elec       q    Type
REMARK                         _______ _______ _______ _____ _____    ______ ____
ROOT
ATOM      1  C   UNL     1       2.960   6.620  18.790  0.00  0.00    +0.000 C 
ENDROOT
BRANCH   1   5
ATOM      2  C   UNL     1       5.787   5.227  15.767  0.00  0.00    +0.000 C 
ATOM      3  C   UNL     1       5.085   6.602  15.643  0.00  0.00    +0.000 C 
ATOM      4  C   UNL     1       4.527   7.092  16.980  0.00  0.00    +0.000 C 
ATOM      5  N   UNL     1       3.571   6.133  17.543  0.00  0.00    +0.000 NA
ATOM      6  C   UNL     1       4.200   4.828  17.768  0.00  0.00    +0.000 C 
ATOM      7  C   UNL     1       4.784   4.273  16.473  0.00  0.00    +0.000 C 
BRANCH   2   8
ATOM      8  C   UNL     1       6.197   4.719  14.366  0.00  0.00    +0.000 A 
ATOM      9  C   UNL     1       5.463   3.736  13.676  0.00  0.00    +0.000 A 
ATOM     10  C   UNL     1       5.865   3.274  12.420  0.00  0.00    +0.000 A 
ATOM     11  C   UNL     1       7.015   3.779  11.826  0.00  0.00    +0.000 A 
ATOM     12  C   UNL     1       7.754   4.758  12.481  0.00  0.00    +0.000 A 
ATOM     13  C   UNL     1       7.350   5.226  13.735  0.00  0.00    +0.000 A 
ENDBRANCH   2   8
BRANCH   2  14
ATOM     14  C   UNL     1       7.064   5.430  16.617  0.00  0.00    +0.000 C 
ATOM     15  O   UNL     1       7.669   4.518  17.182  0.00  0.00    +0.000 OA
BRANCH  14  17
ATOM     16  C   UNL     1       7.844   7.160  17.991  0.00  0.00    +0.000 C 
ATOM     17  O   UNL     1       7.438   6.737  16.688  0.00  0.00    +0.000 OA
ENDBRANCH  14  17
ENDBRANCH   2  14
ENDBRANCH   1   5
BRANCH   1  18
ATOM     18  C   UNL     1       2.401   5.505  19.680  0.00  0.00    +0.000 C 
BRANCH  18  19
ATOM     19  C   UNL     1       1.628   6.060  20.867  0.00  0.00    +0.000 C 
BRANCH  19  20
ATOM     20  N   UNL     1       1.618   7.509  20.839  0.00  0.00    +0.000 N 
ATOM     21  C   UNL     1       0.480   8.204  21.178  0.00  0.00    +0.000 C 
ATOM     22  O   UNL     1      -0.547   7.667  21.579  0.00  0.00    +0.000 OA
ATOM     23  H   UNL     1       2.328   7.979  20.291  0.00  0.00    +0.000 HD
BRANCH  21  24
ATOM     24  C   UNL     1       0.604   9.697  20.999  0.00  0.00    +0.000 C 
BRANCH  24  25
ATOM     25  C   UNL     1       0.500  10.379  22.360  0.00  0.00    +0.000 C 
BRANCH  25  26
ATOM     26  C   UNL     1      -0.531  11.477  22.366  0.00  0.00    +0.000 A 
ATOM     27  C   UNL     1      -0.287  12.673  21.677  0.00  0.00    +0.000 A 
ATOM     28  C   UNL     1      -1.229  13.701  21.685  0.00  0.00    +0.000 A 
ATOM     29  C   UNL     1      -2.424  13.532  22.394  0.00  0.00    +0.000 A 
ATOM     30  C   UNL     1      -2.682  12.342  23.088  0.00  0.00    +0.000 A 
ATOM     31  C   UNL     1      -1.732  11.321  23.073  0.00  0.00    +0.000 A 
BRANCH  29  32
ATOM     32  N   UNL     1      -3.416  14.614  22.412  0.00  0.00    +0.000 N 
ATOM     33  O   UNL     1      -3.257  15.528  23.234  0.00  0.00    +0.000 OA
ATOM     34  O   UNL     1      -4.356  14.549  21.608  0.00  0.00    +0.000 OA
ENDBRANCH  29  32
ENDBRANCH  25  26
ENDBRANCH  24  25
ENDBRANCH  21  24
ENDBRANCH  19  20
ENDBRANCH  18  19
ENDBRANCH   1  18
TORSDOF 11
ENDMDL
MODEL 8
REMARK VINA RESULT:      -7.7      5.689      8.098
REMARK  Name = 
REMARK  12 active torsions:
REMARK  status: ('A' for Active; 'I' for Inactive)
REMARK    1  A    between atoms: C_1  and  O_2
REMARK    2  A    between atoms: O_2  and  C_3
REMARK    3  A    between atoms: C_3  and  C_5
REMARK    4  A    between atoms: C_5  and  C_6
REMARK    5  A    between atoms: N_14  and  C_15
REMARK    6  A    between atoms: C_15  and  C_16
REMARK    7  A    between atoms: C_16  and  C_17
REMARK    8  A    between atoms: C_17  and  N_18
REMARK    9  A    between atoms: C_19  and  C_21
REMARK   10  A    between atoms: C_21  and  C_22
REMARK   11  A    between atoms: C_22  and  C_23
REMARK   12  A    between atoms: C_26  and  N_27
REMARK                            x       y       z     vdW  Elec       q    Type
REMARK                         _______ _______ _______ _____ _____    ______ ____
ROOT
ATOM      1  C   UNL     1       8.632   7.863  18.468  0.00  0.00    +0.000 C 
ENDROOT
BRANCH   1   5
ATOM      2  C   UNL     1       5.443   5.062  17.438  0.00  0.00    +0.000 C 
ATOM      3  C   UNL     1       5.245   6.593  17.308  0.00  0.00    +0.000 C 
ATOM      4  C   UNL     1       6.575   7.348  17.260  0.00  0.00    +0.000 C 
ATOM      5  N   UNL     1       7.383   7.085  18.455  0.00  0.00    +0.000 NA
ATOM      6  C   UNL     1       7.681   5.655  18.588  0.00  0.00    +0.000 C 
ATOM      7  C   UNL     1       6.397   4.832  18.642  0.00  0.00    +0.000 C 
BRANCH   2   8
ATOM      8  C   UNL     1       4.074   4.372  17.631  0.00  0.00    +0.000 A 
ATOM      9  C   UNL     1       3.924   2.972  17.607  0.00  0.00    +0.000 A 
ATOM     10  C   UNL     1       2.673   2.370  17.760  0.00  0.00    +0.000 A 
ATOM     11  C   UNL     1       1.539   3.153  17.935  0.00  0.00    +0.000 A 
ATOM     12  C   UNL     1       1.658   4.537  17.972  0.00  0.00    +0.000 A 
ATOM     13  C   UNL     1       2.910   5.142  17.825  0.00  0.00    +0.000 A 
ENDBRANCH   2   8
BRANCH   2  14
ATOM     14  C   UNL     1       6.073   4.561  16.117  0.00  0.00    +0.000 C 
ATOM     15  O   UNL     1       7.132   3.934  16.052  0.00  0.00    +0.000 OA
BRANCH  14  17
ATOM     16  C   UNL     1       5.546   4.065  13.889  0.00  0.00    +0.000 C 
ATOM     17  O   UNL     1       5.335   4.904  15.026  0.00  0.00    +0.000 OA
ENDBRANCH  14  17
ENDBRANCH   2  14
ENDBRANCH   1   5
BRANCH   1  18
ATOM     18  C   UNL     1       8.427   9.360  18.216  0.00  0.00    +0.000 C 
BRANCH  18  19
ATOM     19  C   UNL     1       9.142  10.213  19.255  0.00  0.00    +0.000 C 
BRANCH  19  20
ATOM     20  N   UNL     1       9.809  11.334  18.624  0.00  0.00    +0.000 N 
ATOM     21  C   UNL     1      10.674  12.125  19.345  0.00  0.00    +0.000 C 
ATOM     22  O   UNL     1      10.981  11.903  20.511  0.00  0.00    +0.000 OA
ATOM     23  H   UNL     1       9.412  11.703  17.768  0.00  0.00    +0.000 HD
BRANCH  21  24
ATOM     24  C   UNL     1      11.204  13.307  18.571  0.00  0.00    +0.000 C 
BRANCH  24  25
ATOM     25  C   UNL     1      10.186  13.713  17.509  0.00  0.00    +0.000 C 
BRANCH  25  26
ATOM     26  C   UNL     1       9.049  14.511  18.089  0.00  0.00    +0.000 A 
ATOM     27  C   UNL     1       7.724  14.118  17.855  0.00  0.00    +0.000 A 
ATOM     28  C   UNL     1       6.663  14.854  18.378  0.00  0.00    +0.000 A 
ATOM     29  C   UNL     1       6.930  16.000  19.138  0.00  0.00    +0.000 A 
ATOM     30  C   UNL     1       8.249  16.406  19.379  0.00  0.00    +0.000 A 
ATOM     31  C   UNL     1       9.303  15.660  18.851  0.00  0.00    +0.000 A 
BRANCH  29  32
ATOM     32  N   UNL     1       5.816  16.785  19.683  0.00  0.00    +0.000 N 
ATOM     33  O   UNL     1       4.930  16.177  20.300  0.00  0.00    +0.000 OA
ATOM     34  O   UNL     1       5.824  18.008  19.492  0.00  0.00    +0.000 OA
ENDBRANCH  29  32
ENDBRANCH  25  26
ENDBRANCH  24  25
ENDBRANCH  21  24
ENDBRANCH  19  20
ENDBRANCH  18  19
ENDBRANCH   1  18
TORSDOF 11
ENDMDL
MODEL 9
REMARK VINA RESULT:      -7.7      5.906      8.279
REMARK  Name = 
REMARK  12 active torsions:
REMARK  status: ('A' for Active; 'I' for Inactive)
REMARK    1  A    between atoms: C_1  and  O_2
REMARK    2  A    between atoms: O_2  and  C_3
REMARK    3  A    between atoms: C_3  and  C_5
REMARK    4  A    between atoms: C_5  and  C_6
REMARK    5  A    between atoms: N_14  and  C_15
REMARK    6  A    between atoms: C_15  and  C_16
REMARK    7  A    between atoms: C_16  and  C_17
REMARK    8  A    between atoms: C_17  and  N_18
REMARK    9  A    between atoms: C_19  and  C_21
REMARK   10  A    between atoms: C_21  and  C_22
REMARK   11  A    between atoms: C_22  and  C_23
REMARK   12  A    between atoms: C_26  and  N_27
REMARK                            x       y       z     vdW  Elec       q    Type
REMARK                         _______ _______ _______ _____ _____    ______ ____
ROOT
ATOM      1  C   UNL     1       7.950   9.115  17.673  0.00  0.00    +0.000 C 
ENDROOT
BRANCH   1   5
ATOM      2  C   UNL     1       6.016   5.201  17.577  0.00  0.00    +0.000 C 
ATOM      3  C   UNL     1       5.276   6.478  17.109  0.00  0.00    +0.000 C 
ATOM      4  C   UNL     1       6.240   7.621  16.783  0.00  0.00    +0.000 C 
ATOM      5  N   UNL     1       7.072   7.965  17.940  0.00  0.00    +0.000 NA
ATOM      6  C   UNL     1       7.868   6.816  18.381  0.00  0.00    +0.000 C 
ATOM      7  C   UNL     1       6.972   5.630  18.725  0.00  0.00    +0.000 C 
BRANCH   2   8
ATOM      8  C   UNL     1       4.991   4.138  18.032  0.00  0.00    +0.000 A 
ATOM      9  C   UNL     1       3.959   3.676  17.194  0.00  0.00    +0.000 A 
ATOM     10  C   UNL     1       3.028   2.732  17.634  0.00  0.00    +0.000 A 
ATOM     11  C   UNL     1       3.102   2.230  18.928  0.00  0.00    +0.000 A 
ATOM     12  C   UNL     1       4.117   2.661  19.776  0.00  0.00    +0.000 A 
ATOM     13  C   UNL     1       5.053   3.602  19.334  0.00  0.00    +0.000 A 
ENDBRANCH   2   8
BRANCH   2  14
ATOM     14  C   UNL     1       6.804   4.648  16.366  0.00  0.00    +0.000 C 
ATOM     15  O   UNL     1       7.874   4.045  16.456  0.00  0.00    +0.000 OA
BRANCH  14  17
ATOM     16  C   UNL     1       6.259   3.853  14.231  0.00  0.00    +0.000 C 
ATOM     17  O   UNL     1       6.191   4.918  15.181  0.00  0.00    +0.000 OA
ENDBRANCH  14  17
ENDBRANCH   2  14
ENDBRANCH   1   5
BRANCH   1  18
ATOM     18  C   UNL     1       8.823   9.514  18.867  0.00  0.00    +0.000 C 
BRANCH  18  19
ATOM     19  C   UNL     1       9.650  10.758  18.576  0.00  0.00    +0.000 C 
BRANCH  19  20
ATOM     20  N   UNL     1       9.407  11.778  19.576  0.00  0.00    +0.000 N 
ATOM     21  C   UNL     1      10.433  12.230  20.373  0.00  0.00    +0.000 C 
ATOM     22  O   UNL     1      11.597  11.862  20.252  0.00  0.00    +0.000 OA
ATOM     23  H   UNL     1       8.453  11.927  19.881  0.00  0.00    +0.000 HD
BRANCH  21  24
ATOM     24  C   UNL     1       9.994  13.215  21.428  0.00  0.00    +0.000 C 
BRANCH  24  25
ATOM     25  C   UNL     1       8.488  13.436  21.317  0.00  0.00    +0.000 C 
BRANCH  25  26
ATOM     26  C   UNL     1       7.761  13.026  22.571  0.00  0.00    +0.000 A 
ATOM     27  C   UNL     1       8.203  11.919  23.309  0.00  0.00    +0.000 A 
ATOM     28  C   UNL     1       7.532  11.523  24.464  0.00  0.00    +0.000 A 
ATOM     29  C   UNL     1       6.405  12.240  24.883  0.00  0.00    +0.000 A 
ATOM     30  C   UNL     1       5.951  13.348  24.156  0.00  0.00    +0.000 A 
ATOM     31  C   UNL     1       6.630  13.734  23.000  0.00  0.00    +0.000 A 
BRANCH  29  32
ATOM     32  N   UNL     1       5.689  11.822  26.095  0.00  0.00    +0.000 N 
ATOM     33  O   UNL     1       6.141  10.859  26.729  0.00  0.00    +0.000 OA
ATOM     34  O   UNL     1       4.673  12.456  26.412  0.00  0.00    +0.000 OA
ENDBRANCH  29  32
ENDBRANCH  25  26
ENDBRANCH  24  25
ENDBRANCH  21  24
ENDBRANCH  19  20
ENDBRANCH  18  19
ENDBRANCH   1  18
TORSDOF 11
ENDMDL
