MODEL 1
REMARK VINA RESULT:      -8.4      0.000      0.000
REMARK  Name = 
REMARK  6 active torsions:
REMARK  status: ('A' for Active; 'I' for Inactive)
REMARK    1  A    between atoms: C_1  and  C_2
REMARK    2  A    between atoms: C_4  and  C_5
REMARK    3  A    between atoms: C_7  and  C_8
REMARK    4  A    between atoms: N_13  and  C_14
REMARK    5  A    between atoms: C_17  and  S_18
REMARK    6  A    between atoms: S_18  and  N_19
REMARK                            x       y       z     vdW  Elec       q    Type
REMARK                         _______ _______ _______ _____ _____    ______ ____
ROOT
ATOM      1  C   UNL     1       6.513   5.306  15.917  0.00  0.00    +0.000 A 
ATOM      2  N   UNL     1       6.865   5.278  14.642  0.00  0.00    +0.000 NA
ATOM      3  C   UNL     1       6.175   4.220  14.072  0.00  0.00    +0.000 A 
ATOM      4  C   UNL     1       5.325   3.673  15.019  0.00  0.00    +0.000 A 
ATOM      5  N   UNL     1       5.455   4.436  16.163  0.00  0.00    +0.000 N 
ENDROOT
BRANCH   1   9
ATOM      6  C   UNL     1       8.526   9.103  18.650  0.00  0.00    +0.000 C 
ATOM      7  C   UNL     1       8.088   7.847  18.018  0.00  0.00    +0.000 A 
ATOM      8  C   UNL     1       7.557   7.510  16.797  0.00  0.00    +0.000 A 
ATOM      9  C   UNL     1       7.238   6.141  16.928  0.00  0.00    +0.000 A 
ATOM     10  N   UNL     1       7.655   5.657  18.105  0.00  0.00    +0.000 NA
ATOM     11  O   UNL     1       8.183   6.732  18.790  0.00  0.00    +0.000 OA
ENDBRANCH   1   9
BRANCH   5  12
ATOM     12  C   UNL     1       4.574   4.382  17.283  0.00  0.00    +0.000 A 
ATOM     13  C   UNL     1       4.358   3.170  17.957  0.00  0.00    +0.000 A 
ATOM     14  C   UNL     1       3.478   3.119  19.045  0.00  0.00    +0.000 A 
ATOM     15  C   UNL     1       2.815   4.277  19.458  0.00  0.00    +0.000 A 
ATOM     16  C   UNL     1       2.996   5.479  18.776  0.00  0.00    +0.000 A 
ATOM     17  C   UNL     1       3.864   5.525  17.685  0.00  0.00    +0.000 A 
BRANCH  15  18
ATOM     18  S   UNL     1       1.670   4.207  20.802  0.00  0.00    +0.000 S 
ATOM     19  O   UNL     1       2.279   3.509  21.913  0.00  0.00    +0.000 OA
ATOM     20  O   UNL     1       1.038   5.500  20.952  0.00  0.00    +0.000 OA
BRANCH  18  21
ATOM     21  N   UNL     1       0.487   3.180  20.202  0.00  0.00    +0.000 NA
ATOM     22  H   UNL     1      -0.378   3.300  20.729  0.00  0.00    +0.000 HD
ATOM     23  H   UNL     1       0.382   3.319  19.197  0.00  0.00    +0.000 HD
ENDBRANCH  18  21
ENDBRANCH  15  18
ENDBRANCH   5  12
BRANCH   3  24
ATOM     24  C   UNL     1       6.356   3.788  12.645  0.00  0.00    +0.000 C 
ATOM     25  F   UNL     1       5.219   3.875  11.908  0.00  0.00    +0.000 F 
ATOM     26  F   UNL     1       7.294   4.544  12.012  0.00  0.00    +0.000 F 
ATOM     27  F   UNL     1       6.782   2.498  12.563  0.00  0.00    +0.000 F 
ENDBRANCH   3  24
TORSDOF 5
ENDMDL
MODEL 2
REMARK VINA RESULT:      -8.4      0.198      1.217
REMARK  Name = 
REMARK  6 active torsions:
REMARK  status: ('A' for Active; 'I' for Inactive)
REMARK    1  A    between atoms: C_1  and  C_2
REMARK    2  A    between atoms: C_4  and  C_5
REMARK    3  A    between atoms: C_7  and  C_8
REMARK    4  A    between atoms: N_13  and  C_14
REMARK    5  A    between atoms: C_17  and  S_18
REMARK    6  A    between atoms: S_18  and  N_19
REMARK                            x       y       z     vdW  Elec       q    Type
REMARK                         _______ _______ _______ _____ _____    ______ ____
ROOT
ATOM      1  C   UNL     1       6.523   5.292  15.921  0.00  0.00    +0.000 A 
ATOM      2  N   UNL     1       6.891   5.270  14.651  0.00  0.00    +0.000 NA
ATOM      3  C   UNL     1       6.203   4.218  14.066  0.00  0.00    +0.000 A 
ATOM      4  C   UNL     1       5.338   3.670  14.999  0.00  0.00    +0.000 A 
ATOM      5  N   UNL     1       5.458   4.426  16.149  0.00  0.00    +0.000 N 
ENDROOT
BRANCH   1   9
ATOM      6  C   UNL     1       8.529   9.062  18.698  0.00  0.00    +0.000 C 
ATOM      7  C   UNL     1       8.089   7.811  18.055  0.00  0.00    +0.000 A 
ATOM      8  C   UNL     1       7.576   7.482  16.824  0.00  0.00    +0.000 A 
ATOM      9  C   UNL     1       7.240   6.117  16.947  0.00  0.00    +0.000 A 
ATOM     10  N   UNL     1       7.631   5.626  18.130  0.00  0.00    +0.000 NA
ATOM     11  O   UNL     1       8.159   6.694  18.826  0.00  0.00    +0.000 OA
ENDBRANCH   1   9
BRANCH   5  12
ATOM     12  C   UNL     1       4.562   4.370  17.257  0.00  0.00    +0.000 A 
ATOM     13  C   UNL     1       3.572   5.353  17.417  0.00  0.00    +0.000 A 
ATOM     14  C   UNL     1       2.706   5.303  18.516  0.00  0.00    +0.000 A 
ATOM     15  C   UNL     1       2.830   4.275  19.454  0.00  0.00    +0.000 A 
ATOM     16  C   UNL     1       3.830   3.313  19.323  0.00  0.00    +0.000 A 
ATOM     17  C   UNL     1       4.699   3.371  18.233  0.00  0.00    +0.000 A 
BRANCH  15  18
ATOM     18  S   UNL     1       1.768   4.234  20.866  0.00  0.00    +0.000 S 
ATOM     19  O   UNL     1       2.400   3.470  21.918  0.00  0.00    +0.000 OA
ATOM     20  O   UNL     1       1.226   5.557  21.087  0.00  0.00    +0.000 OA
BRANCH  18  21
ATOM     21  N   UNL     1       0.490   3.297  20.316  0.00  0.00    +0.000 NA
ATOM     22  H   UNL     1       0.724   2.307  20.399  0.00  0.00    +0.000 HD
ATOM     23  H   UNL     1      -0.369   3.561  20.798  0.00  0.00    +0.000 HD
ENDBRANCH  18  21
ENDBRANCH  15  18
ENDBRANCH   5  12
BRANCH   3  24
ATOM     24  C   UNL     1       6.400   3.794  12.639  0.00  0.00    +0.000 C 
ATOM     25  F   UNL     1       7.321   4.541  11.978  0.00  0.00    +0.000 F 
ATOM     26  F   UNL     1       6.812   2.499  12.557  0.00  0.00    +0.000 F 
ATOM     27  F   UNL     1       5.242   3.875  11.929  0.00  0.00    +0.000 F 
ENDBRANCH   3  24
TORSDOF 5
ENDMDL
MODEL 3
REMARK VINA RESULT:      -8.2      0.748      1.168
REMARK  Name = 
REMARK  6 active torsions:
REMARK  status: ('A' for Active; 'I' for Inactive)
REMARK    1  A    between atoms: C_1  and  C_2
REMARK    2  A    between atoms: C_4  and  C_5
REMARK    3  A    between atoms: C_7  and  C_8
REMARK    4  A    between atoms: N_13  and  C_14
REMARK    5  A    between atoms: C_17  and  S_18
REMARK    6  A    between atoms: S_18  and  N_19
REMARK                            x       y       z     vdW  Elec       q    Type
REMARK                         _______ _______ _______ _____ _____    ______ ____
ROOT
ATOM      1  C   UNL     1       6.495   5.205  15.776  0.00  0.00    +0.000 A 
ATOM      2  N   UNL     1       6.889   5.207  14.514  0.00  0.00    +0.000 NA
ATOM      3  C   UNL     1       6.205   4.175  13.891  0.00  0.00    +0.000 A 
ATOM      4  C   UNL     1       5.317   3.613  14.793  0.00  0.00    +0.000 A 
ATOM      5  N   UNL     1       5.418   4.343  15.962  0.00  0.00    +0.000 N 
ENDROOT
BRANCH   1   9
ATOM      6  C   UNL     1       8.461   8.895  18.684  0.00  0.00    +0.000 C 
ATOM      7  C   UNL     1       8.030   7.663  18.002  0.00  0.00    +0.000 A 
ATOM      8  C   UNL     1       7.536   7.368  16.754  0.00  0.00    +0.000 A 
ATOM      9  C   UNL     1       7.196   6.000  16.835  0.00  0.00    +0.000 A 
ATOM     10  N   UNL     1       7.566   5.477  18.011  0.00  0.00    +0.000 NA
ATOM     11  O   UNL     1       8.085   6.526  18.744  0.00  0.00    +0.000 OA
ENDBRANCH   1   9
BRANCH   5  12
ATOM     12  C   UNL     1       4.498   4.270  17.050  0.00  0.00    +0.000 A 
ATOM     13  C   UNL     1       4.213   3.036  17.655  0.00  0.00    +0.000 A 
ATOM     14  C   UNL     1       3.296   2.967  18.710  0.00  0.00    +0.000 A 
ATOM     15  C   UNL     1       2.665   4.130  19.160  0.00  0.00    +0.000 A 
ATOM     16  C   UNL     1       2.915   5.355  18.546  0.00  0.00    +0.000 A 
ATOM     17  C   UNL     1       3.820   5.419  17.487  0.00  0.00    +0.000 A 
BRANCH  15  18
ATOM     18  S   UNL     1       1.474   4.040  20.462  0.00  0.00    +0.000 S 
ATOM     19  O   UNL     1       1.148   5.377  20.905  0.00  0.00    +0.000 OA
ATOM     20  O   UNL     1       0.458   3.072  20.109  0.00  0.00    +0.000 OA
BRANCH  18  21
ATOM     21  N   UNL     1       2.363   3.345  21.703  0.00  0.00    +0.000 NA
ATOM     22  H   UNL     1       1.966   2.438  21.950  0.00  0.00    +0.000 HD
ATOM     23  H   UNL     1       3.350   3.308  21.446  0.00  0.00    +0.000 HD
ENDBRANCH  18  21
ENDBRANCH  15  18
ENDBRANCH   5  12
BRANCH   3  24
ATOM     24  C   UNL     1       6.430   3.780  12.460  0.00  0.00    +0.000 C 
ATOM     25  F   UNL     1       7.347   4.555  11.825  0.00  0.00    +0.000 F 
ATOM     26  F   UNL     1       6.865   2.495  12.360  0.00  0.00    +0.000 F 
ATOM     27  F   UNL     1       5.281   3.855  11.735  0.00  0.00    +0.000 F 
ENDBRANCH   3  24
TORSDOF 5
ENDMDL
MODEL 4
REMARK VINA RESULT:      -8.1      0.756      1.317
REMARK  Name = 
REMARK  6 active torsions:
REMARK  status: ('A' for Active; 'I' for Inactive)
REMARK    1  A    between atoms: C_1  and  C_2
REMARK    2  A    between atoms: C_4  and  C_5
REMARK    3  A    between atoms: C_7  and  C_8
REMARK    4  A    between atoms: N_13  and  C_14
REMARK    5  A    between atoms: C_17  and  S_18
REMARK    6  A    between atoms: S_18  and  N_19
REMARK                            x       y       z     vdW  Elec       q    Type
REMARK                         _______ _______ _______ _____ _____    ______ ____
ROOT
ATOM      1  C   UNL     1       6.515   5.241  15.745  0.00  0.00    +0.000 A 
ATOM      2  N   UNL     1       6.945   5.222  14.495  0.00  0.00    +0.000 NA
ATOM      3  C   UNL     1       6.248   4.208  13.858  0.00  0.00    +0.000 A 
ATOM      4  C   UNL     1       5.317   3.680  14.738  0.00  0.00    +0.000 A 
ATOM      5  N   UNL     1       5.407   4.413  15.905  0.00  0.00    +0.000 N 
ENDROOT
BRANCH   1   9
ATOM      6  C   UNL     1       8.474   8.889  18.710  0.00  0.00    +0.000 C 
ATOM      7  C   UNL     1       8.042   7.667  18.011  0.00  0.00    +0.000 A 
ATOM      8  C   UNL     1       7.559   7.387  16.755  0.00  0.00    +0.000 A 
ATOM      9  C   UNL     1       7.210   6.021  16.819  0.00  0.00    +0.000 A 
ATOM     10  N   UNL     1       7.565   5.484  17.993  0.00  0.00    +0.000 NA
ATOM     11  O   UNL     1       8.082   6.522  18.742  0.00  0.00    +0.000 OA
ENDBRANCH   1   9
BRANCH   5  12
ATOM     12  C   UNL     1       4.455   4.376  16.966  0.00  0.00    +0.000 A 
ATOM     13  C   UNL     1       3.880   5.564  17.443  0.00  0.00    +0.000 A 
ATOM     14  C   UNL     1       2.959   5.524  18.497  0.00  0.00    +0.000 A 
ATOM     15  C   UNL     1       2.614   4.298  19.072  0.00  0.00    +0.000 A 
ATOM     16  C   UNL     1       3.202   3.116  18.629  0.00  0.00    +0.000 A 
ATOM     17  C   UNL     1       4.128   3.160  17.586  0.00  0.00    +0.000 A 
BRANCH  15  18
ATOM     18  S   UNL     1       1.485   4.248  20.431  0.00  0.00    +0.000 S 
ATOM     19  O   UNL     1       1.226   5.595  20.888  0.00  0.00    +0.000 OA
ATOM     20  O   UNL     1       0.422   3.314  20.129  0.00  0.00    +0.000 OA
BRANCH  18  21
ATOM     21  N   UNL     1       2.411   3.524  21.628  0.00  0.00    +0.000 NA
ATOM     22  H   UNL     1       2.837   4.238  22.219  0.00  0.00    +0.000 HD
ATOM     23  H   UNL     1       1.848   2.845  22.141  0.00  0.00    +0.000 HD
ENDBRANCH  18  21
ENDBRANCH  15  18
ENDBRANCH   5  12
BRANCH   3  24
ATOM     24  C   UNL     1       6.501   3.798  12.436  0.00  0.00    +0.000 C 
ATOM     25  F   UNL     1       5.384   3.814  11.664  0.00  0.00    +0.000 F 
ATOM     26  F   UNL     1       7.406   4.617  11.835  0.00  0.00    +0.000 F 
ATOM     27  F   UNL     1       7.013   2.539  12.362  0.00  0.00    +0.000 F 
ENDBRANCH   3  24
TORSDOF 5
ENDMDL
MODEL 5
REMARK VINA RESULT:      -8.1      0.714      1.176
REMARK  Name = 
REMARK  6 active torsions:
REMARK  status: ('A' for Active; 'I' for Inactive)
REMARK    1  A    between atoms: C_1  and  C_2
REMARK    2  A    between atoms: C_4  and  C_5
REMARK    3  A    between atoms: C_7  and  C_8
REMARK    4  A    between atoms: N_13  and  C_14
REMARK    5  A    between atoms: C_17  and  S_18
REMARK    6  A    between atoms: S_18  and  N_19
REMARK                            x       y       z     vdW  Elec       q    Type
REMARK                         _______ _______ _______ _____ _____    ______ ____
ROOT
ATOM      1  C   UNL     1       6.522   5.276  15.889  0.00  0.00    +0.000 A 
ATOM      2  N   UNL     1       6.881   5.258  14.616  0.00  0.00    +0.000 NA
ATOM      3  C   UNL     1       6.205   4.196  14.037  0.00  0.00    +0.000 A 
ATOM      4  C   UNL     1       5.355   3.635  14.976  0.00  0.00    +0.000 A 
ATOM      5  N   UNL     1       5.471   4.394  16.125  0.00  0.00    +0.000 N 
ENDROOT
BRANCH   1   9
ATOM      6  C   UNL     1       8.514   9.076  18.633  0.00  0.00    +0.000 C 
ATOM      7  C   UNL     1       8.077   7.819  18.002  0.00  0.00    +0.000 A 
ATOM      8  C   UNL     1       7.571   7.476  16.772  0.00  0.00    +0.000 A 
ATOM      9  C   UNL     1       7.233   6.112  16.909  0.00  0.00    +0.000 A 
ATOM     10  N   UNL     1       7.616   5.635  18.100  0.00  0.00    +0.000 NA
ATOM     11  O   UNL     1       8.141   6.711  18.787  0.00  0.00    +0.000 OA
ENDBRANCH   1   9
BRANCH   5  12
ATOM     12  C   UNL     1       4.584   4.325  17.239  0.00  0.00    +0.000 A 
ATOM     13  C   UNL     1       4.383   3.109  17.911  0.00  0.00    +0.000 A 
ATOM     14  C   UNL     1       3.497   3.043  18.993  0.00  0.00    +0.000 A 
ATOM     15  C   UNL     1       2.814   4.191  19.403  0.00  0.00    +0.000 A 
ATOM     16  C   UNL     1       2.981   5.396  18.724  0.00  0.00    +0.000 A 
ATOM     17  C   UNL     1       3.855   5.456  17.639  0.00  0.00    +0.000 A 
BRANCH  15  18
ATOM     18  S   UNL     1       1.662   4.101  20.740  0.00  0.00    +0.000 S 
ATOM     19  O   UNL     1       0.431   3.505  20.273  0.00  0.00    +0.000 OA
ATOM     20  O   UNL     1       2.349   3.634  21.925  0.00  0.00    +0.000 OA
BRANCH  18  21
ATOM     21  N   UNL     1       1.318   5.720  21.014  0.00  0.00    +0.000 NA
ATOM     22  H   UNL     1       1.413   5.933  22.008  0.00  0.00    +0.000 HD
ATOM     23  H   UNL     1       1.892   6.306  20.409  0.00  0.00    +0.000 HD
ENDBRANCH  18  21
ENDBRANCH  15  18
ENDBRANCH   5  12
BRANCH   3  24
ATOM     24  C   UNL     1       6.399   3.774  12.609  0.00  0.00    +0.000 C 
ATOM     25  F   UNL     1       6.836   2.495  12.480  0.00  0.00    +0.000 F 
ATOM     26  F   UNL     1       5.240   3.866  11.901  0.00  0.00    +0.000 F 
ATOM     27  F   UNL     1       7.302   4.566  11.971  0.00  0.00    +0.000 F 
ENDBRANCH   3  24
TORSDOF 5
ENDMDL
MODEL 6
REMARK VINA RESULT:      -8.0      3.423      5.599
REMARK  Name = 
REMARK  6 active torsions:
REMARK  status: ('A' for Active; 'I' for Inactive)
REMARK    1  A    between atoms: C_1  and  C_2
REMARK    2  A    between atoms: C_4  and  C_5
REMARK    3  A    between atoms: C_7  and  C_8
REMARK    4  A    between atoms: N_13  and  C_14
REMARK    5  A    between atoms: C_17  and  S_18
REMARK    6  A    between atoms: S_18  and  N_19
REMARK                            x       y       z     vdW  Elec       q    Type
REMARK                         _______ _______ _______ _____ _____    ______ ____
ROOT
ATOM      1  C   UNL     1       3.772   4.545  18.129  0.00  0.00    +0.000 A 
ATOM      2  N   UNL     1       4.822   3.941  17.598  0.00  0.00    +0.000 NA
ATOM      3  C   UNL     1       5.339   4.817  16.656  0.00  0.00    +0.000 A 
ATOM      4  C   UNL     1       4.626   6.003  16.704  0.00  0.00    +0.000 A 
ATOM      5  N   UNL     1       3.700   5.874  17.722  0.00  0.00    +0.000 N 
ENDROOT
BRANCH   1   9
ATOM      6  C   UNL     1       1.263   2.389  22.002  0.00  0.00    +0.000 C 
ATOM      7  C   UNL     1       1.804   2.897  20.730  0.00  0.00    +0.000 A 
ATOM      8  C   UNL     1       3.027   3.362  20.312  0.00  0.00    +0.000 A 
ATOM      9  C   UNL     1       2.789   3.822  18.999  0.00  0.00    +0.000 A 
ATOM     10  N   UNL     1       1.538   3.547  18.609  0.00  0.00    +0.000 NA
ATOM     11  O   UNL     1       0.920   2.971  19.700  0.00  0.00    +0.000 OA
ENDBRANCH   1   9
BRANCH   5  12
ATOM     12  C   UNL     1       2.947   6.949  18.280  0.00  0.00    +0.000 A 
ATOM     13  C   UNL     1       2.691   8.103  17.522  0.00  0.00    +0.000 A 
ATOM     14  C   UNL     1       1.967   9.162  18.081  0.00  0.00    +0.000 A 
ATOM     15  C   UNL     1       1.500   9.069  19.394  0.00  0.00    +0.000 A 
ATOM     16  C   UNL     1       1.775   7.943  20.166  0.00  0.00    +0.000 A 
ATOM     17  C   UNL     1       2.507   6.893  19.612  0.00  0.00    +0.000 A 
BRANCH  15  18
ATOM     18  S   UNL     1       0.623  10.423  20.117  0.00  0.00    +0.000 S 
ATOM     19  O   UNL     1       1.202  11.666  19.660  0.00  0.00    +0.000 OA
ATOM     20  O   UNL     1      -0.797  10.157  20.048  0.00  0.00    +0.000 OA
BRANCH  18  21
ATOM     21  N   UNL     1       1.040  10.285  21.736  0.00  0.00    +0.000 NA
ATOM     22  H   UNL     1       0.233   9.976  22.279  0.00  0.00    +0.000 HD
ATOM     23  H   UNL     1       1.859   9.685  21.836  0.00  0.00    +0.000 HD
ENDBRANCH  18  21
ENDBRANCH  15  18
ENDBRANCH   5  12
BRANCH   3  24
ATOM     24  C   UNL     1       6.496   4.479  15.761  0.00  0.00    +0.000 C 
ATOM     25  F   UNL     1       6.803   5.467  14.882  0.00  0.00    +0.000 F 
ATOM     26  F   UNL     1       7.624   4.227  16.479  0.00  0.00    +0.000 F 
ATOM     27  F   UNL     1       6.249   3.360  15.027  0.00  0.00    +0.000 F 
ENDBRANCH   3  24
TORSDOF 5
ENDMDL
MODEL 7
REMARK VINA RESULT:      -7.9      3.484      5.645
REMARK  Name = 
REMARK  6 active torsions:
REMARK  status: ('A' for Active; 'I' for Inactive)
REMARK    1  A    between atoms: C_1  and  C_2
REMARK    2  A    between atoms: C_4  and  C_5
REMARK    3  A    between atoms: C_7  and  C_8
REMARK    4  A    between atoms: N_13  and  C_14
REMARK    5  A    between atoms: C_17  and  S_18
REMARK    6  A    between atoms: S_18  and  N_19
REMARK                            x       y       z     vdW  Elec       q    Type
REMARK                         _______ _______ _______ _____ _____    ______ ____
ROOT
ATOM      1  C   UNL     1       3.715   4.546  18.128  0.00  0.00    +0.000 A 
ATOM      2  N   UNL     1       4.759   3.944  17.584  0.00  0.00    +0.000 NA
ATOM      3  C   UNL     1       5.271   4.826  16.646  0.00  0.00    +0.000 A 
ATOM      4  C   UNL     1       4.563   6.014  16.709  0.00  0.00    +0.000 A 
ATOM      5  N   UNL     1       3.644   5.879  17.732  0.00  0.00    +0.000 N 
ENDROOT
BRANCH   1   9
ATOM      6  C   UNL     1       1.221   2.374  22.001  0.00  0.00    +0.000 C 
ATOM      7  C   UNL     1       1.757   2.887  20.728  0.00  0.00    +0.000 A 
ATOM      8  C   UNL     1       2.978   3.356  20.309  0.00  0.00    +0.000 A 
ATOM      9  C   UNL     1       2.735   3.819  18.998  0.00  0.00    +0.000 A 
ATOM     10  N   UNL     1       1.484   3.543  18.610  0.00  0.00    +0.000 NA
ATOM     11  O   UNL     1       0.870   2.962  19.701  0.00  0.00    +0.000 OA
ENDBRANCH   1   9
BRANCH   5  12
ATOM     12  C   UNL     1       2.899   6.951  18.305  0.00  0.00    +0.000 A 
ATOM     13  C   UNL     1       2.614   8.099  17.549  0.00  0.00    +0.000 A 
ATOM     14  C   UNL     1       1.898   9.157  18.122  0.00  0.00    +0.000 A 
ATOM     15  C   UNL     1       1.467   9.067  19.448  0.00  0.00    +0.000 A 
ATOM     16  C   UNL     1       1.772   7.947  20.218  0.00  0.00    +0.000 A 
ATOM     17  C   UNL     1       2.496   6.899  19.649  0.00  0.00    +0.000 A 
BRANCH  15  18
ATOM     18  S   UNL     1       0.601  10.418  20.188  0.00  0.00    +0.000 S 
ATOM     19  O   UNL     1      -0.802  10.330  19.850  0.00  0.00    +0.000 OA
ATOM     20  O   UNL     1       1.061  10.586  21.549  0.00  0.00    +0.000 OA
BRANCH  18  21
ATOM     21  N   UNL     1       1.201  11.730  19.332  0.00  0.00    +0.000 NA
ATOM     22  H   UNL     1       1.443  11.445  18.382  0.00  0.00    +0.000 HD
ATOM     23  H   UNL     1       0.541  12.506  19.375  0.00  0.00    +0.000 HD
ENDBRANCH  18  21
ENDBRANCH  15  18
ENDBRANCH   5  12
BRANCH   3  24
ATOM     24  C   UNL     1       6.421   4.492  15.739  0.00  0.00    +0.000 C 
ATOM     25  F   UNL     1       6.234   3.349  15.031  0.00  0.00    +0.000 F 
ATOM     26  F   UNL     1       6.644   5.483  14.833  0.00  0.00    +0.000 F 
ATOM     27  F   UNL     1       7.580   4.340  16.436  0.00  0.00    +0.000 F 
ENDBRANCH   3  24
TORSDOF 5
ENDMDL
MODEL 8
REMARK VINA RESULT:      -7.9      3.467      5.623
REMARK  Name = 
REMARK  6 active torsions:
REMARK  status: ('A' for Active; 'I' for Inactive)
REMARK    1  A    between atoms: C_1  and  C_2
REMARK    2  A    between atoms: C_4  and  C_5
REMARK    3  A    between atoms: C_7  and  C_8
REMARK    4  A    between atoms: N_13  and  C_14
REMARK    5  A    between atoms: C_17  and  S_18
REMARK    6  A    between atoms: S_18  and  N_19
REMARK                            x       y       z     vdW  Elec       q    Type
REMARK                         _______ _______ _______ _____ _____    ______ ____
ROOT
ATOM      1  C   UNL     1       3.743   4.539  18.132  0.00  0.00    +0.000 A 
ATOM      2  N   UNL     1       4.777   3.922  17.584  0.00  0.00    +0.000 NA
ATOM      3  C   UNL     1       5.300   4.799  16.647  0.00  0.00    +0.000 A 
ATOM      4  C   UNL     1       4.610   5.998  16.715  0.00  0.00    +0.000 A 
ATOM      5  N   UNL     1       3.692   5.873  17.740  0.00  0.00    +0.000 N 
ENDROOT
BRANCH   1   9
ATOM      6  C   UNL     1       1.240   2.371  22.001  0.00  0.00    +0.000 C 
ATOM      7  C   UNL     1       1.773   2.890  20.730  0.00  0.00    +0.000 A 
ATOM      8  C   UNL     1       3.002   3.331  20.302  0.00  0.00    +0.000 A 
ATOM      9  C   UNL     1       2.755   3.824  19.003  0.00  0.00    +0.000 A 
ATOM     10  N   UNL     1       1.491   3.590  18.627  0.00  0.00    +0.000 NA
ATOM     11  O   UNL     1       0.876   3.008  19.716  0.00  0.00    +0.000 OA
ENDBRANCH   1   9
BRANCH   5  12
ATOM     12  C   UNL     1       2.964   6.955  18.317  0.00  0.00    +0.000 A 
ATOM     13  C   UNL     1       2.521   6.881  19.647  0.00  0.00    +0.000 A 
ATOM     14  C   UNL     1       1.792   7.939  20.204  0.00  0.00    +0.000 A 
ATOM     15  C   UNL     1       1.506   9.068  19.433  0.00  0.00    +0.000 A 
ATOM     16  C   UNL     1       1.912   9.139  18.102  0.00  0.00    +0.000 A 
ATOM     17  C   UNL     1       2.628   8.079  17.546  0.00  0.00    +0.000 A 
BRANCH  15  18
ATOM     18  S   UNL     1       0.548  10.385  20.118  0.00  0.00    +0.000 S 
ATOM     19  O   UNL     1      -0.853  10.147  19.852  0.00  0.00    +0.000 OA
ATOM     20  O   UNL     1       1.045  10.691  21.442  0.00  0.00    +0.000 OA
BRANCH  18  21
ATOM     21  N   UNL     1       0.990  11.681  19.148  0.00  0.00    +0.000 NA
ATOM     22  H   UNL     1       1.049  11.382  18.174  0.00  0.00    +0.000 HD
ATOM     23  H   UNL     1       0.355  12.464  19.303  0.00  0.00    +0.000 HD
ENDBRANCH  18  21
ENDBRANCH  15  18
ENDBRANCH   5  12
BRANCH   3  24
ATOM     24  C   UNL     1       6.443   4.450  15.736  0.00  0.00    +0.000 C 
ATOM     25  F   UNL     1       7.621   4.285  16.390  0.00  0.00    +0.000 F 
ATOM     26  F   UNL     1       6.204   3.293  15.060  0.00  0.00    +0.000 F 
ATOM     27  F   UNL     1       6.644   5.411  14.795  0.00  0.00    +0.000 F 
ENDBRANCH   3  24
TORSDOF 5
ENDMDL
MODEL 9
REMARK VINA RESULT:      -7.7      1.428      2.024
REMARK  Name = 
REMARK  6 active torsions:
REMARK  status: ('A' for Active; 'I' for Inactive)
REMARK    1  A    between atoms: C_1  and  C_2
REMARK    2  A    between atoms: C_4  and  C_5
REMARK    3  A    between atoms: C_7  and  C_8
REMARK    4  A    between atoms: N_13  and  C_14
REMARK    5  A    between atoms: C_17  and  S_18
REMARK    6  A    between atoms: S_18  and  N_19
REMARK                            x       y       z     vdW  Elec       q    Type
REMARK                         _______ _______ _______ _____ _____    ______ ____
ROOT
ATOM      1  C   UNL     1       6.467   4.930  15.740  0.00  0.00    +0.000 A 
ATOM      2  N   UNL     1       7.000   5.103  14.542  0.00  0.00    +0.000 NA
ATOM      3  C   UNL     1       6.366   4.203  13.701  0.00  0.00    +0.000 A 
ATOM      4  C   UNL     1       5.369   3.551  14.407  0.00  0.00    +0.000 A 
ATOM      5  N   UNL     1       5.355   4.095  15.677  0.00  0.00    +0.000 N 
ENDROOT
BRANCH   1   9
ATOM      6  C   UNL     1       8.496   5.762  20.337  0.00  0.00    +0.000 C 
ATOM      7  C   UNL     1       7.901   5.787  18.990  0.00  0.00    +0.000 A 
ATOM      8  C   UNL     1       7.176   4.899  18.233  0.00  0.00    +0.000 A 
ATOM      9  C   UNL     1       7.064   5.531  16.976  0.00  0.00    +0.000 A 
ATOM     10  N   UNL     1       7.582   6.766  17.007  0.00  0.00    +0.000 NA
ATOM     11  O   UNL     1       8.112   6.921  18.272  0.00  0.00    +0.000 OA
ENDBRANCH   1   9
BRANCH   5  12
ATOM     12  C   UNL     1       4.318   3.900  16.636  0.00  0.00    +0.000 A 
ATOM     13  C   UNL     1       3.620   5.001  17.157  0.00  0.00    +0.000 A 
ATOM     14  C   UNL     1       2.614   4.805  18.112  0.00  0.00    +0.000 A 
ATOM     15  C   UNL     1       2.308   3.513  18.544  0.00  0.00    +0.000 A 
ATOM     16  C   UNL     1       3.016   2.416  18.058  0.00  0.00    +0.000 A 
ATOM     17  C   UNL     1       4.025   2.614  17.116  0.00  0.00    +0.000 A 
BRANCH  15  18
ATOM     18  S   UNL     1       1.070   3.266  19.781  0.00  0.00    +0.000 S 
ATOM     19  O   UNL     1       0.753   4.534  20.400  0.00  0.00    +0.000 OA
ATOM     20  O   UNL     1       0.050   2.382  19.259  0.00  0.00    +0.000 OA
BRANCH  18  21
ATOM     21  N   UNL     1       1.902   2.381  20.938  0.00  0.00    +0.000 NA
ATOM     22  H   UNL     1       2.044   2.947  21.775  0.00  0.00    +0.000 HD
ATOM     23  H   UNL     1       1.421   1.498  21.113  0.00  0.00    +0.000 HD
ENDBRANCH  18  21
ENDBRANCH  15  18
ENDBRANCH   5  12
BRANCH   3  24
ATOM     24  C   UNL     1       6.740   4.015  12.259  0.00  0.00    +0.000 C 
ATOM     25  F   UNL     1       7.587   4.969  11.794  0.00  0.00    +0.000 F 
ATOM     26  F   UNL     1       7.348   2.815  12.054  0.00  0.00    +0.000 F 
ATOM     27  F   UNL     1       5.644   4.034  11.452  0.00  0.00    +0.000 F 
ENDBRANCH   3  24
TORSDOF 5
ENDMDL
