MODEL 1
REMARK VINA RESULT:      -7.8      0.000      0.000
REMARK  Name = 
REMARK  4 active torsions:
REMARK  status: ('A' for Active; 'I' for Inactive)
REMARK    1  A    between atoms: C_1  and  N_2
REMARK    2  A    between atoms: N_8  and  C_9
REMARK    3  A    between atoms: C_9  and  C_10
REMARK    4  A    between atoms: N_12  and  C_13
REMARK                            x       y       z     vdW  Elec       q    Type
REMARK                         _______ _______ _______ _____ _____    ______ ____
ROOT
ATOM      1  C   UNL     1       7.731   7.043  18.109  0.00  0.00    +0.000 C 
ENDROOT
BRANCH   1   9
ATOM      2  C   UNL     1       3.976   2.718  18.586  0.00  0.00    +0.000 C 
ATOM      3  N   UNL     1       3.987   4.174  18.753  0.00  0.00    +0.000 NA
ATOM      4  C   UNL     1       2.597   4.665  18.786  0.00  0.00    +0.000 C 
ATOM      5  C   UNL     1       2.521   6.176  18.998  0.00  0.00    +0.000 C 
ATOM      6  C   UNL     1       3.319   6.916  17.933  0.00  0.00    +0.000 C 
ATOM      7  C   UNL     1       4.756   6.390  17.932  0.00  0.00    +0.000 C 
ATOM      8  C   UNL     1       5.620   7.114  16.886  0.00  0.00    +0.000 C 
ATOM      9  N   UNL     1       7.020   6.653  16.868  0.00  0.00    +0.000 NA
ATOM     10  C   UNL     1       7.045   5.200  16.627  0.00  0.00    +0.000 C 
ATOM     11  C   UNL     1       6.242   4.384  17.641  0.00  0.00    +0.000 C 
ATOM     12  C   UNL     1       4.777   4.860  17.701  0.00  0.00    +0.000 C 
ENDBRANCH   1   9
BRANCH   1  13
ATOM     13  C   UNL     1       8.151   8.515  18.081  0.00  0.00    +0.000 C 
ATOM     14  O   UNL     1       7.828   9.262  17.153  0.00  0.00    +0.000 OA
ATOM     15  N   UNL     1       8.941   8.904  19.150  0.00  0.00    +0.000 N 
ATOM     16  H   UNL     1       9.495   8.175  19.581  0.00  0.00    +0.000 HD
BRANCH  15  17
ATOM     17  C   UNL     1       9.388  10.233  19.283  0.00  0.00    +0.000 A 
ATOM     18  C   UNL     1       9.324  10.828  20.544  0.00  0.00    +0.000 A 
ATOM     19  C   UNL     1       9.795  12.130  20.715  0.00  0.00    +0.000 A 
ATOM     20  C   UNL     1      10.258  12.846  19.613  0.00  0.00    +0.000 A 
ATOM     21  F   UNL     1      10.671  14.109  19.798  0.00  0.00    +0.000 F 
ATOM     22  C   UNL     1      10.282  12.268  18.347  0.00  0.00    +0.000 A 
ATOM     23 CL   UNL     1      10.794  13.178  16.978  0.00  0.00    +0.000 Cl
ATOM     24  C   UNL     1       9.870  10.950  18.184  0.00  0.00    +0.000 A 
ENDBRANCH  15  17
ENDBRANCH   1  13
TORSDOF 3
ENDMDL
MODEL 2
REMARK VINA RESULT:      -7.7      1.080      1.477
REMARK  Name = 
REMARK  4 active torsions:
REMARK  status: ('A' for Active; 'I' for Inactive)
REMARK    1  A    between atoms: C_1  and  N_2
REMARK    2  A    between atoms: N_8  and  C_9
REMARK    3  A    between atoms: C_9  and  C_10
REMARK    4  A    between atoms: N_12  and  C_13
REMARK                            x       y       z     vdW  Elec       q    Type
REMARK                         _______ _______ _______ _____ _____    ______ ____
ROOT
ATOM      1  C   UNL     1       7.764   6.983  18.166  0.00  0.00    +0.000 C 
ENDROOT
BRANCH   1   9
ATOM      2  C   UNL     1       3.997   2.690  18.814  0.00  0.00    +0.000 C 
ATOM      3  N   UNL     1       4.005   4.154  18.898  0.00  0.00    +0.000 NA
ATOM      4  C   UNL     1       2.615   4.645  18.875  0.00  0.00    +0.000 C 
ATOM      5  C   UNL     1       2.536   6.165  18.999  0.00  0.00    +0.000 C 
ATOM      6  C   UNL     1       3.355   6.844  17.910  0.00  0.00    +0.000 C 
ATOM      7  C   UNL     1       4.792   6.320  17.968  0.00  0.00    +0.000 C 
ATOM      8  C   UNL     1       5.677   6.983  16.899  0.00  0.00    +0.000 C 
ATOM      9  N   UNL     1       7.077   6.522  16.936  0.00  0.00    +0.000 NA
ATOM     10  C   UNL     1       7.106   5.058  16.779  0.00  0.00    +0.000 C 
ATOM     11  C   UNL     1       6.282   4.300  17.821  0.00  0.00    +0.000 C 
ATOM     12  C   UNL     1       4.817   4.778  17.824  0.00  0.00    +0.000 C 
ENDBRANCH   1   9
BRANCH   1  13
ATOM     13  C   UNL     1       8.113   8.472  18.095  0.00  0.00    +0.000 C 
ATOM     14  O   UNL     1       7.675   9.196  17.197  0.00  0.00    +0.000 OA
ATOM     15  N   UNL     1       8.975   8.904  19.089  0.00  0.00    +0.000 N 
ATOM     16  H   UNL     1       9.597   8.204  19.472  0.00  0.00    +0.000 HD
BRANCH  15  17
ATOM     17  C   UNL     1       9.372  10.253  19.176  0.00  0.00    +0.000 A 
ATOM     18  C   UNL     1       9.900  10.861  18.037  0.00  0.00    +0.000 A 
ATOM     19  C   UNL     1      10.268  12.206  18.082  0.00  0.00    +0.000 A 
ATOM     20  C   UNL     1      10.170  12.907  19.283  0.00  0.00    +0.000 A 
ATOM     21  F   UNL     1      10.563  14.190  19.308  0.00  0.00    +0.000 F 
ATOM     22  C   UNL     1       9.684  12.289  20.431  0.00  0.00    +0.000 A 
ATOM     23 CL   UNL     1       9.626  13.140  21.926  0.00  0.00    +0.000 Cl
ATOM     24  C   UNL     1       9.260  10.965  20.374  0.00  0.00    +0.000 A 
ENDBRANCH  15  17
ENDBRANCH   1  13
TORSDOF 3
ENDMDL
MODEL 3
REMARK VINA RESULT:      -7.5      5.973      7.212
REMARK  Name = 
REMARK  4 active torsions:
REMARK  status: ('A' for Active; 'I' for Inactive)
REMARK    1  A    between atoms: C_1  and  N_2
REMARK    2  A    between atoms: N_8  and  C_9
REMARK    3  A    between atoms: C_9  and  C_10
REMARK    4  A    between atoms: N_12  and  C_13
REMARK                            x       y       z     vdW  Elec       q    Type
REMARK                         _______ _______ _______ _____ _____    ______ ____
ROOT
ATOM      1  C   UNL     1       4.890   5.923  18.197  0.00  0.00    +0.000 C 
ENDROOT
BRANCH   1   9
ATOM      2  C   UNL     1       0.671   2.039  18.588  0.00  0.00    +0.000 C 
ATOM      3  N   UNL     1       1.628   2.700  19.480  0.00  0.00    +0.000 NA
ATOM      4  C   UNL     1       1.198   2.508  20.877  0.00  0.00    +0.000 C 
ATOM      5  C   UNL     1       2.170   3.135  21.874  0.00  0.00    +0.000 C 
ATOM      6  C   UNL     1       2.369   4.616  21.582  0.00  0.00    +0.000 C 
ATOM      7  C   UNL     1       2.823   4.780  20.130  0.00  0.00    +0.000 C 
ATOM      8  C   UNL     1       3.059   6.258  19.776  0.00  0.00    +0.000 C 
ATOM      9  N   UNL     1       3.522   6.459  18.391  0.00  0.00    +0.000 NA
ATOM     10  C   UNL     1       2.540   5.868  17.465  0.00  0.00    +0.000 C 
ATOM     11  C   UNL     1       2.262   4.384  17.711  0.00  0.00    +0.000 C 
ATOM     12  C   UNL     1       1.800   4.139  19.161  0.00  0.00    +0.000 C 
ENDBRANCH   1   9
BRANCH   1  13
ATOM     13  C   UNL     1       5.295   5.924  16.721  0.00  0.00    +0.000 C 
ATOM     14  O   UNL     1       5.251   6.952  16.040  0.00  0.00    +0.000 OA
ATOM     15  N   UNL     1       5.668   4.684  16.230  0.00  0.00    +0.000 N 
ATOM     16  H   UNL     1       5.263   3.882  16.695  0.00  0.00    +0.000 HD
BRANCH  15  17
ATOM     17  C   UNL     1       6.092   4.523  14.896  0.00  0.00    +0.000 A 
ATOM     18  C   UNL     1       7.294   5.116  14.510  0.00  0.00    +0.000 A 
ATOM     19  C   UNL     1       7.760   4.942  13.206  0.00  0.00    +0.000 A 
ATOM     20  C   UNL     1       6.984   4.239  12.285  0.00  0.00    +0.000 A 
ATOM     21  F   UNL     1       7.437   4.117  11.028  0.00  0.00    +0.000 F 
ATOM     22  C   UNL     1       5.764   3.684  12.659  0.00  0.00    +0.000 A 
ATOM     23 CL   UNL     1       4.780   2.872  11.502  0.00  0.00    +0.000 Cl
ATOM     24  C   UNL     1       5.327   3.804  13.974  0.00  0.00    +0.000 A 
ENDBRANCH  15  17
ENDBRANCH   1  13
TORSDOF 3
ENDMDL
MODEL 4
REMARK VINA RESULT:      -7.4      6.388      7.407
REMARK  Name = 
REMARK  4 active torsions:
REMARK  status: ('A' for Active; 'I' for Inactive)
REMARK    1  A    between atoms: C_1  and  N_2
REMARK    2  A    between atoms: N_8  and  C_9
REMARK    3  A    between atoms: C_9  and  C_10
REMARK    4  A    between atoms: N_12  and  C_13
REMARK                            x       y       z     vdW  Elec       q    Type
REMARK                         _______ _______ _______ _____ _____    ______ ____
ROOT
ATOM      1  C   UNL     1       3.478   6.951  18.356  0.00  0.00    +0.000 C 
ENDROOT
BRANCH   1   9
ATOM      2  C   UNL     1       4.718   1.717  20.383  0.00  0.00    +0.000 C 
ATOM      3  N   UNL     1       3.688   2.743  20.573  0.00  0.00    +0.000 NA
ATOM      4  C   UNL     1       2.532   2.142  21.264  0.00  0.00    +0.000 C 
ATOM      5  C   UNL     1       1.427   3.160  21.537  0.00  0.00    +0.000 C 
ATOM      6  C   UNL     1       0.980   3.836  20.248  0.00  0.00    +0.000 C 
ATOM      7  C   UNL     1       2.199   4.456  19.562  0.00  0.00    +0.000 C 
ATOM      8  C   UNL     1       1.809   5.172  18.257  0.00  0.00    +0.000 C 
ATOM      9  N   UNL     1       2.953   5.805  17.576  0.00  0.00    +0.000 NA
ATOM     10  C   UNL     1       3.977   4.781  17.304  0.00  0.00    +0.000 C 
ATOM     11  C   UNL     1       4.461   4.034  18.548  0.00  0.00    +0.000 C 
ATOM     12  C   UNL     1       3.282   3.382  19.297  0.00  0.00    +0.000 C 
ENDBRANCH   1   9
BRANCH   1  13
ATOM     13  C   UNL     1       2.358   7.898  18.792  0.00  0.00    +0.000 C 
ATOM     14  O   UNL     1       1.890   7.864  19.934  0.00  0.00    +0.000 OA
ATOM     15  N   UNL     1       1.908   8.748  17.795  0.00  0.00    +0.000 N 
ATOM     16  H   UNL     1       2.018   8.415  16.846  0.00  0.00    +0.000 HD
BRANCH  15  17
ATOM     17  C   UNL     1       0.899   9.698  18.044  0.00  0.00    +0.000 A 
ATOM     18  C   UNL     1       1.261  10.904  18.647  0.00  0.00    +0.000 A 
ATOM     19  C   UNL     1       0.289  11.880  18.872  0.00  0.00    +0.000 A 
ATOM     20  C   UNL     1      -1.042  11.612  18.558  0.00  0.00    +0.000 A 
ATOM     21  F   UNL     1      -1.962  12.554  18.818  0.00  0.00    +0.000 F 
ATOM     22  C   UNL     1      -1.411  10.392  17.998  0.00  0.00    +0.000 A 
ATOM     23 CL   UNL     1      -3.065  10.042  17.673  0.00  0.00    +0.000 Cl
ATOM     24  C   UNL     1      -0.436   9.441  17.717  0.00  0.00    +0.000 A 
ENDBRANCH  15  17
ENDBRANCH   1  13
TORSDOF 3
ENDMDL
MODEL 5
REMARK VINA RESULT:      -7.3      5.709      7.692
REMARK  Name = 
REMARK  4 active torsions:
REMARK  status: ('A' for Active; 'I' for Inactive)
REMARK    1  A    between atoms: C_1  and  N_2
REMARK    2  A    between atoms: N_8  and  C_9
REMARK    3  A    between atoms: C_9  and  C_10
REMARK    4  A    between atoms: N_12  and  C_13
REMARK                            x       y       z     vdW  Elec       q    Type
REMARK                         _______ _______ _______ _____ _____    ______ ____
ROOT
ATOM      1  C   UNL     1       2.609   6.720  19.018  0.00  0.00    +0.000 C 
ENDROOT
BRANCH   1   9
ATOM      2  C   UNL     1       6.020   3.953  15.310  0.00  0.00    +0.000 C 
ATOM      3  N   UNL     1       6.162   4.777  16.514  0.00  0.00    +0.000 NA
ATOM      4  C   UNL     1       7.525   4.614  17.051  0.00  0.00    +0.000 C 
ATOM      5  C   UNL     1       7.767   5.476  18.289  0.00  0.00    +0.000 C 
ATOM      6  C   UNL     1       6.735   5.180  19.368  0.00  0.00    +0.000 C 
ATOM      7  C   UNL     1       5.334   5.367  18.782  0.00  0.00    +0.000 C 
ATOM      8  C   UNL     1       4.242   5.099  19.832  0.00  0.00    +0.000 C 
ATOM      9  N   UNL     1       2.876   5.292  19.313  0.00  0.00    +0.000 NA
ATOM     10  C   UNL     1       2.677   4.419  18.144  0.00  0.00    +0.000 C 
ATOM     11  C   UNL     1       3.694   4.635  17.022  0.00  0.00    +0.000 C 
ATOM     12  C   UNL     1       5.136   4.464  17.540  0.00  0.00    +0.000 C 
ENDBRANCH   1   9
BRANCH   1  13
ATOM     13  C   UNL     1       1.712   7.359  20.080  0.00  0.00    +0.000 C 
ATOM     14  O   UNL     1       1.255   6.703  21.020  0.00  0.00    +0.000 OA
ATOM     15  N   UNL     1       1.440   8.700  19.867  0.00  0.00    +0.000 N 
ATOM     16  H   UNL     1       1.472   9.012  18.905  0.00  0.00    +0.000 HD
BRANCH  15  17
ATOM     17  C   UNL     1       0.650   9.439  20.770  0.00  0.00    +0.000 A 
ATOM     18  C   UNL     1       0.692   9.092  22.121  0.00  0.00    +0.000 A 
ATOM     19  C   UNL     1      -0.051   9.829  23.044  0.00  0.00    +0.000 A 
ATOM     20  C   UNL     1      -0.879  10.858  22.598  0.00  0.00    +0.000 A 
ATOM     21  F   UNL     1      -1.609  11.528  23.502  0.00  0.00    +0.000 F 
ATOM     22  C   UNL     1      -0.954  11.176  21.245  0.00  0.00    +0.000 A 
ATOM     23 CL   UNL     1      -2.027  12.404  20.693  0.00  0.00    +0.000 Cl
ATOM     24  C   UNL     1      -0.169  10.482  20.330  0.00  0.00    +0.000 A 
ENDBRANCH  15  17
ENDBRANCH   1  13
TORSDOF 3
ENDMDL
MODEL 6
REMARK VINA RESULT:      -7.2      6.257      7.267
REMARK  Name = 
REMARK  4 active torsions:
REMARK  status: ('A' for Active; 'I' for Inactive)
REMARK    1  A    between atoms: C_1  and  N_2
REMARK    2  A    between atoms: N_8  and  C_9
REMARK    3  A    between atoms: C_9  and  C_10
REMARK    4  A    between atoms: N_12  and  C_13
REMARK                            x       y       z     vdW  Elec       q    Type
REMARK                         _______ _______ _______ _____ _____    ______ ____
ROOT
ATOM      1  C   UNL     1       3.582   6.855  18.165  0.00  0.00    +0.000 C 
ENDROOT
BRANCH   1   9
ATOM      2  C   UNL     1       4.702   1.705  20.459  0.00  0.00    +0.000 C 
ATOM      3  N   UNL     1       3.685   2.755  20.582  0.00  0.00    +0.000 NA
ATOM      4  C   UNL     1       2.509   2.206  21.281  0.00  0.00    +0.000 C 
ATOM      5  C   UNL     1       1.416   3.253  21.485  0.00  0.00    +0.000 C 
ATOM      6  C   UNL     1       1.001   3.874  20.158  0.00  0.00    +0.000 C 
ATOM      7  C   UNL     1       2.242   4.441  19.465  0.00  0.00    +0.000 C 
ATOM      8  C   UNL     1       1.886   5.100  18.122  0.00  0.00    +0.000 C 
ATOM      9  N   UNL     1       3.051   5.681  17.431  0.00  0.00    +0.000 NA
ATOM     10  C   UNL     1       4.062   4.630  17.226  0.00  0.00    +0.000 C 
ATOM     11  C   UNL     1       4.513   3.936  18.512  0.00  0.00    +0.000 C 
ATOM     12  C   UNL     1       3.311   3.339  19.270  0.00  0.00    +0.000 C 
ENDBRANCH   1   9
BRANCH   1  13
ATOM     13  C   UNL     1       2.525   7.952  18.317  0.00  0.00    +0.000 C 
ATOM     14  O   UNL     1       2.153   8.629  17.355  0.00  0.00    +0.000 OA
ATOM     15  N   UNL     1       2.069   8.130  19.613  0.00  0.00    +0.000 N 
ATOM     16  H   UNL     1       2.713   7.871  20.349  0.00  0.00    +0.000 HD
BRANCH  15  17
ATOM     17  C   UNL     1       1.077   9.083  19.914  0.00  0.00    +0.000 A 
ATOM     18  C   UNL     1       0.607   9.896  18.882  0.00  0.00    +0.000 A 
ATOM     19  C   UNL     1      -0.403  10.824  19.142  0.00  0.00    +0.000 A 
ATOM     20  C   UNL     1      -0.879  10.978  20.442  0.00  0.00    +0.000 A 
ATOM     21  F   UNL     1      -1.824  11.902  20.672  0.00  0.00    +0.000 F 
ATOM     22  C   UNL     1      -0.379  10.197  21.481  0.00  0.00    +0.000 A 
ATOM     23 CL   UNL     1      -0.924  10.436  23.097  0.00  0.00    +0.000 Cl
ATOM     24  C   UNL     1       0.584   9.230  21.214  0.00  0.00    +0.000 A 
ENDBRANCH  15  17
ENDBRANCH   1  13
TORSDOF 3
ENDMDL
MODEL 7
REMARK VINA RESULT:      -7.2      6.034      7.049
REMARK  Name = 
REMARK  4 active torsions:
REMARK  status: ('A' for Active; 'I' for Inactive)
REMARK    1  A    between atoms: C_1  and  N_2
REMARK    2  A    between atoms: N_8  and  C_9
REMARK    3  A    between atoms: C_9  and  C_10
REMARK    4  A    between atoms: N_12  and  C_13
REMARK                            x       y       z     vdW  Elec       q    Type
REMARK                         _______ _______ _______ _____ _____    ______ ____
ROOT
ATOM      1  C   UNL     1       3.513   6.911  18.300  0.00  0.00    +0.000 C 
ENDROOT
BRANCH   1   9
ATOM      2  C   UNL     1       4.761   1.689  20.353  0.00  0.00    +0.000 C 
ATOM      3  N   UNL     1       3.758   2.736  20.574  0.00  0.00    +0.000 NA
ATOM      4  C   UNL     1       2.627   2.166  21.329  0.00  0.00    +0.000 C 
ATOM      5  C   UNL     1       1.553   3.207  21.636  0.00  0.00    +0.000 C 
ATOM      6  C   UNL     1       1.056   3.871  20.359  0.00  0.00    +0.000 C 
ATOM      7  C   UNL     1       2.251   4.458  19.606  0.00  0.00    +0.000 C 
ATOM      8  C   UNL     1       1.812   5.160  18.310  0.00  0.00    +0.000 C 
ATOM      9  N   UNL     1       2.933   5.762  17.565  0.00  0.00    +0.000 NA
ATOM     10  C   UNL     1       3.925   4.717  17.262  0.00  0.00    +0.000 C 
ATOM     11  C   UNL     1       4.455   3.981  18.494  0.00  0.00    +0.000 C 
ATOM     12  C   UNL     1       3.303   3.362  19.308  0.00  0.00    +0.000 C 
ENDBRANCH   1   9
BRANCH   1  13
ATOM     13  C   UNL     1       2.432   7.892  18.761  0.00  0.00    +0.000 C 
ATOM     14  O   UNL     1       1.953   7.838  19.897  0.00  0.00    +0.000 OA
ATOM     15  N   UNL     1       2.028   8.794  17.791  0.00  0.00    +0.000 N 
ATOM     16  H   UNL     1       2.131   8.490  16.832  0.00  0.00    +0.000 HD
BRANCH  15  17
ATOM     17  C   UNL     1       1.059   9.778  18.067  0.00  0.00    +0.000 A 
ATOM     18  C   UNL     1      -0.276   9.490  17.778  0.00  0.00    +0.000 A 
ATOM     19  C   UNL     1      -1.263  10.430  18.074  0.00  0.00    +0.000 A 
ATOM     20  C   UNL     1      -0.899  11.673  18.589  0.00  0.00    +0.000 A 
ATOM     21  F   UNL     1      -1.864  12.573  18.832  0.00  0.00    +0.000 F 
ATOM     22  C   UNL     1       0.437  11.978  18.836  0.00  0.00    +0.000 A 
ATOM     23 CL   UNL     1       0.887  13.537  19.411  0.00  0.00    +0.000 Cl
ATOM     24  C   UNL     1       1.417  11.020  18.598  0.00  0.00    +0.000 A 
ENDBRANCH  15  17
ENDBRANCH   1  13
TORSDOF 3
ENDMDL
MODEL 8
REMARK VINA RESULT:      -7.1      6.142      8.794
REMARK  Name = 
REMARK  4 active torsions:
REMARK  status: ('A' for Active; 'I' for Inactive)
REMARK    1  A    between atoms: C_1  and  N_2
REMARK    2  A    between atoms: N_8  and  C_9
REMARK    3  A    between atoms: C_9  and  C_10
REMARK    4  A    between atoms: N_12  and  C_13
REMARK                            x       y       z     vdW  Elec       q    Type
REMARK                         _______ _______ _______ _____ _____    ______ ____
ROOT
ATOM      1  C   UNL     1       1.408   9.133  19.452  0.00  0.00    +0.000 C 
ENDROOT
BRANCH   1   9
ATOM      2  C   UNL     1      -1.038  13.175  22.725  0.00  0.00    +0.000 C 
ATOM      3  N   UNL     1       0.209  12.987  21.977  0.00  0.00    +0.000 NA
ATOM      4  C   UNL     1       0.873  14.292  21.811  0.00  0.00    +0.000 C 
ATOM      5  C   UNL     1       2.206  14.175  21.074  0.00  0.00    +0.000 C 
ATOM      6  C   UNL     1       2.022  13.500  19.721  0.00  0.00    +0.000 C 
ATOM      7  C   UNL     1       1.339  12.146  19.930  0.00  0.00    +0.000 C 
ATOM      8  C   UNL     1       1.140  11.404  18.598  0.00  0.00    +0.000 C 
ATOM      9  N   UNL     1       0.507  10.082  18.757  0.00  0.00    +0.000 NA
ATOM     10  C   UNL     1      -0.787  10.248  19.441  0.00  0.00    +0.000 C 
ATOM     11  C   UNL     1      -0.692  10.946  20.799  0.00  0.00    +0.000 C 
ATOM     12  C   UNL     1      -0.010  12.322  20.669  0.00  0.00    +0.000 C 
ENDBRANCH   1   9
BRANCH   1  13
ATOM     13  C   UNL     1       2.172   8.250  18.462  0.00  0.00    +0.000 C 
ATOM     14  O   UNL     1       2.338   8.591  17.287  0.00  0.00    +0.000 OA
ATOM     15  N   UNL     1       2.612   7.048  18.990  0.00  0.00    +0.000 N 
ATOM     16  H   UNL     1       2.073   6.680  19.763  0.00  0.00    +0.000 HD
BRANCH  15  17
ATOM     17  C   UNL     1       3.353   6.136  18.214  0.00  0.00    +0.000 A 
ATOM     18  C   UNL     1       2.775   4.900  17.916  0.00  0.00    +0.000 A 
ATOM     19  C   UNL     1       3.469   3.990  17.118  0.00  0.00    +0.000 A 
ATOM     20  C   UNL     1       4.758   4.296  16.686  0.00  0.00    +0.000 A 
ATOM     21  F   UNL     1       5.418   3.389  15.950  0.00  0.00    +0.000 F 
ATOM     22  C   UNL     1       5.352   5.510  17.019  0.00  0.00    +0.000 A 
ATOM     23 CL   UNL     1       6.969   5.855  16.538  0.00  0.00    +0.000 Cl
ATOM     24  C   UNL     1       4.639   6.444  17.764  0.00  0.00    +0.000 A 
ENDBRANCH  15  17
ENDBRANCH   1  13
TORSDOF 3
ENDMDL
MODEL 9
REMARK VINA RESULT:      -7.1      6.575      9.576
REMARK  Name = 
REMARK  4 active torsions:
REMARK  status: ('A' for Active; 'I' for Inactive)
REMARK    1  A    between atoms: C_1  and  N_2
REMARK    2  A    between atoms: N_8  and  C_9
REMARK    3  A    between atoms: C_9  and  C_10
REMARK    4  A    between atoms: N_12  and  C_13
REMARK                            x       y       z     vdW  Elec       q    Type
REMARK                         _______ _______ _______ _____ _____    ______ ____
ROOT
ATOM      1  C   UNL     1       1.278   8.840  21.242  0.00  0.00    +0.000 C 
ENDROOT
BRANCH   1   9
ATOM      2  C   UNL     1      -1.153  13.629  23.291  0.00  0.00    +0.000 C 
ATOM      3  N   UNL     1      -0.631  13.133  22.014  0.00  0.00    +0.000 NA
ATOM      4  C   UNL     1      -1.113  14.003  20.926  0.00  0.00    +0.000 C 
ATOM      5  C   UNL     1      -0.578  13.575  19.561  0.00  0.00    +0.000 C 
ATOM      6  C   UNL     1      -0.927  12.122  19.270  0.00  0.00    +0.000 C 
ATOM      7  C   UNL     1      -0.405  11.247  20.412  0.00  0.00    +0.000 C 
ATOM      8  C   UNL     1      -0.712   9.759  20.168  0.00  0.00    +0.000 C 
ATOM      9  N   UNL     1      -0.203   8.878  21.235  0.00  0.00    +0.000 NA
ATOM     10  C   UNL     1      -0.771   9.306  22.524  0.00  0.00    +0.000 C 
ATOM     11  C   UNL     1      -0.488  10.767  22.878  0.00  0.00    +0.000 C 
ATOM     12  C   UNL     1      -0.986  11.713  21.769  0.00  0.00    +0.000 C 
ENDBRANCH   1   9
BRANCH   1  13
ATOM     13  C   UNL     1       1.823   7.816  20.243  0.00  0.00    +0.000 C 
ATOM     14  O   UNL     1       2.064   8.121  19.072  0.00  0.00    +0.000 OA
ATOM     15  N   UNL     1       1.978   6.541  20.760  0.00  0.00    +0.000 N 
ATOM     16  H   UNL     1       1.369   6.298  21.531  0.00  0.00    +0.000 HD
BRANCH  15  17
ATOM     17  C   UNL     1       2.494   5.491  19.975  0.00  0.00    +0.000 A 
ATOM     18  C   UNL     1       1.636   4.449  19.621  0.00  0.00    +0.000 A 
ATOM     19  C   UNL     1       2.107   3.414  18.813  0.00  0.00    +0.000 A 
ATOM     20  C   UNL     1       3.446   3.396  18.427  0.00  0.00    +0.000 A 
ATOM     21  F   UNL     1       3.883   2.371  17.680  0.00  0.00    +0.000 F 
ATOM     22  C   UNL     1       4.313   4.413  18.816  0.00  0.00    +0.000 A 
ATOM     23 CL   UNL     1       5.981   4.352  18.392  0.00  0.00    +0.000 Cl
ATOM     24  C   UNL     1       3.832   5.477  19.572  0.00  0.00    +0.000 A 
ENDBRANCH  15  17
ENDBRANCH   1  13
TORSDOF 3
ENDMDL
