MODEL 1
REMARK VINA RESULT:      -8.2      0.000      0.000
REMARK  Name = 
REMARK  11 active torsions:
REMARK  status: ('A' for Active; 'I' for Inactive)
REMARK    1  A    between atoms: C_2  and  C_3
REMARK    2  A    between atoms: C_3  and  C_4
REMARK    3  A    between atoms: C_4  and  C_5
REMARK    4  A    between atoms: C_5  and  C_6
REMARK    5  A    between atoms: C_6  and  C_7
REMARK    6  A    between atoms: C_7  and  C_8
REMARK    7  A    between atoms: C_8  and  N_9
REMARK    8  A    between atoms: C_11  and  C_12
REMARK    9  A    between atoms: N_20  and  C_21
REMARK   10  A    between atoms: C_26  and  C_27
REMARK   11  A    between atoms: C_27  and  C_28
REMARK                            x       y       z     vdW  Elec       q    Type
REMARK                         _______ _______ _______ _____ _____    ______ ____
ROOT
ATOM      1  O   UNL     1       8.054   6.816  18.458  0.00  0.00    +0.000 OA
ATOM      2  C   UNL     1       7.524   7.626  17.698  0.00  0.00    +0.000 C 
ATOM      3  N   UNL     1       6.809   7.299  16.551  0.00  0.00    +0.000 N 
ATOM      4  H   UNL     1       6.642   8.033  15.874  0.00  0.00    +0.000 HD
ENDROOT
BRANCH   3   5
ATOM      5  C   UNL     1       6.312   5.999  16.241  0.00  0.00    +0.000 A 
ATOM      6  C   UNL     1       7.021   5.162  15.363  0.00  0.00    +0.000 A 
ATOM      7  C   UNL     1       6.615   3.856  15.093  0.00  0.00    +0.000 A 
ATOM      8  C   UNL     1       5.500   3.338  15.731  0.00  0.00    +0.000 A 
ATOM      9  C   UNL     1       4.770   4.147  16.603  0.00  0.00    +0.000 A 
ATOM     10  C   UNL     1       5.135   5.491  16.843  0.00  0.00    +0.000 A 
BRANCH  10  11
ATOM     11  C   UNL     1       4.142   6.329  17.626  0.00  0.00    +0.000 C 
BRANCH  11  12
ATOM     12  C   UNL     1       3.092   5.633  18.464  0.00  0.00    +0.000 A 
ATOM     13  C   UNL     1       2.058   4.880  17.899  0.00  0.00    +0.000 A 
ATOM     14  C   UNL     1       1.261   4.057  18.703  0.00  0.00    +0.000 A 
ATOM     15  C   UNL     1       1.475   3.992  20.077  0.00  0.00    +0.000 A 
ATOM     16  C   UNL     1       2.452   4.790  20.663  0.00  0.00    +0.000 A 
ATOM     17  C   UNL     1       3.256   5.607  19.862  0.00  0.00    +0.000 A 
ENDBRANCH  11  12
ENDBRANCH  10  11
ENDBRANCH   3   5
BRANCH   2  18
ATOM     18  C   UNL     1       7.628   9.122  17.975  0.00  0.00    +0.000 C 
BRANCH  18  19
ATOM     19  C   UNL     1       8.968   9.443  18.660  0.00  0.00    +0.000 C 
BRANCH  19  20
ATOM     20  C   UNL     1       9.442  10.875  18.416  0.00  0.00    +0.000 C 
BRANCH  20  21
ATOM     21  C   UNL     1      10.656  11.214  19.290  0.00  0.00    +0.000 C 
BRANCH  21  22
ATOM     22  C   UNL     1      10.454  12.538  20.025  0.00  0.00    +0.000 C 
BRANCH  22  23
ATOM     23  C   UNL     1      10.918  13.723  19.182  0.00  0.00    +0.000 C 
BRANCH  23  24
ATOM     24  N   UNL     1       9.801  14.539  18.748  0.00  0.00    +0.000 N 
ATOM     25  C   UNL     1       8.488  14.390  19.079  0.00  0.00    +0.000 A 
ATOM     26  C   UNL     1       7.858  15.407  18.395  0.00  0.00    +0.000 A 
ATOM     27  N   UNL     1       8.799  16.118  17.691  0.00  0.00    +0.000 NA
ATOM     28  N   UNL     1       9.989  15.572  17.916  0.00  0.00    +0.000 NA
BRANCH  26  29
ATOM     29  C   UNL     1       6.442  15.704  18.385  0.00  0.00    +0.000 A 
ATOM     30  C   UNL     1       5.492  14.821  17.852  0.00  0.00    +0.000 A 
ATOM     31  C   UNL     1       4.140  15.163  17.862  0.00  0.00    +0.000 A 
ATOM     32  C   UNL     1       3.773  16.382  18.407  0.00  0.00    +0.000 A 
ATOM     33  N   UNL     1       4.651  17.259  18.931  0.00  0.00    +0.000 NA
ATOM     34  C   UNL     1       5.963  16.898  18.908  0.00  0.00    +0.000 A 
ENDBRANCH  26  29
ENDBRANCH  23  24
ENDBRANCH  22  23
ENDBRANCH  21  22
ENDBRANCH  20  21
ENDBRANCH  19  20
ENDBRANCH  18  19
ENDBRANCH   2  18
TORSDOF 11
ENDMDL
MODEL 2
REMARK VINA RESULT:      -8.2      5.776     10.289
REMARK  Name = 
REMARK  11 active torsions:
REMARK  status: ('A' for Active; 'I' for Inactive)
REMARK    1  A    between atoms: C_2  and  C_3
REMARK    2  A    between atoms: C_3  and  C_4
REMARK    3  A    between atoms: C_4  and  C_5
REMARK    4  A    between atoms: C_5  and  C_6
REMARK    5  A    between atoms: C_6  and  C_7
REMARK    6  A    between atoms: C_7  and  C_8
REMARK    7  A    between atoms: C_8  and  N_9
REMARK    8  A    between atoms: C_11  and  C_12
REMARK    9  A    between atoms: N_20  and  C_21
REMARK   10  A    between atoms: C_26  and  C_27
REMARK   11  A    between atoms: C_27  and  C_28
REMARK                            x       y       z     vdW  Elec       q    Type
REMARK                         _______ _______ _______ _____ _____    ______ ____
ROOT
ATOM      1  O   UNL     1       1.989   9.527  17.487  0.00  0.00    +0.000 OA
ATOM      2  C   UNL     1       1.754   8.847  18.486  0.00  0.00    +0.000 C 
ATOM      3  N   UNL     1       1.302   9.341  19.704  0.00  0.00    +0.000 N 
ATOM      4  H   UNL     1       1.389   8.744  20.517  0.00  0.00    +0.000 HD
ENDROOT
BRANCH   3   5
ATOM      5  C   UNL     1       0.748  10.640  19.903  0.00  0.00    +0.000 A 
ATOM      6  C   UNL     1       1.488  11.631  20.569  0.00  0.00    +0.000 A 
ATOM      7  C   UNL     1       1.018  12.934  20.717  0.00  0.00    +0.000 A 
ATOM      8  C   UNL     1      -0.200  13.292  20.163  0.00  0.00    +0.000 A 
ATOM      9  C   UNL     1      -0.963  12.329  19.502  0.00  0.00    +0.000 A 
ATOM     10  C   UNL     1      -0.527  10.989  19.394  0.00  0.00    +0.000 A 
BRANCH  10  11
ATOM     11  C   UNL     1      -1.538   9.993  18.858  0.00  0.00    +0.000 C 
BRANCH  11  12
ATOM     12  C   UNL     1      -2.292  10.321  17.588  0.00  0.00    +0.000 A 
ATOM     13  C   UNL     1      -2.005   9.709  16.364  0.00  0.00    +0.000 A 
ATOM     14  C   UNL     1      -2.876   9.853  15.279  0.00  0.00    +0.000 A 
ATOM     15  C   UNL     1      -4.031  10.622  15.398  0.00  0.00    +0.000 A 
ATOM     16  C   UNL     1      -4.294  11.296  16.586  0.00  0.00    +0.000 A 
ATOM     17  C   UNL     1      -3.429  11.148  17.675  0.00  0.00    +0.000 A 
ENDBRANCH  11  12
ENDBRANCH  10  11
ENDBRANCH   3   5
BRANCH   2  18
ATOM     18  C   UNL     1       1.961   7.336  18.452  0.00  0.00    +0.000 C 
BRANCH  18  19
ATOM     19  C   UNL     1       2.439   6.835  19.826  0.00  0.00    +0.000 C 
BRANCH  19  20
ATOM     20  C   UNL     1       1.716   5.572  20.293  0.00  0.00    +0.000 C 
BRANCH  20  21
ATOM     21  C   UNL     1       1.409   4.641  19.113  0.00  0.00    +0.000 C 
BRANCH  21  22
ATOM     22  C   UNL     1       1.812   3.201  19.428  0.00  0.00    +0.000 C 
BRANCH  22  23
ATOM     23  C   UNL     1       3.187   3.136  20.087  0.00  0.00    +0.000 C 
BRANCH  23  24
ATOM     24  N   UNL     1       4.226   3.629  19.204  0.00  0.00    +0.000 N 
ATOM     25  C   UNL     1       4.242   3.595  17.842  0.00  0.00    +0.000 A 
ATOM     26  C   UNL     1       5.448   4.174  17.512  0.00  0.00    +0.000 A 
ATOM     27  N   UNL     1       6.101   4.529  18.667  0.00  0.00    +0.000 NA
ATOM     28  N   UNL     1       5.339   4.187  19.700  0.00  0.00    +0.000 NA
BRANCH  26  29
ATOM     29  C   UNL     1       5.980   4.382  16.182  0.00  0.00    +0.000 A 
ATOM     30  C   UNL     1       5.338   3.902  15.032  0.00  0.00    +0.000 A 
ATOM     31  C   UNL     1       5.902   4.125  13.775  0.00  0.00    +0.000 A 
ATOM     32  C   UNL     1       7.093   4.826  13.703  0.00  0.00    +0.000 A 
ATOM     33  N   UNL     1       7.742   5.307  14.782  0.00  0.00    +0.000 NA
ATOM     34  C   UNL     1       7.170   5.074  15.994  0.00  0.00    +0.000 A 
ENDBRANCH  26  29
ENDBRANCH  23  24
ENDBRANCH  22  23
ENDBRANCH  21  22
ENDBRANCH  20  21
ENDBRANCH  19  20
ENDBRANCH  18  19
ENDBRANCH   2  18
TORSDOF 11
ENDMDL
MODEL 3
REMARK VINA RESULT:      -8.0      5.723      9.918
REMARK  Name = 
REMARK  11 active torsions:
REMARK  status: ('A' for Active; 'I' for Inactive)
REMARK    1  A    between atoms: C_2  and  C_3
REMARK    2  A    between atoms: C_3  and  C_4
REMARK    3  A    between atoms: C_4  and  C_5
REMARK    4  A    between atoms: C_5  and  C_6
REMARK    5  A    between atoms: C_6  and  C_7
REMARK    6  A    between atoms: C_7  and  C_8
REMARK    7  A    between atoms: C_8  and  N_9
REMARK    8  A    between atoms: C_11  and  C_12
REMARK    9  A    between atoms: N_20  and  C_21
REMARK   10  A    between atoms: C_26  and  C_27
REMARK   11  A    between atoms: C_27  and  C_28
REMARK                            x       y       z     vdW  Elec       q    Type
REMARK                         _______ _______ _______ _____ _____    ______ ____
ROOT
ATOM      1  O   UNL     1       2.501   6.454  19.368  0.00  0.00    +0.000 OA
ATOM      2  C   UNL     1       2.633   7.385  18.574  0.00  0.00    +0.000 C 
ATOM      3  N   UNL     1       1.959   8.599  18.644  0.00  0.00    +0.000 N 
ATOM      4  H   UNL     1       1.947   9.181  17.815  0.00  0.00    +0.000 HD
ENDROOT
BRANCH   3   5
ATOM      5  C   UNL     1       1.258   9.080  19.789  0.00  0.00    +0.000 A 
ATOM      6  C   UNL     1       1.433   8.460  21.037  0.00  0.00    +0.000 A 
ATOM      7  C   UNL     1       0.830   8.944  22.197  0.00  0.00    +0.000 A 
ATOM      8  C   UNL     1       0.059  10.093  22.142  0.00  0.00    +0.000 A 
ATOM      9  C   UNL     1      -0.141  10.727  20.915  0.00  0.00    +0.000 A 
ATOM     10  C   UNL     1       0.416  10.217  19.721  0.00  0.00    +0.000 A 
BRANCH  10  11
ATOM     11  C   UNL     1      -0.056  10.858  18.430  0.00  0.00    +0.000 C 
BRANCH  11  12
ATOM     12  C   UNL     1      -1.510  10.731  18.033  0.00  0.00    +0.000 A 
ATOM     13  C   UNL     1      -2.506  11.566  18.550  0.00  0.00    +0.000 A 
ATOM     14  C   UNL     1      -3.783  11.581  17.979  0.00  0.00    +0.000 A 
ATOM     15  C   UNL     1      -4.085  10.751  16.902  0.00  0.00    +0.000 A 
ATOM     16  C   UNL     1      -3.127   9.863  16.423  0.00  0.00    +0.000 A 
ATOM     17  C   UNL     1      -1.847   9.851  16.986  0.00  0.00    +0.000 A 
ENDBRANCH  11  12
ENDBRANCH  10  11
ENDBRANCH   3   5
BRANCH   2  18
ATOM     18  C   UNL     1       3.593   7.260  17.395  0.00  0.00    +0.000 C 
BRANCH  18  19
ATOM     19  C   UNL     1       5.031   7.566  17.847  0.00  0.00    +0.000 C 
BRANCH  19  20
ATOM     20  C   UNL     1       6.093   6.939  16.944  0.00  0.00    +0.000 C 
BRANCH  20  21
ATOM     21  C   UNL     1       7.268   6.394  17.765  0.00  0.00    +0.000 C 
BRANCH  21  22
ATOM     22  C   UNL     1       7.503   4.912  17.476  0.00  0.00    +0.000 C 
BRANCH  22  23
ATOM     23  C   UNL     1       6.523   4.383  16.432  0.00  0.00    +0.000 C 
BRANCH  23  24
ATOM     24  N   UNL     1       5.261   3.996  17.033  0.00  0.00    +0.000 N 
ATOM     25  C   UNL     1       4.984   3.850  18.359  0.00  0.00    +0.000 A 
ATOM     26  C   UNL     1       3.662   3.462  18.379  0.00  0.00    +0.000 A 
ATOM     27  N   UNL     1       3.201   3.390  17.087  0.00  0.00    +0.000 NA
ATOM     28  N   UNL     1       4.195   3.719  16.270  0.00  0.00    +0.000 NA
BRANCH  26  29
ATOM     29  C   UNL     1       2.860   3.159  19.545  0.00  0.00    +0.000 A 
ATOM     30  C   UNL     1       1.463   3.281  19.548  0.00  0.00    +0.000 A 
ATOM     31  C   UNL     1       0.741   2.983  20.704  0.00  0.00    +0.000 A 
ATOM     32  C   UNL     1       1.436   2.567  21.826  0.00  0.00    +0.000 A 
ATOM     33  N   UNL     1       2.777   2.432  21.865  0.00  0.00    +0.000 NA
ATOM     34  C   UNL     1       3.455   2.731  20.724  0.00  0.00    +0.000 A 
ENDBRANCH  26  29
ENDBRANCH  23  24
ENDBRANCH  22  23
ENDBRANCH  21  22
ENDBRANCH  20  21
ENDBRANCH  19  20
ENDBRANCH  18  19
ENDBRANCH   2  18
TORSDOF 11
ENDMDL
MODEL 4
REMARK VINA RESULT:      -7.9      5.773      8.520
REMARK  Name = 
REMARK  11 active torsions:
REMARK  status: ('A' for Active; 'I' for Inactive)
REMARK    1  A    between atoms: C_2  and  C_3
REMARK    2  A    between atoms: C_3  and  C_4
REMARK    3  A    between atoms: C_4  and  C_5
REMARK    4  A    between atoms: C_5  and  C_6
REMARK    5  A    between atoms: C_6  and  C_7
REMARK    6  A    between atoms: C_7  and  C_8
REMARK    7  A    between atoms: C_8  and  N_9
REMARK    8  A    between atoms: C_11  and  C_12
REMARK    9  A    between atoms: N_20  and  C_21
REMARK   10  A    between atoms: C_26  and  C_27
REMARK   11  A    between atoms: C_27  and  C_28
REMARK                            x       y       z     vdW  Elec       q    Type
REMARK                         _______ _______ _______ _____ _____    ______ ____
ROOT
ATOM      1  O   UNL     1       0.904   5.636  20.690  0.00  0.00    +0.000 OA
ATOM      2  C   UNL     1       1.838   6.367  20.360  0.00  0.00    +0.000 C 
ATOM      3  N   UNL     1       3.041   5.934  19.815  0.00  0.00    +0.000 N 
ATOM      4  H   UNL     1       3.821   6.579  19.821  0.00  0.00    +0.000 HD
ENDROOT
BRANCH   3   5
ATOM      5  C   UNL     1       3.270   4.637  19.268  0.00  0.00    +0.000 A 
ATOM      6  C   UNL     1       2.933   3.489  20.005  0.00  0.00    +0.000 A 
ATOM      7  C   UNL     1       3.066   2.205  19.480  0.00  0.00    +0.000 A 
ATOM      8  C   UNL     1       3.508   2.038  18.177  0.00  0.00    +0.000 A 
ATOM      9  C   UNL     1       3.858   3.158  17.423  0.00  0.00    +0.000 A 
ATOM     10  C   UNL     1       3.784   4.463  17.960  0.00  0.00    +0.000 A 
BRANCH  10  11
ATOM     11  C   UNL     1       4.402   5.569  17.127  0.00  0.00    +0.000 C 
BRANCH  11  12
ATOM     12  C   UNL     1       5.781   6.080  17.488  0.00  0.00    +0.000 A 
ATOM     13  C   UNL     1       6.232   7.350  17.116  0.00  0.00    +0.000 A 
ATOM     14  C   UNL     1       7.403   7.876  17.673  0.00  0.00    +0.000 A 
ATOM     15  C   UNL     1       8.143   7.134  18.591  0.00  0.00    +0.000 A 
ATOM     16  C   UNL     1       7.746   5.841  18.916  0.00  0.00    +0.000 A 
ATOM     17  C   UNL     1       6.572   5.316  18.367  0.00  0.00    +0.000 A 
ENDBRANCH  11  12
ENDBRANCH  10  11
ENDBRANCH   3   5
BRANCH   2  18
ATOM     18  C   UNL     1       1.732   7.878  20.542  0.00  0.00    +0.000 C 
BRANCH  18  19
ATOM     19  C   UNL     1       1.050   8.205  21.882  0.00  0.00    +0.000 C 
BRANCH  19  20
ATOM     20  C   UNL     1       0.826   9.701  22.095  0.00  0.00    +0.000 C 
BRANCH  20  21
ATOM     21  C   UNL     1      -0.557   9.974  22.700  0.00  0.00    +0.000 C 
BRANCH  21  22
ATOM     22  C   UNL     1      -0.804  11.473  22.858  0.00  0.00    +0.000 C 
BRANCH  22  23
ATOM     23  C   UNL     1      -0.443  12.237  21.587  0.00  0.00    +0.000 C 
BRANCH  23  24
ATOM     24  N   UNL     1      -1.437  12.045  20.548  0.00  0.00    +0.000 N 
ATOM     25  C   UNL     1      -1.268  11.433  19.343  0.00  0.00    +0.000 A 
ATOM     26  C   UNL     1      -2.506  11.534  18.746  0.00  0.00    +0.000 A 
ATOM     27  N   UNL     1      -3.358  12.190  19.600  0.00  0.00    +0.000 NA
ATOM     28  N   UNL     1      -2.688  12.500  20.704  0.00  0.00    +0.000 NA
BRANCH  26  29
ATOM     29  C   UNL     1      -2.884  11.051  17.435  0.00  0.00    +0.000 A 
ATOM     30  C   UNL     1      -2.141  10.080  16.748  0.00  0.00    +0.000 A 
ATOM     31  C   UNL     1      -2.548   9.658  15.482  0.00  0.00    +0.000 A 
ATOM     32  C   UNL     1      -3.691  10.218  14.937  0.00  0.00    +0.000 A 
ATOM     33  N   UNL     1      -4.435  11.151  15.564  0.00  0.00    +0.000 NA
ATOM     34  C   UNL     1      -4.014  11.544  16.796  0.00  0.00    +0.000 A 
ENDBRANCH  26  29
ENDBRANCH  23  24
ENDBRANCH  22  23
ENDBRANCH  21  22
ENDBRANCH  20  21
ENDBRANCH  19  20
ENDBRANCH  18  19
ENDBRANCH   2  18
TORSDOF 11
ENDMDL
MODEL 5
REMARK VINA RESULT:      -7.9      2.280      3.980
REMARK  Name = 
REMARK  11 active torsions:
REMARK  status: ('A' for Active; 'I' for Inactive)
REMARK    1  A    between atoms: C_2  and  C_3
REMARK    2  A    between atoms: C_3  and  C_4
REMARK    3  A    between atoms: C_4  and  C_5
REMARK    4  A    between atoms: C_5  and  C_6
REMARK    5  A    between atoms: C_6  and  C_7
REMARK    6  A    between atoms: C_7  and  C_8
REMARK    7  A    between atoms: C_8  and  N_9
REMARK    8  A    between atoms: C_11  and  C_12
REMARK    9  A    between atoms: N_20  and  C_21
REMARK   10  A    between atoms: C_26  and  C_27
REMARK   11  A    between atoms: C_27  and  C_28
REMARK                            x       y       z     vdW  Elec       q    Type
REMARK                         _______ _______ _______ _____ _____    ______ ____
ROOT
ATOM      1  O   UNL     1       4.571   5.850  17.193  0.00  0.00    +0.000 OA
ATOM      2  C   UNL     1       5.181   5.504  18.206  0.00  0.00    +0.000 C 
ATOM      3  N   UNL     1       4.603   4.929  19.332  0.00  0.00    +0.000 N 
ATOM      4  H   UNL     1       5.143   4.922  20.188  0.00  0.00    +0.000 HD
ENDROOT
BRANCH   3   5
ATOM      5  C   UNL     1       3.292   4.367  19.381  0.00  0.00    +0.000 A 
ATOM      6  C   UNL     1       3.012   3.166  18.709  0.00  0.00    +0.000 A 
ATOM      7  C   UNL     1       1.769   2.542  18.794  0.00  0.00    +0.000 A 
ATOM      8  C   UNL     1       0.778   3.089  19.593  0.00  0.00    +0.000 A 
ATOM      9  C   UNL     1       1.024   4.286  20.267  0.00  0.00    +0.000 A 
ATOM     10  C   UNL     1       2.259   4.962  20.145  0.00  0.00    +0.000 A 
BRANCH  10  11
ATOM     11  C   UNL     1       2.324   6.356  20.738  0.00  0.00    +0.000 C 
BRANCH  11  12
ATOM     12  C   UNL     1       1.816   7.527  19.925  0.00  0.00    +0.000 A 
ATOM     13  C   UNL     1       1.163   8.618  20.507  0.00  0.00    +0.000 A 
ATOM     14  C   UNL     1       0.931   9.782  19.765  0.00  0.00    +0.000 A 
ATOM     15  C   UNL     1       1.332   9.861  18.434  0.00  0.00    +0.000 A 
ATOM     16  C   UNL     1       1.918   8.759  17.821  0.00  0.00    +0.000 A 
ATOM     17  C   UNL     1       2.158   7.597  18.561  0.00  0.00    +0.000 A 
ENDBRANCH  11  12
ENDBRANCH  10  11
ENDBRANCH   3   5
BRANCH   2  18
ATOM     18  C   UNL     1       6.690   5.700  18.298  0.00  0.00    +0.000 C 
BRANCH  18  19
ATOM     19  C   UNL     1       7.121   6.916  17.460  0.00  0.00    +0.000 C 
BRANCH  19  20
ATOM     20  C   UNL     1       8.272   7.702  18.085  0.00  0.00    +0.000 C 
BRANCH  20  21
ATOM     21  C   UNL     1       8.061   9.213  17.928  0.00  0.00    +0.000 C 
BRANCH  21  22
ATOM     22  C   UNL     1       9.055  10.001  18.780  0.00  0.00    +0.000 C 
BRANCH  22  23
ATOM     23  C   UNL     1       9.524  11.267  18.068  0.00  0.00    +0.000 C 
BRANCH  23  24
ATOM     24  N   UNL     1       9.242  12.455  18.850  0.00  0.00    +0.000 N 
ATOM     25  C   UNL     1       8.317  13.420  18.588  0.00  0.00    +0.000 A 
ATOM     26  C   UNL     1       8.471  14.314  19.625  0.00  0.00    +0.000 A 
ATOM     27  N   UNL     1       9.465  13.862  20.458  0.00  0.00    +0.000 NA
ATOM     28  N   UNL     1       9.931  12.718  19.969  0.00  0.00    +0.000 NA
BRANCH  26  29
ATOM     29  C   UNL     1       7.736  15.544  19.833  0.00  0.00    +0.000 A 
ATOM     30  C   UNL     1       7.115  15.851  21.051  0.00  0.00    +0.000 A 
ATOM     31  C   UNL     1       6.412  17.049  21.192  0.00  0.00    +0.000 A 
ATOM     32  C   UNL     1       6.352  17.909  20.109  0.00  0.00    +0.000 A 
ATOM     33  N   UNL     1       6.937  17.653  18.921  0.00  0.00    +0.000 NA
ATOM     34  C   UNL     1       7.615  16.479  18.813  0.00  0.00    +0.000 A 
ENDBRANCH  26  29
ENDBRANCH  23  24
ENDBRANCH  22  23
ENDBRANCH  21  22
ENDBRANCH  20  21
ENDBRANCH  19  20
ENDBRANCH  18  19
ENDBRANCH   2  18
TORSDOF 11
ENDMDL
MODEL 6
REMARK VINA RESULT:      -7.9      6.676      8.997
REMARK  Name = 
REMARK  11 active torsions:
REMARK  status: ('A' for Active; 'I' for Inactive)
REMARK    1  A    between atoms: C_2  and  C_3
REMARK    2  A    between atoms: C_3  and  C_4
REMARK    3  A    between atoms: C_4  and  C_5
REMARK    4  A    between atoms: C_5  and  C_6
REMARK    5  A    between atoms: C_6  and  C_7
REMARK    6  A    between atoms: C_7  and  C_8
REMARK    7  A    between atoms: C_8  and  N_9
REMARK    8  A    between atoms: C_11  and  C_12
REMARK    9  A    between atoms: N_20  and  C_21
REMARK   10  A    between atoms: C_26  and  C_27
REMARK   11  A    between atoms: C_27  and  C_28
REMARK                            x       y       z     vdW  Elec       q    Type
REMARK                         _______ _______ _______ _____ _____    ______ ____
ROOT
ATOM      1  O   UNL     1       2.293   7.364  19.788  0.00  0.00    +0.000 OA
ATOM      2  C   UNL     1       2.296   7.315  18.558  0.00  0.00    +0.000 C 
ATOM      3  N   UNL     1       2.516   6.168  17.803  0.00  0.00    +0.000 N 
ATOM      4  H   UNL     1       2.750   6.284  16.825  0.00  0.00    +0.000 HD
ENDROOT
BRANCH   3   5
ATOM      5  C   UNL     1       2.462   4.835  18.308  0.00  0.00    +0.000 A 
ATOM      6  C   UNL     1       1.446   4.458  19.202  0.00  0.00    +0.000 A 
ATOM      7  C   UNL     1       1.309   3.148  19.659  0.00  0.00    +0.000 A 
ATOM      8  C   UNL     1       2.170   2.166  19.197  0.00  0.00    +0.000 A 
ATOM      9  C   UNL     1       3.194   2.510  18.315  0.00  0.00    +0.000 A 
ATOM     10  C   UNL     1       3.382   3.844  17.887  0.00  0.00    +0.000 A 
BRANCH  10  11
ATOM     11  C   UNL     1       4.656   4.130  17.115  0.00  0.00    +0.000 C 
BRANCH  11  12
ATOM     12  C   UNL     1       5.659   5.108  17.685  0.00  0.00    +0.000 A 
ATOM     13  C   UNL     1       6.314   4.889  18.901  0.00  0.00    +0.000 A 
ATOM     14  C   UNL     1       7.405   5.684  19.271  0.00  0.00    +0.000 A 
ATOM     15  C   UNL     1       7.841   6.714  18.441  0.00  0.00    +0.000 A 
ATOM     16  C   UNL     1       7.155   6.990  17.262  0.00  0.00    +0.000 A 
ATOM     17  C   UNL     1       6.070   6.193  16.886  0.00  0.00    +0.000 A 
ENDBRANCH  11  12
ENDBRANCH  10  11
ENDBRANCH   3   5
BRANCH   2  18
ATOM     18  C   UNL     1       2.053   8.576  17.737  0.00  0.00    +0.000 C 
BRANCH  18  19
ATOM     19  C   UNL     1       1.574   9.719  18.649  0.00  0.00    +0.000 C 
BRANCH  19  20
ATOM     20  C   UNL     1       0.071   9.980  18.551  0.00  0.00    +0.000 C 
BRANCH  20  21
ATOM     21  C   UNL     1      -0.544  10.204  19.938  0.00  0.00    +0.000 C 
BRANCH  21  22
ATOM     22  C   UNL     1       0.384  11.029  20.827  0.00  0.00    +0.000 C 
BRANCH  22  23
ATOM     23  C   UNL     1      -0.159  12.439  21.048  0.00  0.00    +0.000 C 
BRANCH  23  24
ATOM     24  N   UNL     1      -1.400  12.420  21.799  0.00  0.00    +0.000 N 
ATOM     25  C   UNL     1      -2.652  12.694  21.338  0.00  0.00    +0.000 A 
ATOM     26  C   UNL     1      -3.452  12.546  22.449  0.00  0.00    +0.000 A 
ATOM     27  N   UNL     1      -2.666  12.195  23.519  0.00  0.00    +0.000 NA
ATOM     28  N   UNL     1      -1.406  12.123  23.105  0.00  0.00    +0.000 NA
BRANCH  26  29
ATOM     29  C   UNL     1      -4.886  12.731  22.522  0.00  0.00    +0.000 A 
ATOM     30  C   UNL     1      -5.705  12.713  21.385  0.00  0.00    +0.000 A 
ATOM     31  C   UNL     1      -7.081  12.905  21.514  0.00  0.00    +0.000 A 
ATOM     32  C   UNL     1      -7.602  13.109  22.781  0.00  0.00    +0.000 A 
ATOM     33  N   UNL     1      -6.851  13.131  23.900  0.00  0.00    +0.000 NA
ATOM     34  C   UNL     1      -5.513  12.941  23.744  0.00  0.00    +0.000 A 
ENDBRANCH  26  29
ENDBRANCH  23  24
ENDBRANCH  22  23
ENDBRANCH  21  22
ENDBRANCH  20  21
ENDBRANCH  19  20
ENDBRANCH  18  19
ENDBRANCH   2  18
TORSDOF 11
ENDMDL
MODEL 7
REMARK VINA RESULT:      -7.8      4.027      4.444
REMARK  Name = 
REMARK  11 active torsions:
REMARK  status: ('A' for Active; 'I' for Inactive)
REMARK    1  A    between atoms: C_2  and  C_3
REMARK    2  A    between atoms: C_3  and  C_4
REMARK    3  A    between atoms: C_4  and  C_5
REMARK    4  A    between atoms: C_5  and  C_6
REMARK    5  A    between atoms: C_6  and  C_7
REMARK    6  A    between atoms: C_7  and  C_8
REMARK    7  A    between atoms: C_8  and  N_9
REMARK    8  A    between atoms: C_11  and  C_12
REMARK    9  A    between atoms: N_20  and  C_21
REMARK   10  A    between atoms: C_26  and  C_27
REMARK   11  A    between atoms: C_27  and  C_28
REMARK                            x       y       z     vdW  Elec       q    Type
REMARK                         _______ _______ _______ _____ _____    ______ ____
ROOT
ATOM      1  O   UNL     1       8.117   6.713  18.421  0.00  0.00    +0.000 OA
ATOM      2  C   UNL     1       7.581   7.546  17.690  0.00  0.00    +0.000 C 
ATOM      3  N   UNL     1       6.813   7.250  16.569  0.00  0.00    +0.000 N 
ATOM      4  H   UNL     1       6.640   7.996  15.905  0.00  0.00    +0.000 HD
ENDROOT
BRANCH   3   5
ATOM      5  C   UNL     1       6.268   5.967  16.266  0.00  0.00    +0.000 A 
ATOM      6  C   UNL     1       6.911   5.126  15.344  0.00  0.00    +0.000 A 
ATOM      7  C   UNL     1       6.458   3.835  15.077  0.00  0.00    +0.000 A 
ATOM      8  C   UNL     1       5.363   3.336  15.762  0.00  0.00    +0.000 A 
ATOM      9  C   UNL     1       4.698   4.150  16.679  0.00  0.00    +0.000 A 
ATOM     10  C   UNL     1       5.109   5.481  16.919  0.00  0.00    +0.000 A 
BRANCH  10  11
ATOM     11  C   UNL     1       4.177   6.332  17.760  0.00  0.00    +0.000 C 
BRANCH  11  12
ATOM     12  C   UNL     1       3.069   5.660  18.541  0.00  0.00    +0.000 A 
ATOM     13  C   UNL     1       2.094   4.866  17.929  0.00  0.00    +0.000 A 
ATOM     14  C   UNL     1       1.243   4.069  18.702  0.00  0.00    +0.000 A 
ATOM     15  C   UNL     1       1.344   4.069  20.091  0.00  0.00    +0.000 A 
ATOM     16  C   UNL     1       2.261   4.907  20.718  0.00  0.00    +0.000 A 
ATOM     17  C   UNL     1       3.119   5.699  19.948  0.00  0.00    +0.000 A 
ENDBRANCH  11  12
ENDBRANCH  10  11
ENDBRANCH   3   5
BRANCH   2  18
ATOM     18  C   UNL     1       7.737   9.035  17.976  0.00  0.00    +0.000 C 
BRANCH  18  19
ATOM     19  C   UNL     1       8.995   9.283  18.827  0.00  0.00    +0.000 C 
BRANCH  19  20
ATOM     20  C   UNL     1       9.307  10.765  19.026  0.00  0.00    +0.000 C 
BRANCH  20  21
ATOM     21  C   UNL     1       9.260  11.147  20.511  0.00  0.00    +0.000 C 
BRANCH  21  22
ATOM     22  C   UNL     1       9.752  12.577  20.728  0.00  0.00    +0.000 C 
BRANCH  22  23
ATOM     23  C   UNL     1       8.596  13.526  21.033  0.00  0.00    +0.000 C 
BRANCH  23  24
ATOM     24  N   UNL     1       8.195  13.449  22.425  0.00  0.00    +0.000 N 
ATOM     25  C   UNL     1       7.129  12.779  22.945  0.00  0.00    +0.000 A 
ATOM     26  C   UNL     1       7.201  13.042  24.295  0.00  0.00    +0.000 A 
ATOM     27  N   UNL     1       8.288  13.845  24.534  0.00  0.00    +0.000 NA
ATOM     28  N   UNL     1       8.890  14.089  23.375  0.00  0.00    +0.000 NA
BRANCH  26  29
ATOM     29  C   UNL     1       6.294  12.577  25.324  0.00  0.00    +0.000 A 
ATOM     30  C   UNL     1       6.107  11.216  25.602  0.00  0.00    +0.000 A 
ATOM     31  C   UNL     1       5.214  10.825  26.600  0.00  0.00    +0.000 A 
ATOM     32  C   UNL     1       4.532  11.809  27.296  0.00  0.00    +0.000 A 
ATOM     33  N   UNL     1       4.684  13.128  27.063  0.00  0.00    +0.000 NA
ATOM     34  C   UNL     1       5.561  13.479  26.084  0.00  0.00    +0.000 A 
ENDBRANCH  26  29
ENDBRANCH  23  24
ENDBRANCH  22  23
ENDBRANCH  21  22
ENDBRANCH  20  21
ENDBRANCH  19  20
ENDBRANCH  18  19
ENDBRANCH   2  18
TORSDOF 11
ENDMDL
MODEL 8
REMARK VINA RESULT:      -7.8      4.393      6.018
REMARK  Name = 
REMARK  11 active torsions:
REMARK  status: ('A' for Active; 'I' for Inactive)
REMARK    1  A    between atoms: C_2  and  C_3
REMARK    2  A    between atoms: C_3  and  C_4
REMARK    3  A    between atoms: C_4  and  C_5
REMARK    4  A    between atoms: C_5  and  C_6
REMARK    5  A    between atoms: C_6  and  C_7
REMARK    6  A    between atoms: C_7  and  C_8
REMARK    7  A    between atoms: C_8  and  N_9
REMARK    8  A    between atoms: C_11  and  C_12
REMARK    9  A    between atoms: N_20  and  C_21
REMARK   10  A    between atoms: C_26  and  C_27
REMARK   11  A    between atoms: C_27  and  C_28
REMARK                            x       y       z     vdW  Elec       q    Type
REMARK                         _______ _______ _______ _____ _____    ______ ____
ROOT
ATOM      1  O   UNL     1       1.765   6.490  17.613  0.00  0.00    +0.000 OA
ATOM      2  C   UNL     1       2.460   7.504  17.676  0.00  0.00    +0.000 C 
ATOM      3  N   UNL     1       3.851   7.524  17.670  0.00  0.00    +0.000 N 
ATOM      4  H   UNL     1       4.312   8.370  17.981  0.00  0.00    +0.000 HD
ENDROOT
BRANCH   3   5
ATOM      5  C   UNL     1       4.682   6.432  17.282  0.00  0.00    +0.000 A 
ATOM      6  C   UNL     1       5.170   6.347  15.967  0.00  0.00    +0.000 A 
ATOM      7  C   UNL     1       6.047   5.341  15.566  0.00  0.00    +0.000 A 
ATOM      8  C   UNL     1       6.493   4.409  16.489  0.00  0.00    +0.000 A 
ATOM      9  C   UNL     1       6.020   4.462  17.800  0.00  0.00    +0.000 A 
ATOM     10  C   UNL     1       5.085   5.441  18.209  0.00  0.00    +0.000 A 
BRANCH  10  11
ATOM     11  C   UNL     1       4.478   5.258  19.587  0.00  0.00    +0.000 C 
BRANCH  11  12
ATOM     12  C   UNL     1       3.256   4.380  19.743  0.00  0.00    +0.000 A 
ATOM     13  C   UNL     1       2.292   4.603  20.731  0.00  0.00    +0.000 A 
ATOM     14  C   UNL     1       1.066   3.931  20.688  0.00  0.00    +0.000 A 
ATOM     15  C   UNL     1       0.796   3.018  19.671  0.00  0.00    +0.000 A 
ATOM     16  C   UNL     1       1.772   2.732  18.723  0.00  0.00    +0.000 A 
ATOM     17  C   UNL     1       2.996   3.408  18.758  0.00  0.00    +0.000 A 
ENDBRANCH  11  12
ENDBRANCH  10  11
ENDBRANCH   3   5
BRANCH   2  18
ATOM     18  C   UNL     1       1.807   8.878  17.777  0.00  0.00    +0.000 C 
BRANCH  18  19
ATOM     19  C   UNL     1       1.784   9.349  19.242  0.00  0.00    +0.000 C 
BRANCH  19  20
ATOM     20  C   UNL     1       1.437   8.235  20.228  0.00  0.00    +0.000 C 
BRANCH  20  21
ATOM     21  C   UNL     1       1.155   8.800  21.626  0.00  0.00    +0.000 C 
BRANCH  21  22
ATOM     22  C   UNL     1      -0.248   9.397  21.707  0.00  0.00    +0.000 C 
BRANCH  22  23
ATOM     23  C   UNL     1      -0.210  10.861  22.137  0.00  0.00    +0.000 C 
BRANCH  23  24
ATOM     24  N   UNL     1       0.018  11.743  21.008  0.00  0.00    +0.000 N 
ATOM     25  C   UNL     1       0.996  12.681  20.873  0.00  0.00    +0.000 A 
ATOM     26  C   UNL     1       0.753  13.235  19.635  0.00  0.00    +0.000 A 
ATOM     27  N   UNL     1      -0.343  12.620  19.081  0.00  0.00    +0.000 NA
ATOM     28  N   UNL     1      -0.786  11.706  19.936  0.00  0.00    +0.000 NA
BRANCH  26  29
ATOM     29  C   UNL     1       1.497  14.298  18.994  0.00  0.00    +0.000 A 
ATOM     30  C   UNL     1       2.703  14.069  18.317  0.00  0.00    +0.000 A 
ATOM     31  C   UNL     1       3.382  15.133  17.724  0.00  0.00    +0.000 A 
ATOM     32  C   UNL     1       2.834  16.401  17.822  0.00  0.00    +0.000 A 
ATOM     33  N   UNL     1       1.677  16.665  18.460  0.00  0.00    +0.000 NA
ATOM     34  C   UNL     1       1.037  15.608  19.029  0.00  0.00    +0.000 A 
ENDBRANCH  26  29
ENDBRANCH  23  24
ENDBRANCH  22  23
ENDBRANCH  21  22
ENDBRANCH  20  21
ENDBRANCH  19  20
ENDBRANCH  18  19
ENDBRANCH   2  18
TORSDOF 11
ENDMDL
MODEL 9
REMARK VINA RESULT:      -7.8      4.592      6.114
REMARK  Name = 
REMARK  11 active torsions:
REMARK  status: ('A' for Active; 'I' for Inactive)
REMARK    1  A    between atoms: C_2  and  C_3
REMARK    2  A    between atoms: C_3  and  C_4
REMARK    3  A    between atoms: C_4  and  C_5
REMARK    4  A    between atoms: C_5  and  C_6
REMARK    5  A    between atoms: C_6  and  C_7
REMARK    6  A    between atoms: C_7  and  C_8
REMARK    7  A    between atoms: C_8  and  N_9
REMARK    8  A    between atoms: C_11  and  C_12
REMARK    9  A    between atoms: N_20  and  C_21
REMARK   10  A    between atoms: C_26  and  C_27
REMARK   11  A    between atoms: C_27  and  C_28
REMARK                            x       y       z     vdW  Elec       q    Type
REMARK                         _______ _______ _______ _____ _____    ______ ____
ROOT
ATOM      1  O   UNL     1       2.845   8.559  16.887  0.00  0.00    +0.000 OA
ATOM      2  C   UNL     1       2.671   7.951  17.943  0.00  0.00    +0.000 C 
ATOM      3  N   UNL     1       3.221   6.713  18.254  0.00  0.00    +0.000 N 
ATOM      4  H   UNL     1       2.815   6.195  19.024  0.00  0.00    +0.000 HD
ENDROOT
BRANCH   3   5
ATOM      5  C   UNL     1       4.303   6.100  17.555  0.00  0.00    +0.000 A 
ATOM      6  C   UNL     1       5.402   6.870  17.138  0.00  0.00    +0.000 A 
ATOM      7  C   UNL     1       6.515   6.300  16.521  0.00  0.00    +0.000 A 
ATOM      8  C   UNL     1       6.573   4.928  16.341  0.00  0.00    +0.000 A 
ATOM      9  C   UNL     1       5.494   4.137  16.737  0.00  0.00    +0.000 A 
ATOM     10  C   UNL     1       4.333   4.706  17.310  0.00  0.00    +0.000 A 
BRANCH  10  11
ATOM     11  C   UNL     1       3.147   3.778  17.488  0.00  0.00    +0.000 C 
BRANCH  11  12
ATOM     12  C   UNL     1       2.562   3.587  18.871  0.00  0.00    +0.000 A 
ATOM     13  C   UNL     1       1.199   3.752  19.139  0.00  0.00    +0.000 A 
ATOM     14  C   UNL     1       0.662   3.330  20.360  0.00  0.00    +0.000 A 
ATOM     15  C   UNL     1       1.480   2.758  21.331  0.00  0.00    +0.000 A 
ATOM     16  C   UNL     1       2.849   2.653  21.107  0.00  0.00    +0.000 A 
ATOM     17  C   UNL     1       3.388   3.066  19.885  0.00  0.00    +0.000 A 
ENDBRANCH  11  12
ENDBRANCH  10  11
ENDBRANCH   3   5
BRANCH   2  18
ATOM     18  C   UNL     1       1.787   8.544  19.035  0.00  0.00    +0.000 C 
BRANCH  18  19
ATOM     19  C   UNL     1       1.790   7.632  20.275  0.00  0.00    +0.000 C 
BRANCH  19  20
ATOM     20  C   UNL     1       1.431   8.367  21.565  0.00  0.00    +0.000 C 
BRANCH  20  21
ATOM     21  C   UNL     1      -0.088   8.530  21.706  0.00  0.00    +0.000 C 
BRANCH  21  22
ATOM     22  C   UNL     1      -0.464   9.986  21.975  0.00  0.00    +0.000 C 
BRANCH  22  23
ATOM     23  C   UNL     1      -0.771  10.733  20.681  0.00  0.00    +0.000 C 
BRANCH  23  24
ATOM     24  N   UNL     1       0.027  11.938  20.558  0.00  0.00    +0.000 N 
ATOM     25  C   UNL     1      -0.187  12.993  19.724  0.00  0.00    +0.000 A 
ATOM     26  C   UNL     1       0.858  13.848  19.999  0.00  0.00    +0.000 A 
ATOM     27  N   UNL     1       1.649  13.284  20.969  0.00  0.00    +0.000 NA
ATOM     28  N   UNL     1       1.128  12.109  21.303  0.00  0.00    +0.000 NA
BRANCH  26  29
ATOM     29  C   UNL     1       1.122  15.130  19.380  0.00  0.00    +0.000 A 
ATOM     30  C   UNL     1       2.406  15.692  19.334  0.00  0.00    +0.000 A 
ATOM     31  C   UNL     1       2.600  16.935  18.732  0.00  0.00    +0.000 A 
ATOM     32  C   UNL     1       1.504  17.583  18.188  0.00  0.00    +0.000 A 
ATOM     33  N   UNL     1       0.255  17.077  18.208  0.00  0.00    +0.000 NA
ATOM     34  C   UNL     1       0.095  15.864  18.802  0.00  0.00    +0.000 A 
ENDBRANCH  26  29
ENDBRANCH  23  24
ENDBRANCH  22  23
ENDBRANCH  21  22
ENDBRANCH  20  21
ENDBRANCH  19  20
ENDBRANCH  18  19
ENDBRANCH   2  18
TORSDOF 11
ENDMDL
