MODEL 1
REMARK VINA RESULT:      -8.9      0.000      0.000
REMARK  Name = 
REMARK  9 active torsions:
REMARK  status: ('A' for Active; 'I' for Inactive)
REMARK    1  A    between atoms: C_1  and  N_2
REMARK    2  A    between atoms: C_5  and  N_6
REMARK    3  A    between atoms: N_9  and  C_10
REMARK    4  A    between atoms: C_10  and  C_11
REMARK    5  A    between atoms: C_15  and  C_16
REMARK    6  A    between atoms: C_16  and  C_17
REMARK    7  A    between atoms: C_16  and  C_18
REMARK    8  A    between atoms: C_16  and  O_19
REMARK    9  A    between atoms: C_22  and  C_23
REMARK                            x       y       z     vdW  Elec       q    Type
REMARK                         _______ _______ _______ _____ _____    ______ ____
ROOT
ATOM      1  C   UNL     1       1.691  14.518  19.307  0.00  0.00    +0.000 C 
ATOM      2  N   UNL     1       1.028  13.282  19.718  0.00  0.00    +0.000 N 
ATOM      3  C   UNL     1       1.467  12.082  19.137  0.00  0.00    +0.000 C 
ATOM      4  O   UNL     1       2.370  12.053  18.291  0.00  0.00    +0.000 OA
ATOM      5  C   UNL     1       0.775  10.776  19.612  0.00  0.00    +0.000 C 
ATOM      6  N   UNL     1      -0.565  10.766  19.055  0.00  0.00    +0.000 NA
ATOM      7  C   UNL     1      -1.444  11.572  19.543  0.00  0.00    +0.000 C 
ATOM      8  C   UNL     1      -1.179  12.544  20.649  0.00  0.00    +0.000 A 
ATOM      9  C   UNL     1      -2.167  12.674  21.646  0.00  0.00    +0.000 A 
ATOM     10  C   UNL     1      -2.068  13.656  22.630  0.00  0.00    +0.000 A 
ATOM     11  C   UNL     1      -0.971  14.503  22.641  0.00  0.00    +0.000 A 
ATOM     12  C   UNL     1       0.030  14.361  21.675  0.00  0.00    +0.000 A 
ATOM     13  C   UNL     1      -0.040  13.374  20.669  0.00  0.00    +0.000 A 
ENDROOT
BRANCH   5  14
ATOM     14  N   UNL     1       1.438   9.625  19.042  0.00  0.00    +0.000 N 
ATOM     15  C   UNL     1       1.634   8.484  19.756  0.00  0.00    +0.000 C 
ATOM     16  O   UNL     1       1.213   8.308  20.893  0.00  0.00    +0.000 OA
ATOM     17  N   UNL     1       2.303   7.527  19.041  0.00  0.00    +0.000 N 
ATOM     18  H   UNL     1       2.067   9.836  18.283  0.00  0.00    +0.000 HD
ATOM     19  H   UNL     1       2.602   7.737  18.104  0.00  0.00    +0.000 HD
BRANCH  17  20
ATOM     20  C   UNL     1       2.523   6.192  19.555  0.00  0.00    +0.000 C 
BRANCH  20  21
ATOM     21  C   UNL     1       3.279   5.328  18.573  0.00  0.00    +0.000 A 
ATOM     22  C   UNL     1       2.648   4.231  17.978  0.00  0.00    +0.000 A 
ATOM     23  C   UNL     1       3.335   3.425  17.076  0.00  0.00    +0.000 A 
ATOM     24  C   UNL     1       4.668   3.699  16.767  0.00  0.00    +0.000 A 
ATOM     25  C   UNL     1       5.338   4.792  17.343  0.00  0.00    +0.000 A 
ATOM     26  C   UNL     1       4.613   5.616  18.225  0.00  0.00    +0.000 A 
BRANCH  25  27
ATOM     27  C   UNL     1       6.822   5.023  17.050  0.00  0.00    +0.000 C 
ATOM     28  C   UNL     1       7.128   4.700  15.579  0.00  0.00    +0.000 C 
ATOM     29  C   UNL     1       7.264   6.454  17.377  0.00  0.00    +0.000 C 
BRANCH  27  30
ATOM     30  O   UNL     1       7.642   4.160  17.848  0.00  0.00    +0.000 OA
ATOM     31  H   UNL     1       7.873   4.652  18.654  0.00  0.00    +0.000 HD
ENDBRANCH  27  30
ENDBRANCH  25  27
ENDBRANCH  20  21
ENDBRANCH  17  20
ENDBRANCH   5  14
BRANCH   7  32
ATOM     32  C   UNL     1      -2.817  11.499  18.942  0.00  0.00    +0.000 A 
ATOM     33  C   UNL     1      -3.035  10.609  17.881  0.00  0.00    +0.000 A 
ATOM     34  C   UNL     1      -4.291  10.516  17.284  0.00  0.00    +0.000 A 
ATOM     35  C   UNL     1      -5.338  11.313  17.744  0.00  0.00    +0.000 A 
ATOM     36  C   UNL     1      -5.129  12.207  18.794  0.00  0.00    +0.000 A 
ATOM     37  C   UNL     1      -3.868  12.309  19.388  0.00  0.00    +0.000 A 
ENDBRANCH   7  32
TORSDOF 6
ENDMDL
MODEL 2
REMARK VINA RESULT:      -8.8      0.730      1.209
REMARK  Name = 
REMARK  9 active torsions:
REMARK  status: ('A' for Active; 'I' for Inactive)
REMARK    1  A    between atoms: C_1  and  N_2
REMARK    2  A    between atoms: C_5  and  N_6
REMARK    3  A    between atoms: N_9  and  C_10
REMARK    4  A    between atoms: C_10  and  C_11
REMARK    5  A    between atoms: C_15  and  C_16
REMARK    6  A    between atoms: C_16  and  C_17
REMARK    7  A    between atoms: C_16  and  C_18
REMARK    8  A    between atoms: C_16  and  O_19
REMARK    9  A    between atoms: C_22  and  C_23
REMARK                            x       y       z     vdW  Elec       q    Type
REMARK                         _______ _______ _______ _____ _____    ______ ____
ROOT
ATOM      1  C   UNL     1       1.501  14.606  19.837  0.00  0.00    +0.000 C 
ATOM      2  N   UNL     1       0.791  13.347  20.047  0.00  0.00    +0.000 N 
ATOM      3  C   UNL     1       1.303  12.197  19.426  0.00  0.00    +0.000 C 
ATOM      4  O   UNL     1       2.308  12.232  18.706  0.00  0.00    +0.000 OA
ATOM      5  C   UNL     1       0.556  10.862  19.691  0.00  0.00    +0.000 C 
ATOM      6  N   UNL     1      -0.701  10.915  18.965  0.00  0.00    +0.000 NA
ATOM      7  C   UNL     1      -1.637  11.686  19.403  0.00  0.00    +0.000 C 
ATOM      8  C   UNL     1      -1.519  12.555  20.615  0.00  0.00    +0.000 A 
ATOM      9  C   UNL     1      -2.629  12.609  21.483  0.00  0.00    +0.000 A 
ATOM     10  C   UNL     1      -2.660  13.501  22.553  0.00  0.00    +0.000 A 
ATOM     11  C   UNL     1      -1.574  14.331  22.781  0.00  0.00    +0.000 A 
ATOM     12  C   UNL     1      -0.455  14.263  21.945  0.00  0.00    +0.000 A 
ATOM     13  C   UNL     1      -0.392  13.367  20.856  0.00  0.00    +0.000 A 
ENDROOT
BRANCH   5  14
ATOM     14  N   UNL     1       1.288   9.758  19.113  0.00  0.00    +0.000 N 
ATOM     15  C   UNL     1       1.563   8.631  19.823  0.00  0.00    +0.000 C 
ATOM     16  O   UNL     1       1.161   8.425  20.963  0.00  0.00    +0.000 OA
ATOM     17  N   UNL     1       2.287   7.721  19.102  0.00  0.00    +0.000 N 
ATOM     18  H   UNL     1       1.897  10.011  18.351  0.00  0.00    +0.000 HD
ATOM     19  H   UNL     1       2.565   7.952  18.163  0.00  0.00    +0.000 HD
BRANCH  17  20
ATOM     20  C   UNL     1       2.597   6.402  19.610  0.00  0.00    +0.000 C 
BRANCH  20  21
ATOM     21  C   UNL     1       3.204   5.516  18.548  0.00  0.00    +0.000 A 
ATOM     22  C   UNL     1       2.490   4.414  18.066  0.00  0.00    +0.000 A 
ATOM     23  C   UNL     1       3.040   3.587  17.091  0.00  0.00    +0.000 A 
ATOM     24  C   UNL     1       4.318   3.847  16.594  0.00  0.00    +0.000 A 
ATOM     25  C   UNL     1       5.068   4.945  17.051  0.00  0.00    +0.000 A 
ATOM     26  C   UNL     1       4.477   5.789  18.012  0.00  0.00    +0.000 A 
BRANCH  25  27
ATOM     27  C   UNL     1       6.497   5.161  16.549  0.00  0.00    +0.000 C 
ATOM     28  C   UNL     1       7.505   4.641  17.586  0.00  0.00    +0.000 C 
ATOM     29  C   UNL     1       6.745   4.491  15.193  0.00  0.00    +0.000 C 
BRANCH  27  30
ATOM     30  O   UNL     1       6.769   6.555  16.362  0.00  0.00    +0.000 OA
ATOM     31  H   UNL     1       6.966   6.926  17.237  0.00  0.00    +0.000 HD
ENDBRANCH  27  30
ENDBRANCH  25  27
ENDBRANCH  20  21
ENDBRANCH  17  20
ENDBRANCH   5  14
BRANCH   7  32
ATOM     32  C   UNL     1      -2.919  11.680  18.625  0.00  0.00    +0.000 A 
ATOM     33  C   UNL     1      -4.083  12.146  19.252  0.00  0.00    +0.000 A 
ATOM     34  C   UNL     1      -5.300  12.148  18.571  0.00  0.00    +0.000 A 
ATOM     35  C   UNL     1      -5.361  11.681  17.260  0.00  0.00    +0.000 A 
ATOM     36  C   UNL     1      -4.210  11.207  16.630  0.00  0.00    +0.000 A 
ATOM     37  C   UNL     1      -2.991  11.196  17.313  0.00  0.00    +0.000 A 
ENDBRANCH   7  32
TORSDOF 6
ENDMDL
MODEL 3
REMARK VINA RESULT:      -8.7      1.111      1.276
REMARK  Name = 
REMARK  9 active torsions:
REMARK  status: ('A' for Active; 'I' for Inactive)
REMARK    1  A    between atoms: C_1  and  N_2
REMARK    2  A    between atoms: C_5  and  N_6
REMARK    3  A    between atoms: N_9  and  C_10
REMARK    4  A    between atoms: C_10  and  C_11
REMARK    5  A    between atoms: C_15  and  C_16
REMARK    6  A    between atoms: C_16  and  C_17
REMARK    7  A    between atoms: C_16  and  C_18
REMARK    8  A    between atoms: C_16  and  O_19
REMARK    9  A    between atoms: C_22  and  C_23
REMARK                            x       y       z     vdW  Elec       q    Type
REMARK                         _______ _______ _______ _____ _____    ______ ____
ROOT
ATOM      1  C   UNL     1       1.954  14.608  18.546  0.00  0.00    +0.000 C 
ATOM      2  N   UNL     1       1.255  13.420  19.029  0.00  0.00    +0.000 N 
ATOM      3  C   UNL     1       1.722  12.167  18.600  0.00  0.00    +0.000 C 
ATOM      4  O   UNL     1       2.679  12.054  17.824  0.00  0.00    +0.000 OA
ATOM      5  C   UNL     1       0.990  10.916  19.154  0.00  0.00    +0.000 C 
ATOM      6  N   UNL     1      -0.310  10.853  18.512  0.00  0.00    +0.000 NA
ATOM      7  C   UNL     1      -1.214  11.705  18.858  0.00  0.00    +0.000 C 
ATOM      8  C   UNL     1      -1.015  12.780  19.879  0.00  0.00    +0.000 A 
ATOM      9  C   UNL     1      -2.066  13.010  20.789  0.00  0.00    +0.000 A 
ATOM     10  C   UNL     1      -2.025  14.084  21.676  0.00  0.00    +0.000 A 
ATOM     11  C   UNL     1      -0.924  14.925  21.678  0.00  0.00    +0.000 A 
ATOM     12  C   UNL     1       0.138  14.688  20.800  0.00  0.00    +0.000 A 
ATOM     13  C   UNL     1       0.127  13.606  19.894  0.00  0.00    +0.000 A 
ENDROOT
BRANCH   5  14
ATOM     14  N   UNL     1       1.680   9.713  18.745  0.00  0.00    +0.000 N 
ATOM     15  C   UNL     1       1.660   8.583  19.502  0.00  0.00    +0.000 C 
ATOM     16  O   UNL     1       1.012   8.463  20.535  0.00  0.00    +0.000 OA
ATOM     17  N   UNL     1       2.396   7.569  18.950  0.00  0.00    +0.000 N 
ATOM     18  H   UNL     1       2.458   9.866  18.124  0.00  0.00    +0.000 HD
ATOM     19  H   UNL     1       2.887   7.736  18.088  0.00  0.00    +0.000 HD
BRANCH  17  20
ATOM     20  C   UNL     1       2.427   6.239  19.518  0.00  0.00    +0.000 C 
BRANCH  20  21
ATOM     21  C   UNL     1       3.080   5.244  18.588  0.00  0.00    +0.000 A 
ATOM     22  C   UNL     1       2.789   3.881  18.707  0.00  0.00    +0.000 A 
ATOM     23  C   UNL     1       3.388   2.954  17.859  0.00  0.00    +0.000 A 
ATOM     24  C   UNL     1       4.297   3.378  16.889  0.00  0.00    +0.000 A 
ATOM     25  C   UNL     1       4.616   4.739  16.737  0.00  0.00    +0.000 A 
ATOM     26  C   UNL     1       3.971   5.663  17.581  0.00  0.00    +0.000 A 
BRANCH  25  27
ATOM     27  C   UNL     1       5.676   5.169  15.720  0.00  0.00    +0.000 C 
ATOM     28  C   UNL     1       7.071   5.135  16.364  0.00  0.00    +0.000 C 
ATOM     29  C   UNL     1       5.659   4.300  14.458  0.00  0.00    +0.000 C 
BRANCH  27  30
ATOM     30  O   UNL     1       5.449   6.515  15.282  0.00  0.00    +0.000 OA
ATOM     31  H   UNL     1       4.954   6.462  14.448  0.00  0.00    +0.000 HD
ENDBRANCH  27  30
ENDBRANCH  25  27
ENDBRANCH  20  21
ENDBRANCH  17  20
ENDBRANCH   5  14
BRANCH   7  32
ATOM     32  C   UNL     1      -2.544  11.575  18.177  0.00  0.00    +0.000 A 
ATOM     33  C   UNL     1      -2.568  11.196  16.827  0.00  0.00    +0.000 A 
ATOM     34  C   UNL     1      -3.781  11.074  16.150  0.00  0.00    +0.000 A 
ATOM     35  C   UNL     1      -4.977  11.332  16.818  0.00  0.00    +0.000 A 
ATOM     36  C   UNL     1      -4.962  11.718  18.158  0.00  0.00    +0.000 A 
ATOM     37  C   UNL     1      -3.748  11.850  18.837  0.00  0.00    +0.000 A 
ENDBRANCH   7  32
TORSDOF 6
ENDMDL
MODEL 4
REMARK VINA RESULT:      -8.6      1.559      2.138
REMARK  Name = 
REMARK  9 active torsions:
REMARK  status: ('A' for Active; 'I' for Inactive)
REMARK    1  A    between atoms: C_1  and  N_2
REMARK    2  A    between atoms: C_5  and  N_6
REMARK    3  A    between atoms: N_9  and  C_10
REMARK    4  A    between atoms: C_10  and  C_11
REMARK    5  A    between atoms: C_15  and  C_16
REMARK    6  A    between atoms: C_16  and  C_17
REMARK    7  A    between atoms: C_16  and  C_18
REMARK    8  A    between atoms: C_16  and  O_19
REMARK    9  A    between atoms: C_22  and  C_23
REMARK                            x       y       z     vdW  Elec       q    Type
REMARK                         _______ _______ _______ _____ _____    ______ ____
ROOT
ATOM      1  C   UNL     1       0.431  14.850  20.148  0.00  0.00    +0.000 C 
ATOM      2  N   UNL     1      -0.180  13.528  20.259  0.00  0.00    +0.000 N 
ATOM      3  C   UNL     1       0.664  12.409  20.174  0.00  0.00    +0.000 C 
ATOM      4  O   UNL     1       1.883  12.519  19.991  0.00  0.00    +0.000 OA
ATOM      5  C   UNL     1       0.001  11.014  20.331  0.00  0.00    +0.000 C 
ATOM      6  N   UNL     1      -0.761  10.756  19.123  0.00  0.00    +0.000 NA
ATOM      7  C   UNL     1      -1.857  11.408  18.932  0.00  0.00    +0.000 C 
ATOM      8  C   UNL     1      -2.404  12.437  19.870  0.00  0.00    +0.000 A 
ATOM      9  C   UNL     1      -3.792  12.416  20.116  0.00  0.00    +0.000 A 
ATOM     10  C   UNL     1      -4.403  13.424  20.859  0.00  0.00    +0.000 A 
ATOM     11  C   UNL     1      -3.633  14.449  21.383  0.00  0.00    +0.000 A 
ATOM     12  C   UNL     1      -2.250  14.462  21.171  0.00  0.00    +0.000 A 
ATOM     13  C   UNL     1      -1.602  13.454  20.427  0.00  0.00    +0.000 A 
ENDROOT
BRANCH   5  14
ATOM     14  N   UNL     1       1.014   9.984  20.374  0.00  0.00    +0.000 N 
ATOM     15  C   UNL     1       0.755   8.744  20.871  0.00  0.00    +0.000 C 
ATOM     16  O   UNL     1      -0.351   8.377  21.249  0.00  0.00    +0.000 OA
ATOM     17  N   UNL     1       1.854   7.929  20.845  0.00  0.00    +0.000 N 
ATOM     18  H   UNL     1       1.961  10.327  20.397  0.00  0.00    +0.000 HD
ATOM     19  H   UNL     1       2.726   8.295  20.502  0.00  0.00    +0.000 HD
BRANCH  17  20
ATOM     20  C   UNL     1       1.788   6.532  21.216  0.00  0.00    +0.000 C 
BRANCH  20  21
ATOM     21  C   UNL     1       2.126   5.625  20.056  0.00  0.00    +0.000 A 
ATOM     22  C   UNL     1       1.366   4.473  19.826  0.00  0.00    +0.000 A 
ATOM     23  C   UNL     1       1.669   3.626  18.764  0.00  0.00    +0.000 A 
ATOM     24  C   UNL     1       2.746   3.915  17.926  0.00  0.00    +0.000 A 
ATOM     25  C   UNL     1       3.534   5.063  18.122  0.00  0.00    +0.000 A 
ATOM     26  C   UNL     1       3.187   5.925  19.181  0.00  0.00    +0.000 A 
BRANCH  25  27
ATOM     27  C   UNL     1       4.758   5.314  17.238  0.00  0.00    +0.000 C 
ATOM     28  C   UNL     1       6.039   5.281  18.087  0.00  0.00    +0.000 C 
ATOM     29  C   UNL     1       4.863   4.306  16.089  0.00  0.00    +0.000 C 
BRANCH  27  30
ATOM     30  O   UNL     1       4.692   6.609  16.628  0.00  0.00    +0.000 OA
ATOM     31  H   UNL     1       5.429   6.664  15.997  0.00  0.00    +0.000 HD
ENDBRANCH  27  30
ENDBRANCH  25  27
ENDBRANCH  20  21
ENDBRANCH  17  20
ENDBRANCH   5  14
BRANCH   7  32
ATOM     32  C   UNL     1      -2.613  11.081  17.678  0.00  0.00    +0.000 A 
ATOM     33  C   UNL     1      -2.067  10.138  16.796  0.00  0.00    +0.000 A 
ATOM     34  C   UNL     1      -2.729   9.812  15.613  0.00  0.00    +0.000 A 
ATOM     35  C   UNL     1      -3.940  10.428  15.303  0.00  0.00    +0.000 A 
ATOM     36  C   UNL     1      -4.486  11.374  16.170  0.00  0.00    +0.000 A 
ATOM     37  C   UNL     1      -3.821  11.710  17.352  0.00  0.00    +0.000 A 
ENDBRANCH   7  32
TORSDOF 6
ENDMDL
MODEL 5
REMARK VINA RESULT:      -8.6      0.720      1.150
REMARK  Name = 
REMARK  9 active torsions:
REMARK  status: ('A' for Active; 'I' for Inactive)
REMARK    1  A    between atoms: C_1  and  N_2
REMARK    2  A    between atoms: C_5  and  N_6
REMARK    3  A    between atoms: N_9  and  C_10
REMARK    4  A    between atoms: C_10  and  C_11
REMARK    5  A    between atoms: C_15  and  C_16
REMARK    6  A    between atoms: C_16  and  C_17
REMARK    7  A    between atoms: C_16  and  C_18
REMARK    8  A    between atoms: C_16  and  O_19
REMARK    9  A    between atoms: C_22  and  C_23
REMARK                            x       y       z     vdW  Elec       q    Type
REMARK                         _______ _______ _______ _____ _____    ______ ____
ROOT
ATOM      1  C   UNL     1       1.323  14.734  19.610  0.00  0.00    +0.000 C 
ATOM      2  N   UNL     1       0.639  13.470  19.871  0.00  0.00    +0.000 N 
ATOM      3  C   UNL     1       1.174  12.307  19.295  0.00  0.00    +0.000 C 
ATOM      4  O   UNL     1       2.177  12.334  18.572  0.00  0.00    +0.000 OA
ATOM      5  C   UNL     1       0.454  10.969  19.614  0.00  0.00    +0.000 C 
ATOM      6  N   UNL     1      -0.804  10.967  18.889  0.00  0.00    +0.000 NA
ATOM      7  C   UNL     1      -1.755  11.736  19.298  0.00  0.00    +0.000 C 
ATOM      8  C   UNL     1      -1.653  12.654  20.475  0.00  0.00    +0.000 A 
ATOM      9  C   UNL     1      -2.763  12.719  21.342  0.00  0.00    +0.000 A 
ATOM     10  C   UNL     1      -2.811  13.652  22.376  0.00  0.00    +0.000 A 
ATOM     11  C   UNL     1      -1.742  14.513  22.569  0.00  0.00    +0.000 A 
ATOM     12  C   UNL     1      -0.623  14.435  21.734  0.00  0.00    +0.000 A 
ATOM     13  C   UNL     1      -0.543  13.498  20.681  0.00  0.00    +0.000 A 
ENDROOT
BRANCH   5  14
ATOM     14  N   UNL     1       1.208   9.858  19.079  0.00  0.00    +0.000 N 
ATOM     15  C   UNL     1       1.402   8.714  19.790  0.00  0.00    +0.000 C 
ATOM     16  O   UNL     1       0.905   8.501  20.889  0.00  0.00    +0.000 OA
ATOM     17  N   UNL     1       2.164   7.800  19.114  0.00  0.00    +0.000 N 
ATOM     18  H   UNL     1       1.882  10.109  18.373  0.00  0.00    +0.000 HD
ATOM     19  H   UNL     1       2.522   8.039  18.205  0.00  0.00    +0.000 HD
BRANCH  17  20
ATOM     20  C   UNL     1       2.404   6.467  19.624  0.00  0.00    +0.000 C 
BRANCH  20  21
ATOM     21  C   UNL     1       3.349   5.687  18.740  0.00  0.00    +0.000 A 
ATOM     22  C   UNL     1       2.873   4.602  17.996  0.00  0.00    +0.000 A 
ATOM     23  C   UNL     1       3.734   3.873  17.181  0.00  0.00    +0.000 A 
ATOM     24  C   UNL     1       5.085   4.213  17.110  0.00  0.00    +0.000 A 
ATOM     25  C   UNL     1       5.603   5.296  17.841  0.00  0.00    +0.000 A 
ATOM     26  C   UNL     1       4.706   6.043  18.631  0.00  0.00    +0.000 A 
BRANCH  25  27
ATOM     27  C   UNL     1       7.102   5.598  17.809  0.00  0.00    +0.000 C 
ATOM     28  C   UNL     1       7.352   6.972  17.167  0.00  0.00    +0.000 C 
ATOM     29  C   UNL     1       7.737   5.546  19.203  0.00  0.00    +0.000 C 
BRANCH  27  30
ATOM     30  O   UNL     1       7.803   4.631  17.016  0.00  0.00    +0.000 OA
ATOM     31  H   UNL     1       7.778   4.946  16.097  0.00  0.00    +0.000 HD
ENDBRANCH  27  30
ENDBRANCH  25  27
ENDBRANCH  20  21
ENDBRANCH  17  20
ENDBRANCH   5  14
BRANCH   7  32
ATOM     32  C   UNL     1      -3.038  11.672  18.524  0.00  0.00    +0.000 A 
ATOM     33  C   UNL     1      -4.226  12.043  19.169  0.00  0.00    +0.000 A 
ATOM     34  C   UNL     1      -5.444  11.988  18.491  0.00  0.00    +0.000 A 
ATOM     35  C   UNL     1      -5.481  11.561  17.166  0.00  0.00    +0.000 A 
ATOM     36  C   UNL     1      -4.305  11.182  16.518  0.00  0.00    +0.000 A 
ATOM     37  C   UNL     1      -3.084  11.227  17.197  0.00  0.00    +0.000 A 
ENDBRANCH   7  32
TORSDOF 6
ENDMDL
MODEL 6
REMARK VINA RESULT:      -8.4      3.016      4.246
REMARK  Name = 
REMARK  9 active torsions:
REMARK  status: ('A' for Active; 'I' for Inactive)
REMARK    1  A    between atoms: C_1  and  N_2
REMARK    2  A    between atoms: C_5  and  N_6
REMARK    3  A    between atoms: N_9  and  C_10
REMARK    4  A    between atoms: C_10  and  C_11
REMARK    5  A    between atoms: C_15  and  C_16
REMARK    6  A    between atoms: C_16  and  C_17
REMARK    7  A    between atoms: C_16  and  C_18
REMARK    8  A    between atoms: C_16  and  O_19
REMARK    9  A    between atoms: C_22  and  C_23
REMARK                            x       y       z     vdW  Elec       q    Type
REMARK                         _______ _______ _______ _____ _____    ______ ____
ROOT
ATOM      1  C   UNL     1      -1.194  16.129  20.281  0.00  0.00    +0.000 C 
ATOM      2  N   UNL     1      -1.398  14.987  21.169  0.00  0.00    +0.000 N 
ATOM      3  C   UNL     1      -1.103  13.710  20.668  0.00  0.00    +0.000 C 
ATOM      4  O   UNL     1      -0.702  13.534  19.510  0.00  0.00    +0.000 OA
ATOM      5  C   UNL     1      -1.291  12.513  21.639  0.00  0.00    +0.000 C 
ATOM      6  N   UNL     1      -2.718  12.313  21.812  0.00  0.00    +0.000 NA
ATOM      7  C   UNL     1      -3.381  13.166  22.516  0.00  0.00    +0.000 C 
ATOM      8  C   UNL     1      -2.783  14.373  23.166  0.00  0.00    +0.000 A 
ATOM      9  C   UNL     1      -3.204  14.677  24.477  0.00  0.00    +0.000 A 
ATOM     10  C   UNL     1      -2.809  15.859  25.100  0.00  0.00    +0.000 A 
ATOM     11  C   UNL     1      -1.973  16.738  24.431  0.00  0.00    +0.000 A 
ATOM     12  C   UNL     1      -1.525  16.430  23.142  0.00  0.00    +0.000 A 
ATOM     13  C   UNL     1      -1.903  15.240  22.486  0.00  0.00    +0.000 A 
ENDROOT
BRANCH   5  14
ATOM     14  N   UNL     1      -0.803  11.296  21.029  0.00  0.00    +0.000 N 
ATOM     15  C   UNL     1       0.016  10.439  21.695  0.00  0.00    +0.000 C 
ATOM     16  O   UNL     1       0.348  10.581  22.866  0.00  0.00    +0.000 OA
ATOM     17  N   UNL     1       0.384   9.364  20.932  0.00  0.00    +0.000 N 
ATOM     18  H   UNL     1      -0.768  11.316  20.022  0.00  0.00    +0.000 HD
ATOM     19  H   UNL     1       0.056   9.305  19.982  0.00  0.00    +0.000 HD
BRANCH  17  20
ATOM     20  C   UNL     1       1.157   8.264  21.466  0.00  0.00    +0.000 C 
BRANCH  20  21
ATOM     21  C   UNL     1       1.673   7.355  20.376  0.00  0.00    +0.000 A 
ATOM     22  C   UNL     1       2.141   7.901  19.176  0.00  0.00    +0.000 A 
ATOM     23  C   UNL     1       2.614   7.074  18.161  0.00  0.00    +0.000 A 
ATOM     24  C   UNL     1       2.612   5.689  18.330  0.00  0.00    +0.000 A 
ATOM     25  C   UNL     1       2.151   5.101  19.521  0.00  0.00    +0.000 A 
ATOM     26  C   UNL     1       1.711   5.959  20.548  0.00  0.00    +0.000 A 
BRANCH  25  27
ATOM     27  C   UNL     1       2.084   3.578  19.650  0.00  0.00    +0.000 C 
ATOM     28  C   UNL     1       1.210   3.187  20.852  0.00  0.00    +0.000 C 
ATOM     29  C   UNL     1       1.556   2.909  18.376  0.00  0.00    +0.000 C 
BRANCH  27  30
ATOM     30  O   UNL     1       3.386   3.025  19.880  0.00  0.00    +0.000 OA
ATOM     31  H   UNL     1       4.028   3.633  19.477  0.00  0.00    +0.000 HD
ENDBRANCH  27  30
ENDBRANCH  25  27
ENDBRANCH  20  21
ENDBRANCH  17  20
ENDBRANCH   5  14
BRANCH   7  32
ATOM     32  C   UNL     1      -4.847  12.893  22.679  0.00  0.00    +0.000 A 
ATOM     33  C   UNL     1      -5.625  12.714  21.527  0.00  0.00    +0.000 A 
ATOM     34  C   UNL     1      -6.994  12.470  21.631  0.00  0.00    +0.000 A 
ATOM     35  C   UNL     1      -7.594  12.406  22.886  0.00  0.00    +0.000 A 
ATOM     36  C   UNL     1      -6.830  12.592  24.038  0.00  0.00    +0.000 A 
ATOM     37  C   UNL     1      -5.459  12.846  23.937  0.00  0.00    +0.000 A 
ENDBRANCH   7  32
TORSDOF 6
ENDMDL
MODEL 7
REMARK VINA RESULT:      -8.4      2.456      3.506
REMARK  Name = 
REMARK  9 active torsions:
REMARK  status: ('A' for Active; 'I' for Inactive)
REMARK    1  A    between atoms: C_1  and  N_2
REMARK    2  A    between atoms: C_5  and  N_6
REMARK    3  A    between atoms: N_9  and  C_10
REMARK    4  A    between atoms: C_10  and  C_11
REMARK    5  A    between atoms: C_15  and  C_16
REMARK    6  A    between atoms: C_16  and  C_17
REMARK    7  A    between atoms: C_16  and  C_18
REMARK    8  A    between atoms: C_16  and  O_19
REMARK    9  A    between atoms: C_22  and  C_23
REMARK                            x       y       z     vdW  Elec       q    Type
REMARK                         _______ _______ _______ _____ _____    ______ ____
ROOT
ATOM      1  C   UNL     1      -0.297  15.144  18.913  0.00  0.00    +0.000 C 
ATOM      2  N   UNL     1      -0.377  14.235  20.054  0.00  0.00    +0.000 N 
ATOM      3  C   UNL     1      -0.414  12.857  19.788  0.00  0.00    +0.000 C 
ATOM      4  O   UNL     1      -0.400  12.409  18.635  0.00  0.00    +0.000 OA
ATOM      5  C   UNL     1      -0.462  11.906  21.014  0.00  0.00    +0.000 C 
ATOM      6  N   UNL     1      -1.788  12.013  21.596  0.00  0.00    +0.000 NA
ATOM      7  C   UNL     1      -2.095  13.085  22.242  0.00  0.00    +0.000 C 
ATOM      8  C   UNL     1      -1.179  14.252  22.429  0.00  0.00    +0.000 A 
ATOM      9  C   UNL     1      -1.150  14.855  23.703  0.00  0.00    +0.000 A 
ATOM     10  C   UNL     1      -0.437  16.032  23.923  0.00  0.00    +0.000 A 
ATOM     11  C   UNL     1       0.272  16.606  22.881  0.00  0.00    +0.000 A 
ATOM     12  C   UNL     1       0.275  15.999  21.620  0.00  0.00    +0.000 A 
ATOM     13  C   UNL     1      -0.433  14.805  21.367  0.00  0.00    +0.000 A 
ENDROOT
BRANCH   5  14
ATOM     14  N   UNL     1      -0.341  10.531  20.583  0.00  0.00    +0.000 N 
ATOM     15  C   UNL     1       0.655   9.723  21.037  0.00  0.00    +0.000 C 
ATOM     16  O   UNL     1       1.473  10.057  21.886  0.00  0.00    +0.000 OA
ATOM     17  N   UNL     1       0.606   8.471  20.486  0.00  0.00    +0.000 N 
ATOM     18  H   UNL     1      -0.752  10.335  19.684  0.00  0.00    +0.000 HD
ATOM     19  H   UNL     1      -0.109   8.263  19.809  0.00  0.00    +0.000 HD
BRANCH  17  20
ATOM     20  C   UNL     1       1.493   7.407  20.906  0.00  0.00    +0.000 C 
BRANCH  20  21
ATOM     21  C   UNL     1       2.359   6.916  19.770  0.00  0.00    +0.000 A 
ATOM     22  C   UNL     1       2.583   7.734  18.658  0.00  0.00    +0.000 A 
ATOM     23  C   UNL     1       3.374   7.291  17.603  0.00  0.00    +0.000 A 
ATOM     24  C   UNL     1       3.943   6.017  17.642  0.00  0.00    +0.000 A 
ATOM     25  C   UNL     1       3.743   5.164  18.741  0.00  0.00    +0.000 A 
ATOM     26  C   UNL     1       2.968   5.647  19.814  0.00  0.00    +0.000 A 
BRANCH  25  27
ATOM     27  C   UNL     1       4.310   3.743  18.724  0.00  0.00    +0.000 C 
ATOM     28  C   UNL     1       3.816   2.962  19.951  0.00  0.00    +0.000 C 
ATOM     29  C   UNL     1       3.948   2.988  17.440  0.00  0.00    +0.000 C 
BRANCH  27  30
ATOM     30  O   UNL     1       5.741   3.761  18.786  0.00  0.00    +0.000 OA
ATOM     31  H   UNL     1       6.030   2.849  18.955  0.00  0.00    +0.000 HD
ENDBRANCH  27  30
ENDBRANCH  25  27
ENDBRANCH  20  21
ENDBRANCH  17  20
ENDBRANCH   5  14
BRANCH   7  32
ATOM     32  C   UNL     1      -3.470  13.127  22.841  0.00  0.00    +0.000 A 
ATOM     33  C   UNL     1      -3.715  12.384  24.004  0.00  0.00    +0.000 A 
ATOM     34  C   UNL     1      -4.981  12.383  24.588  0.00  0.00    +0.000 A 
ATOM     35  C   UNL     1      -6.010  13.125  24.013  0.00  0.00    +0.000 A 
ATOM     36  C   UNL     1      -5.779  13.861  22.851  0.00  0.00    +0.000 A 
ATOM     37  C   UNL     1      -4.514  13.856  22.258  0.00  0.00    +0.000 A 
ENDBRANCH   7  32
TORSDOF 6
ENDMDL
MODEL 8
REMARK VINA RESULT:      -8.4      1.324      1.656
REMARK  Name = 
REMARK  9 active torsions:
REMARK  status: ('A' for Active; 'I' for Inactive)
REMARK    1  A    between atoms: C_1  and  N_2
REMARK    2  A    between atoms: C_5  and  N_6
REMARK    3  A    between atoms: N_9  and  C_10
REMARK    4  A    between atoms: C_10  and  C_11
REMARK    5  A    between atoms: C_15  and  C_16
REMARK    6  A    between atoms: C_16  and  C_17
REMARK    7  A    between atoms: C_16  and  C_18
REMARK    8  A    between atoms: C_16  and  O_19
REMARK    9  A    between atoms: C_22  and  C_23
REMARK                            x       y       z     vdW  Elec       q    Type
REMARK                         _______ _______ _______ _____ _____    ______ ____
ROOT
ATOM      1  C   UNL     1       2.018  14.477  18.240  0.00  0.00    +0.000 C 
ATOM      2  N   UNL     1       1.211  13.493  18.958  0.00  0.00    +0.000 N 
ATOM      3  C   UNL     1       1.605  12.148  18.886  0.00  0.00    +0.000 C 
ATOM      4  O   UNL     1       2.588  11.786  18.226  0.00  0.00    +0.000 OA
ATOM      5  C   UNL     1       0.757  11.122  19.685  0.00  0.00    +0.000 C 
ATOM      6  N   UNL     1      -0.512  10.975  18.994  0.00  0.00    +0.000 NA
ATOM      7  C   UNL     1      -1.366  11.939  19.057  0.00  0.00    +0.000 C 
ATOM      8  C   UNL     1      -1.139  13.224  19.788  0.00  0.00    +0.000 A 
ATOM      9  C   UNL     1      -2.214  13.737  20.542  0.00  0.00    +0.000 A 
ATOM     10  C   UNL     1      -2.137  14.997  21.134  0.00  0.00    +0.000 A 
ATOM     11  C   UNL     1      -0.979  15.745  20.999  0.00  0.00    +0.000 A 
ATOM     12  C   UNL     1       0.105  15.231  20.279  0.00  0.00    +0.000 A 
ATOM     13  C   UNL     1       0.059  13.958  19.672  0.00  0.00    +0.000 A 
ENDROOT
BRANCH   5  14
ATOM     14  N   UNL     1       1.376   9.817  19.634  0.00  0.00    +0.000 N 
ATOM     15  C   UNL     1       1.041   8.831  20.510  0.00  0.00    +0.000 C 
ATOM     16  O   UNL     1       0.156   8.934  21.351  0.00  0.00    +0.000 OA
ATOM     17  N   UNL     1       1.762   7.684  20.308  0.00  0.00    +0.000 N 
ATOM     18  H   UNL     1       2.293   9.803  19.216  0.00  0.00    +0.000 HD
ATOM     19  H   UNL     1       2.460   7.667  19.584  0.00  0.00    +0.000 HD
BRANCH  17  20
ATOM     20  C   UNL     1       1.497   6.466  21.043  0.00  0.00    +0.000 C 
BRANCH  20  21
ATOM     21  C   UNL     1       2.309   5.305  20.521  0.00  0.00    +0.000 A 
ATOM     22  C   UNL     1       2.129   4.028  21.061  0.00  0.00    +0.000 A 
ATOM     23  C   UNL     1       2.875   2.950  20.592  0.00  0.00    +0.000 A 
ATOM     24  C   UNL     1       3.820   3.141  19.583  0.00  0.00    +0.000 A 
ATOM     25  C   UNL     1       4.031   4.408  19.013  0.00  0.00    +0.000 A 
ATOM     26  C   UNL     1       3.239   5.477  19.478  0.00  0.00    +0.000 A 
BRANCH  25  27
ATOM     27  C   UNL     1       5.129   4.606  17.966  0.00  0.00    +0.000 C 
ATOM     28  C   UNL     1       4.714   3.957  16.636  0.00  0.00    +0.000 C 
ATOM     29  C   UNL     1       5.464   6.085  17.746  0.00  0.00    +0.000 C 
BRANCH  27  30
ATOM     30  O   UNL     1       6.349   3.977  18.378  0.00  0.00    +0.000 OA
ATOM     31  H   UNL     1       6.875   4.651  18.838  0.00  0.00    +0.000 HD
ENDBRANCH  27  30
ENDBRANCH  25  27
ENDBRANCH  20  21
ENDBRANCH  17  20
ENDBRANCH   5  14
BRANCH   7  32
ATOM     32  C   UNL     1      -2.667  11.719  18.344  0.00  0.00    +0.000 A 
ATOM     33  C   UNL     1      -2.633  11.304  17.005  0.00  0.00    +0.000 A 
ATOM     34  C   UNL     1      -3.818  11.099  16.299  0.00  0.00    +0.000 A 
ATOM     35  C   UNL     1      -5.044  11.309  16.926  0.00  0.00    +0.000 A 
ATOM     36  C   UNL     1      -5.088  11.730  18.255  0.00  0.00    +0.000 A 
ATOM     37  C   UNL     1      -3.902  11.945  18.963  0.00  0.00    +0.000 A 
ENDBRANCH   7  32
TORSDOF 6
ENDMDL
MODEL 9
REMARK VINA RESULT:      -8.2      1.160      1.528
REMARK  Name = 
REMARK  9 active torsions:
REMARK  status: ('A' for Active; 'I' for Inactive)
REMARK    1  A    between atoms: C_1  and  N_2
REMARK    2  A    between atoms: C_5  and  N_6
REMARK    3  A    between atoms: N_9  and  C_10
REMARK    4  A    between atoms: C_10  and  C_11
REMARK    5  A    between atoms: C_15  and  C_16
REMARK    6  A    between atoms: C_16  and  C_17
REMARK    7  A    between atoms: C_16  and  C_18
REMARK    8  A    between atoms: C_16  and  O_19
REMARK    9  A    between atoms: C_22  and  C_23
REMARK                            x       y       z     vdW  Elec       q    Type
REMARK                         _______ _______ _______ _____ _____    ______ ____
ROOT
ATOM      1  C   UNL     1       1.954  14.326  18.565  0.00  0.00    +0.000 C 
ATOM      2  N   UNL     1       1.141  13.266  19.156  0.00  0.00    +0.000 N 
ATOM      3  C   UNL     1       1.522  11.938  18.911  0.00  0.00    +0.000 C 
ATOM      4  O   UNL     1       2.499  11.654  18.205  0.00  0.00    +0.000 OA
ATOM      5  C   UNL     1       0.668  10.826  19.578  0.00  0.00    +0.000 C 
ATOM      6  N   UNL     1      -0.605  10.779  18.882  0.00  0.00    +0.000 NA
ATOM      7  C   UNL     1      -1.450  11.735  19.072  0.00  0.00    +0.000 C 
ATOM      8  C   UNL     1      -1.207  12.914  19.959  0.00  0.00    +0.000 A 
ATOM      9  C   UNL     1      -2.274  13.337  20.778  0.00  0.00    +0.000 A 
ATOM     10  C   UNL     1      -2.182  14.510  21.525  0.00  0.00    +0.000 A 
ATOM     11  C   UNL     1      -1.018  15.260  21.479  0.00  0.00    +0.000 A 
ATOM     12  C   UNL     1       0.057  14.832  20.694  0.00  0.00    +0.000 A 
ATOM     13  C   UNL     1      -0.003  13.647  19.930  0.00  0.00    +0.000 A 
ENDROOT
BRANCH   5  14
ATOM     14  N   UNL     1       1.274   9.533  19.359  0.00  0.00    +0.000 N 
ATOM     15  C   UNL     1       1.207   8.542  20.289  0.00  0.00    +0.000 C 
ATOM     16  O   UNL     1       0.580   8.632  21.338  0.00  0.00    +0.000 OA
ATOM     17  N   UNL     1       1.867   7.409  19.897  0.00  0.00    +0.000 N 
ATOM     18  H   UNL     1       2.044   9.535  18.708  0.00  0.00    +0.000 HD
ATOM     19  H   UNL     1       2.344   7.404  19.011  0.00  0.00    +0.000 HD
BRANCH  17  20
ATOM     20  C   UNL     1       1.833   6.188  20.673  0.00  0.00    +0.000 C 
BRANCH  20  21
ATOM     21  C   UNL     1       2.707   5.113  20.070  0.00  0.00    +0.000 A 
ATOM     22  C   UNL     1       2.565   3.785  20.484  0.00  0.00    +0.000 A 
ATOM     23  C   UNL     1       3.367   2.786  19.940  0.00  0.00    +0.000 A 
ATOM     24  C   UNL     1       4.331   3.107  18.984  0.00  0.00    +0.000 A 
ATOM     25  C   UNL     1       4.505   4.430  18.540  0.00  0.00    +0.000 A 
ATOM     26  C   UNL     1       3.658   5.419  19.078  0.00  0.00    +0.000 A 
BRANCH  25  27
ATOM     27  C   UNL     1       5.622   4.767  17.551  0.00  0.00    +0.000 C 
ATOM     28  C   UNL     1       5.164   5.879  16.594  0.00  0.00    +0.000 C 
ATOM     29  C   UNL     1       6.918   5.182  18.256  0.00  0.00    +0.000 C 
BRANCH  27  30
ATOM     30  O   UNL     1       5.954   3.630  16.744  0.00  0.00    +0.000 OA
ATOM     31  H   UNL     1       6.636   3.917  16.115  0.00  0.00    +0.000 HD
ENDBRANCH  27  30
ENDBRANCH  25  27
ENDBRANCH  20  21
ENDBRANCH  17  20
ENDBRANCH   5  14
BRANCH   7  32
ATOM     32  C   UNL     1      -2.757  11.619  18.344  0.00  0.00    +0.000 A 
ATOM     33  C   UNL     1      -3.939  11.882  19.049  0.00  0.00    +0.000 A 
ATOM     34  C   UNL     1      -5.177  11.775  18.417  0.00  0.00    +0.000 A 
ATOM     35  C   UNL     1      -5.241  11.402  17.076  0.00  0.00    +0.000 A 
ATOM     36  C   UNL     1      -4.070  11.129  16.368  0.00  0.00    +0.000 A 
ATOM     37  C   UNL     1      -2.828  11.227  17.002  0.00  0.00    +0.000 A 
ENDBRANCH   7  32
TORSDOF 6
ENDMDL
