MODEL 1
REMARK VINA RESULT:      -7.4      0.000      0.000
REMARK  Name = 
REMARK  9 active torsions:
REMARK  status: ('A' for Active; 'I' for Inactive)
REMARK    1  A    between atoms: C_1  and  C_2
REMARK    2  A    between atoms: C_2  and  C_4
REMARK    3  A    between atoms: C_7  and  O_8
REMARK    4  A    between atoms: O_8  and  C_9
REMARK    5  A    between atoms: C_9  and  C_10
REMARK    6  A    between atoms: C_10  and  C_11
REMARK    7  A    between atoms: C_11  and  N_12
REMARK    8  A    between atoms: C_15  and  C_16
REMARK    9  A    between atoms: C_25  and  O_26
REMARK                            x       y       z     vdW  Elec       q    Type
REMARK                         _______ _______ _______ _____ _____    ______ ____
ROOT
ATOM      1  C   UNL     1       7.818   8.698  17.932  0.00  0.00    +0.000 C 
ENDROOT
BRANCH   1   2
ATOM      2  C   UNL     1       9.135   9.338  18.346  0.00  0.00    +0.000 C 
BRANCH   2   3
ATOM      3  O   UNL     1       8.858  10.367  19.298  0.00  0.00    +0.000 OA
BRANCH   3   7
ATOM      4  C   UNL     1      10.663  13.983  18.247  0.00  0.00    +0.000 A 
ATOM      5  C   UNL     1       9.814  13.950  19.365  0.00  0.00    +0.000 A 
ATOM      6  C   UNL     1       9.188  12.762  19.743  0.00  0.00    +0.000 A 
ATOM      7  C   UNL     1       9.405  11.591  19.018  0.00  0.00    +0.000 A 
ATOM      8  C   UNL     1      10.252  11.615  17.908  0.00  0.00    +0.000 A 
ATOM      9  C   UNL     1      10.876  12.803  17.524  0.00  0.00    +0.000 A 
BRANCH   4  11
ATOM     10  C   UNL     1      11.805  16.165  19.004  0.00  0.00    +0.000 C 
ATOM     11  C   UNL     1      11.275  15.289  17.899  0.00  0.00    +0.000 C 
ATOM     12  O   UNL     1      11.395  15.609  16.715  0.00  0.00    +0.000 OA
ENDBRANCH   4  11
BRANCH   9  13
ATOM     13  O   UNL     1      11.717  12.784  16.449  0.00  0.00    +0.000 OA
ATOM     14  H   UNL     1      12.255  11.974  16.469  0.00  0.00    +0.000 HD
ENDBRANCH   9  13
ENDBRANCH   3   7
ENDBRANCH   2   3
ENDBRANCH   1   2
BRANCH   1  15
ATOM     15  C   UNL     1       7.861   7.175  18.078  0.00  0.00    +0.000 C 
BRANCH  15  16
ATOM     16  N   UNL     1       7.298   6.439  16.925  0.00  0.00    +0.000 NA
ATOM     17  C   UNL     1       7.339   4.987  17.159  0.00  0.00    +0.000 C 
ATOM     18  C   UNL     1       6.586   4.168  16.109  0.00  0.00    +0.000 C 
ATOM     19  C   UNL     1       5.128   4.635  15.935  0.00  0.00    +0.000 C 
ATOM     20  C   UNL     1       5.215   6.128  15.565  0.00  0.00    +0.000 C 
ATOM     21  C   UNL     1       5.942   6.938  16.641  0.00  0.00    +0.000 C 
BRANCH  19  22
ATOM     22  C   UNL     1       4.192   4.316  17.105  0.00  0.00    +0.000 A 
ATOM     23  C   UNL     1       4.226   3.068  17.755  0.00  0.00    +0.000 A 
ATOM     24  C   UNL     1       3.371   2.770  18.820  0.00  0.00    +0.000 A 
ATOM     25  C   UNL     1       2.480   3.727  19.291  0.00  0.00    +0.000 A 
ATOM     26  C   UNL     1       2.460   4.986  18.700  0.00  0.00    +0.000 A 
ATOM     27  C   UNL     1       3.312   5.280  17.628  0.00  0.00    +0.000 A 
ENDBRANCH  19  22
ENDBRANCH  15  16
ENDBRANCH   1  15
TORSDOF 8
ENDMDL
MODEL 2
REMARK VINA RESULT:      -7.4      1.676      2.431
REMARK  Name = 
REMARK  9 active torsions:
REMARK  status: ('A' for Active; 'I' for Inactive)
REMARK    1  A    between atoms: C_1  and  C_2
REMARK    2  A    between atoms: C_2  and  C_4
REMARK    3  A    between atoms: C_7  and  O_8
REMARK    4  A    between atoms: O_8  and  C_9
REMARK    5  A    between atoms: C_9  and  C_10
REMARK    6  A    between atoms: C_10  and  C_11
REMARK    7  A    between atoms: C_11  and  N_12
REMARK    8  A    between atoms: C_15  and  C_16
REMARK    9  A    between atoms: C_25  and  O_26
REMARK                            x       y       z     vdW  Elec       q    Type
REMARK                         _______ _______ _______ _____ _____    ______ ____
ROOT
ATOM      1  C   UNL     1       7.878   8.604  17.807  0.00  0.00    +0.000 C 
ENDROOT
BRANCH   1   2
ATOM      2  C   UNL     1       8.826   9.269  18.794  0.00  0.00    +0.000 C 
BRANCH   2   3
ATOM      3  O   UNL     1       9.328  10.469  18.203  0.00  0.00    +0.000 OA
BRANCH   3   7
ATOM      4  C   UNL     1       9.685  13.551  20.995  0.00  0.00    +0.000 A 
ATOM      5  C   UNL     1       9.763  13.864  19.629  0.00  0.00    +0.000 A 
ATOM      6  C   UNL     1       9.655  12.860  18.666  0.00  0.00    +0.000 A 
ATOM      7  C   UNL     1       9.460  11.534  19.052  0.00  0.00    +0.000 A 
ATOM      8  C   UNL     1       9.377  11.217  20.408  0.00  0.00    +0.000 A 
ATOM      9  C   UNL     1       9.490  12.218  21.374  0.00  0.00    +0.000 A 
BRANCH   4  11
ATOM     10  C   UNL     1      10.774  15.799  21.627  0.00  0.00    +0.000 C 
ATOM     11  C   UNL     1       9.830  14.673  21.956  0.00  0.00    +0.000 C 
ATOM     12  O   UNL     1       9.135  14.697  22.974  0.00  0.00    +0.000 OA
ENDBRANCH   4  11
BRANCH   9  13
ATOM     13  O   UNL     1       9.379  11.874  22.691  0.00  0.00    +0.000 OA
ATOM     14  H   UNL     1       9.571  12.648  23.248  0.00  0.00    +0.000 HD
ENDBRANCH   9  13
ENDBRANCH   3   7
ENDBRANCH   2   3
ENDBRANCH   1   2
BRANCH   1  15
ATOM     15  C   UNL     1       7.849   7.085  17.990  0.00  0.00    +0.000 C 
BRANCH  15  16
ATOM     16  N   UNL     1       7.261   6.348  16.850  0.00  0.00    +0.000 NA
ATOM     17  C   UNL     1       7.282   4.897  17.097  0.00  0.00    +0.000 C 
ATOM     18  C   UNL     1       6.504   4.081  16.064  0.00  0.00    +0.000 C 
ATOM     19  C   UNL     1       5.051   4.570  15.902  0.00  0.00    +0.000 C 
ATOM     20  C   UNL     1       5.158   6.058  15.517  0.00  0.00    +0.000 C 
ATOM     21  C   UNL     1       5.911   6.865  16.577  0.00  0.00    +0.000 C 
BRANCH  19  22
ATOM     22  C   UNL     1       4.124   4.277  17.085  0.00  0.00    +0.000 A 
ATOM     23  C   UNL     1       4.130   3.026  17.733  0.00  0.00    +0.000 A 
ATOM     24  C   UNL     1       3.283   2.751  18.810  0.00  0.00    +0.000 A 
ATOM     25  C   UNL     1       2.428   3.734  19.295  0.00  0.00    +0.000 A 
ATOM     26  C   UNL     1       2.437   4.994  18.707  0.00  0.00    +0.000 A 
ATOM     27  C   UNL     1       3.281   5.265  17.623  0.00  0.00    +0.000 A 
ENDBRANCH  19  22
ENDBRANCH  15  16
ENDBRANCH   1  15
TORSDOF 8
ENDMDL
MODEL 3
REMARK VINA RESULT:      -7.4      6.559      9.145
REMARK  Name = 
REMARK  9 active torsions:
REMARK  status: ('A' for Active; 'I' for Inactive)
REMARK    1  A    between atoms: C_1  and  C_2
REMARK    2  A    between atoms: C_2  and  C_4
REMARK    3  A    between atoms: C_7  and  O_8
REMARK    4  A    between atoms: O_8  and  C_9
REMARK    5  A    between atoms: C_9  and  C_10
REMARK    6  A    between atoms: C_10  and  C_11
REMARK    7  A    between atoms: C_11  and  N_12
REMARK    8  A    between atoms: C_15  and  C_16
REMARK    9  A    between atoms: C_25  and  O_26
REMARK                            x       y       z     vdW  Elec       q    Type
REMARK                         _______ _______ _______ _____ _____    ______ ____
ROOT
ATOM      1  C   UNL     1       2.825   7.885  18.117  0.00  0.00    +0.000 C 
ENDROOT
BRANCH   1   2
ATOM      2  C   UNL     1       2.016   9.136  17.807  0.00  0.00    +0.000 C 
BRANCH   2   3
ATOM      3  O   UNL     1       1.443   9.618  19.023  0.00  0.00    +0.000 OA
BRANCH   3   7
ATOM      4  C   UNL     1      -2.421  11.093  18.451  0.00  0.00    +0.000 A 
ATOM      5  C   UNL     1      -1.720  11.463  19.610  0.00  0.00    +0.000 A 
ATOM      6  C   UNL     1      -0.430  10.985  19.839  0.00  0.00    +0.000 A 
ATOM      7  C   UNL     1       0.182  10.139  18.915  0.00  0.00    +0.000 A 
ATOM      8  C   UNL     1      -0.508   9.770  17.758  0.00  0.00    +0.000 A 
ATOM      9  C   UNL     1      -1.801  10.243  17.528  0.00  0.00    +0.000 A 
BRANCH   4  11
ATOM     10  C   UNL     1      -4.438  12.348  19.448  0.00  0.00    +0.000 C 
ATOM     11  C   UNL     1      -3.796  11.627  18.292  0.00  0.00    +0.000 C 
ATOM     12  O   UNL     1      -4.366  11.528  17.203  0.00  0.00    +0.000 OA
ENDBRANCH   4  11
BRANCH   9  13
ATOM     13  O   UNL     1      -2.436   9.881  16.375  0.00  0.00    +0.000 OA
ATOM     14  H   UNL     1      -2.044   9.061  16.029  0.00  0.00    +0.000 HD
ENDBRANCH   9  13
ENDBRANCH   3   7
ENDBRANCH   2   3
ENDBRANCH   1   2
BRANCH   1  15
ATOM     15  C   UNL     1       2.249   7.123  19.312  0.00  0.00    +0.000 C 
BRANCH  15  16
ATOM     16  N   UNL     1       2.425   5.656  19.238  0.00  0.00    +0.000 NA
ATOM     17  C   UNL     1       2.145   5.162  17.880  0.00  0.00    +0.000 C 
ATOM     18  C   UNL     1       2.507   3.691  17.668  0.00  0.00    +0.000 C 
ATOM     19  C   UNL     1       3.968   3.385  18.053  0.00  0.00    +0.000 C 
ATOM     20  C   UNL     1       4.106   3.819  19.525  0.00  0.00    +0.000 C 
ATOM     21  C   UNL     1       3.772   5.300  19.713  0.00  0.00    +0.000 C 
BRANCH  19  22
ATOM     22  C   UNL     1       5.030   3.961  17.111  0.00  0.00    +0.000 A 
ATOM     23  C   UNL     1       4.779   4.130  15.735  0.00  0.00    +0.000 A 
ATOM     24  C   UNL     1       5.746   4.650  14.870  0.00  0.00    +0.000 A 
ATOM     25  C   UNL     1       6.982   5.051  15.363  0.00  0.00    +0.000 A 
ATOM     26  C   UNL     1       7.238   4.944  16.726  0.00  0.00    +0.000 A 
ATOM     27  C   UNL     1       6.271   4.414  17.589  0.00  0.00    +0.000 A 
ENDBRANCH  19  22
ENDBRANCH  15  16
ENDBRANCH   1  15
TORSDOF 8
ENDMDL
MODEL 4
REMARK VINA RESULT:      -7.4      6.460      8.866
REMARK  Name = 
REMARK  9 active torsions:
REMARK  status: ('A' for Active; 'I' for Inactive)
REMARK    1  A    between atoms: C_1  and  C_2
REMARK    2  A    between atoms: C_2  and  C_4
REMARK    3  A    between atoms: C_7  and  O_8
REMARK    4  A    between atoms: O_8  and  C_9
REMARK    5  A    between atoms: C_9  and  C_10
REMARK    6  A    between atoms: C_10  and  C_11
REMARK    7  A    between atoms: C_11  and  N_12
REMARK    8  A    between atoms: C_15  and  C_16
REMARK    9  A    between atoms: C_25  and  O_26
REMARK                            x       y       z     vdW  Elec       q    Type
REMARK                         _______ _______ _______ _____ _____    ______ ____
ROOT
ATOM      1  C   UNL     1       2.457   6.809  19.919  0.00  0.00    +0.000 C 
ENDROOT
BRANCH   1   2
ATOM      2  C   UNL     1       1.647   8.087  20.086  0.00  0.00    +0.000 C 
BRANCH   2   3
ATOM      3  O   UNL     1       1.498   8.349  21.482  0.00  0.00    +0.000 OA
BRANCH   3   7
ATOM      4  C   UNL     1      -1.175  11.468  22.231  0.00  0.00    +0.000 A 
ATOM      5  C   UNL     1      -0.975  10.495  23.224  0.00  0.00    +0.000 A 
ATOM      6  C   UNL     1      -0.095   9.434  23.007  0.00  0.00    +0.000 A 
ATOM      7  C   UNL     1       0.602   9.333  21.804  0.00  0.00    +0.000 A 
ATOM      8  C   UNL     1       0.412  10.299  20.815  0.00  0.00    +0.000 A 
ATOM      9  C   UNL     1      -0.472  11.359  21.026  0.00  0.00    +0.000 A 
BRANCH   4  11
ATOM     10  C   UNL     1      -3.245  12.294  23.523  0.00  0.00    +0.000 C 
ATOM     11  C   UNL     1      -2.142  12.552  22.531  0.00  0.00    +0.000 C 
ATOM     12  O   UNL     1      -1.995  13.661  22.013  0.00  0.00    +0.000 OA
ENDBRANCH   4  11
BRANCH   9  13
ATOM     13  O   UNL     1      -0.614  12.299  20.045  0.00  0.00    +0.000 OA
ATOM     14  H   UNL     1       0.089  12.189  19.383  0.00  0.00    +0.000 HD
ENDBRANCH   9  13
ENDBRANCH   3   7
ENDBRANCH   2   3
ENDBRANCH   1   2
BRANCH   1  15
ATOM     15  C   UNL     1       1.658   5.575  20.345  0.00  0.00    +0.000 C 
BRANCH  15  16
ATOM     16  N   UNL     1       2.014   4.340  19.614  0.00  0.00    +0.000 NA
ATOM     17  C   UNL     1       1.909   4.542  18.160  0.00  0.00    +0.000 C 
ATOM     18  C   UNL     1       2.461   3.382  17.331  0.00  0.00    +0.000 C 
ATOM     19  C   UNL     1       3.911   3.025  17.713  0.00  0.00    +0.000 C 
ATOM     20  C   UNL     1       3.874   2.705  19.220  0.00  0.00    +0.000 C 
ATOM     21  C   UNL     1       3.350   3.889  20.037  0.00  0.00    +0.000 C 
BRANCH  19  22
ATOM     22  C   UNL     1       4.971   4.051  17.299  0.00  0.00    +0.000 A 
ATOM     23  C   UNL     1       6.115   4.284  18.086  0.00  0.00    +0.000 A 
ATOM     24  C   UNL     1       7.084   5.222  17.717  0.00  0.00    +0.000 A 
ATOM     25  C   UNL     1       6.953   5.928  16.527  0.00  0.00    +0.000 A 
ATOM     26  C   UNL     1       5.860   5.681  15.705  0.00  0.00    +0.000 A 
ATOM     27  C   UNL     1       4.886   4.747  16.082  0.00  0.00    +0.000 A 
ENDBRANCH  19  22
ENDBRANCH  15  16
ENDBRANCH   1  15
TORSDOF 8
ENDMDL
MODEL 5
REMARK VINA RESULT:      -7.4      2.065      2.983
REMARK  Name = 
REMARK  9 active torsions:
REMARK  status: ('A' for Active; 'I' for Inactive)
REMARK    1  A    between atoms: C_1  and  C_2
REMARK    2  A    between atoms: C_2  and  C_4
REMARK    3  A    between atoms: C_7  and  O_8
REMARK    4  A    between atoms: O_8  and  C_9
REMARK    5  A    between atoms: C_9  and  C_10
REMARK    6  A    between atoms: C_10  and  C_11
REMARK    7  A    between atoms: C_11  and  N_12
REMARK    8  A    between atoms: C_15  and  C_16
REMARK    9  A    between atoms: C_25  and  O_26
REMARK                            x       y       z     vdW  Elec       q    Type
REMARK                         _______ _______ _______ _____ _____    ______ ____
ROOT
ATOM      1  C   UNL     1       7.689   7.807  17.714  0.00  0.00    +0.000 C 
ENDROOT
BRANCH   1   2
ATOM      2  C   UNL     1       8.451   8.862  18.504  0.00  0.00    +0.000 C 
BRANCH   2   3
ATOM      3  O   UNL     1       8.636  10.006  17.670  0.00  0.00    +0.000 OA
BRANCH   3   7
ATOM      4  C   UNL     1      10.134  13.263  19.810  0.00  0.00    +0.000 A 
ATOM      5  C   UNL     1       9.911  13.404  18.431  0.00  0.00    +0.000 A 
ATOM      6  C   UNL     1       9.418  12.336  17.681  0.00  0.00    +0.000 A 
ATOM      7  C   UNL     1       9.133  11.118  18.296  0.00  0.00    +0.000 A 
ATOM      8  C   UNL     1       9.348  10.971  19.667  0.00  0.00    +0.000 A 
ATOM      9  C   UNL     1       9.846  12.036  20.420  0.00  0.00    +0.000 A 
BRANCH   4  11
ATOM     10  C   UNL     1      11.899  15.132  19.983  0.00  0.00    +0.000 C 
ATOM     11  C   UNL     1      10.680  14.438  20.533  0.00  0.00    +0.000 C 
ATOM     12  O   UNL     1      10.096  14.866  21.531  0.00  0.00    +0.000 OA
ENDBRANCH   4  11
BRANCH   9  13
ATOM     13  O   UNL     1      10.021  11.864  21.763  0.00  0.00    +0.000 OA
ATOM     14  H   UNL     1       9.194  11.542  22.161  0.00  0.00    +0.000 HD
ENDBRANCH   9  13
ENDBRANCH   3   7
ENDBRANCH   2   3
ENDBRANCH   1   2
BRANCH   1  15
ATOM     15  C   UNL     1       7.818   6.422  18.353  0.00  0.00    +0.000 C 
BRANCH  15  16
ATOM     16  N   UNL     1       6.716   5.495  18.018  0.00  0.00    +0.000 NA
ATOM     17  C   UNL     1       5.931   5.159  19.217  0.00  0.00    +0.000 C 
ATOM     18  C   UNL     1       4.651   4.375  18.920  0.00  0.00    +0.000 C 
ATOM     19  C   UNL     1       3.757   5.081  17.882  0.00  0.00    +0.000 C 
ATOM     20  C   UNL     1       4.640   5.260  16.632  0.00  0.00    +0.000 C 
ATOM     21  C   UNL     1       5.900   6.074  16.939  0.00  0.00    +0.000 C 
BRANCH  19  22
ATOM     22  C   UNL     1       3.067   6.359  18.370  0.00  0.00    +0.000 A 
ATOM     23  C   UNL     1       2.825   7.441  17.502  0.00  0.00    +0.000 A 
ATOM     24  C   UNL     1       2.199   8.611  17.943  0.00  0.00    +0.000 A 
ATOM     25  C   UNL     1       1.763   8.718  19.258  0.00  0.00    +0.000 A 
ATOM     26  C   UNL     1       1.943   7.644  20.124  0.00  0.00    +0.000 A 
ATOM     27  C   UNL     1       2.578   6.477  19.682  0.00  0.00    +0.000 A 
ENDBRANCH  19  22
ENDBRANCH  15  16
ENDBRANCH   1  15
TORSDOF 8
ENDMDL
MODEL 6
REMARK VINA RESULT:      -7.3      1.930      2.763
REMARK  Name = 
REMARK  9 active torsions:
REMARK  status: ('A' for Active; 'I' for Inactive)
REMARK    1  A    between atoms: C_1  and  C_2
REMARK    2  A    between atoms: C_2  and  C_4
REMARK    3  A    between atoms: C_7  and  O_8
REMARK    4  A    between atoms: O_8  and  C_9
REMARK    5  A    between atoms: C_9  and  C_10
REMARK    6  A    between atoms: C_10  and  C_11
REMARK    7  A    between atoms: C_11  and  N_12
REMARK    8  A    between atoms: C_15  and  C_16
REMARK    9  A    between atoms: C_25  and  O_26
REMARK                            x       y       z     vdW  Elec       q    Type
REMARK                         _______ _______ _______ _____ _____    ______ ____
ROOT
ATOM      1  C   UNL     1       7.018   7.919  17.838  0.00  0.00    +0.000 C 
ENDROOT
BRANCH   1   2
ATOM      2  C   UNL     1       8.196   8.864  17.649  0.00  0.00    +0.000 C 
BRANCH   2   3
ATOM      3  O   UNL     1       8.844   9.038  18.909  0.00  0.00    +0.000 OA
BRANCH   3   7
ATOM      4  C   UNL     1      10.145  12.965  19.476  0.00  0.00    +0.000 A 
ATOM      5  C   UNL     1      10.034  12.121  20.593  0.00  0.00    +0.000 A 
ATOM      6  C   UNL     1       9.596  10.804  20.444  0.00  0.00    +0.000 A 
ATOM      7  C   UNL     1       9.272  10.310  19.181  0.00  0.00    +0.000 A 
ATOM      8  C   UNL     1       9.384  11.142  18.066  0.00  0.00    +0.000 A 
ATOM      9  C   UNL     1       9.817  12.461  18.212  0.00  0.00    +0.000 A 
BRANCH   4  11
ATOM     10  C   UNL     1      10.427  14.949  21.096  0.00  0.00    +0.000 C 
ATOM     11  C   UNL     1      10.598  14.356  19.721  0.00  0.00    +0.000 C 
ATOM     12  O   UNL     1      11.159  14.983  18.820  0.00  0.00    +0.000 OA
ENDBRANCH   4  11
BRANCH   9  13
ATOM     13  O   UNL     1       9.938  13.238  17.096  0.00  0.00    +0.000 OA
ATOM     14  H   UNL     1       9.714  14.159  17.314  0.00  0.00    +0.000 HD
ENDBRANCH   9  13
ENDBRANCH   3   7
ENDBRANCH   2   3
ENDBRANCH   1   2
BRANCH   1  15
ATOM     15  C   UNL     1       7.349   6.503  17.361  0.00  0.00    +0.000 C 
BRANCH  15  16
ATOM     16  N   UNL     1       6.293   5.506  17.642  0.00  0.00    +0.000 NA
ATOM     17  C   UNL     1       5.901   5.544  19.060  0.00  0.00    +0.000 C 
ATOM     18  C   UNL     1       4.672   4.694  19.386  0.00  0.00    +0.000 C 
ATOM     19  C   UNL     1       3.465   5.039  18.492  0.00  0.00    +0.000 C 
ATOM     20  C   UNL     1       3.952   4.837  17.045  0.00  0.00    +0.000 C 
ATOM     21  C   UNL     1       5.162   5.719  16.725  0.00  0.00    +0.000 C 
BRANCH  19  22
ATOM     22  C   UNL     1       2.811   6.398  18.766  0.00  0.00    +0.000 A 
ATOM     23  C   UNL     1       2.665   7.362  17.751  0.00  0.00    +0.000 A 
ATOM     24  C   UNL     1       2.074   8.605  17.996  0.00  0.00    +0.000 A 
ATOM     25  C   UNL     1       1.577   8.905  19.259  0.00  0.00    +0.000 A 
ATOM     26  C   UNL     1       1.661   7.952  20.268  0.00  0.00    +0.000 A 
ATOM     27  C   UNL     1       2.262   6.710  20.022  0.00  0.00    +0.000 A 
ENDBRANCH  19  22
ENDBRANCH  15  16
ENDBRANCH   1  15
TORSDOF 8
ENDMDL
MODEL 7
REMARK VINA RESULT:      -7.3      6.470      8.005
REMARK  Name = 
REMARK  9 active torsions:
REMARK  status: ('A' for Active; 'I' for Inactive)
REMARK    1  A    between atoms: C_1  and  C_2
REMARK    2  A    between atoms: C_2  and  C_4
REMARK    3  A    between atoms: C_7  and  O_8
REMARK    4  A    between atoms: O_8  and  C_9
REMARK    5  A    between atoms: C_9  and  C_10
REMARK    6  A    between atoms: C_10  and  C_11
REMARK    7  A    between atoms: C_11  and  N_12
REMARK    8  A    between atoms: C_15  and  C_16
REMARK    9  A    between atoms: C_25  and  O_26
REMARK                            x       y       z     vdW  Elec       q    Type
REMARK                         _______ _______ _______ _____ _____    ______ ____
ROOT
ATOM      1  C   UNL     1       1.981   4.673  21.257  0.00  0.00    +0.000 C 
ENDROOT
BRANCH   1   2
ATOM      2  C   UNL     1       1.419   5.798  20.400  0.00  0.00    +0.000 C 
BRANCH   2   3
ATOM      3  O   UNL     1       2.136   6.997  20.700  0.00  0.00    +0.000 OA
BRANCH   3   7
ATOM      4  C   UNL     1       0.424  10.544  19.315  0.00  0.00    +0.000 A 
ATOM      5  C   UNL     1       0.040  10.053  20.573  0.00  0.00    +0.000 A 
ATOM      6  C   UNL     1       0.585   8.867  21.067  0.00  0.00    +0.000 A 
ATOM      7  C   UNL     1       1.525   8.160  20.318  0.00  0.00    +0.000 A 
ATOM      8  C   UNL     1       1.915   8.645  19.068  0.00  0.00    +0.000 A 
ATOM      9  C   UNL     1       1.368   9.828  18.569  0.00  0.00    +0.000 A 
BRANCH   4  11
ATOM     10  C   UNL     1      -1.709  11.951  18.990  0.00  0.00    +0.000 C 
ATOM     11  C   UNL     1      -0.217  11.799  18.853  0.00  0.00    +0.000 C 
ATOM     12  O   UNL     1       0.482  12.719  18.423  0.00  0.00    +0.000 OA
ENDBRANCH   4  11
BRANCH   9  13
ATOM     13  O   UNL     1       1.791  10.284  17.354  0.00  0.00    +0.000 OA
ATOM     14  H   UNL     1       2.439   9.664  16.979  0.00  0.00    +0.000 HD
ENDBRANCH   9  13
ENDBRANCH   3   7
ENDBRANCH   2   3
ENDBRANCH   1   2
BRANCH   1  15
ATOM     15  C   UNL     1       1.310   3.334  20.939  0.00  0.00    +0.000 C 
BRANCH  15  16
ATOM     16  N   UNL     1       2.070   2.483  19.997  0.00  0.00    +0.000 NA
ATOM     17  C   UNL     1       1.639   2.723  18.610  0.00  0.00    +0.000 C 
ATOM     18  C   UNL     1       2.518   2.040  17.561  0.00  0.00    +0.000 C 
ATOM     19  C   UNL     1       4.008   2.396  17.722  0.00  0.00    +0.000 C 
ATOM     20  C   UNL     1       4.379   1.981  19.159  0.00  0.00    +0.000 C 
ATOM     21  C   UNL     1       3.512   2.699  20.197  0.00  0.00    +0.000 C 
BRANCH  19  22
ATOM     22  C   UNL     1       4.385   3.834  17.351  0.00  0.00    +0.000 A 
ATOM     23  C   UNL     1       4.874   4.158  16.071  0.00  0.00    +0.000 A 
ATOM     24  C   UNL     1       5.223   5.468  15.727  0.00  0.00    +0.000 A 
ATOM     25  C   UNL     1       5.058   6.498  16.645  0.00  0.00    +0.000 A 
ATOM     26  C   UNL     1       4.529   6.215  17.899  0.00  0.00    +0.000 A 
ATOM     27  C   UNL     1       4.188   4.901  18.244  0.00  0.00    +0.000 A 
ENDBRANCH  19  22
ENDBRANCH  15  16
ENDBRANCH   1  15
TORSDOF 8
ENDMDL
MODEL 8
REMARK VINA RESULT:      -7.3      3.070     10.588
REMARK  Name = 
REMARK  9 active torsions:
REMARK  status: ('A' for Active; 'I' for Inactive)
REMARK    1  A    between atoms: C_1  and  C_2
REMARK    2  A    between atoms: C_2  and  C_4
REMARK    3  A    between atoms: C_7  and  O_8
REMARK    4  A    between atoms: O_8  and  C_9
REMARK    5  A    between atoms: C_9  and  C_10
REMARK    6  A    between atoms: C_10  and  C_11
REMARK    7  A    between atoms: C_11  and  N_12
REMARK    8  A    between atoms: C_15  and  C_16
REMARK    9  A    between atoms: C_25  and  O_26
REMARK                            x       y       z     vdW  Elec       q    Type
REMARK                         _______ _______ _______ _____ _____    ______ ____
ROOT
ATOM      1  C   UNL     1       8.319   8.493  17.882  0.00  0.00    +0.000 C 
ENDROOT
BRANCH   1   2
ATOM      2  C   UNL     1       6.918   8.036  17.501  0.00  0.00    +0.000 C 
BRANCH   2   3
ATOM      3  O   UNL     1       7.024   6.825  16.752  0.00  0.00    +0.000 OA
BRANCH   3   7
ATOM      4  C   UNL     1       3.683   4.376  17.276  0.00  0.00    +0.000 A 
ATOM      5  C   UNL     1       4.726   3.931  16.448  0.00  0.00    +0.000 A 
ATOM      6  C   UNL     1       5.855   4.724  16.243  0.00  0.00    +0.000 A 
ATOM      7  C   UNL     1       5.964   5.966  16.866  0.00  0.00    +0.000 A 
ATOM      8  C   UNL     1       4.934   6.414  17.695  0.00  0.00    +0.000 A 
ATOM      9  C   UNL     1       3.801   5.625  17.899  0.00  0.00    +0.000 A 
BRANCH   4  11
ATOM     10  C   UNL     1       2.728   2.047  17.822  0.00  0.00    +0.000 C 
ATOM     11  C   UNL     1       2.508   3.483  17.426  0.00  0.00    +0.000 C 
ATOM     12  O   UNL     1       1.372   3.942  17.287  0.00  0.00    +0.000 OA
ENDBRANCH   4  11
BRANCH   9  13
ATOM     13  O   UNL     1       2.824   6.084  18.735  0.00  0.00    +0.000 OA
ATOM     14  H   UNL     1       2.066   5.475  18.718  0.00  0.00    +0.000 HD
ENDBRANCH   9  13
ENDBRANCH   3   7
ENDBRANCH   2   3
ENDBRANCH   1   2
BRANCH   1  15
ATOM     15  C   UNL     1       8.349   9.982  18.237  0.00  0.00    +0.000 C 
BRANCH  15  16
ATOM     16  N   UNL     1       9.635  10.443  18.804  0.00  0.00    +0.000 NA
ATOM     17  C   UNL     1      10.389  11.234  17.817  0.00  0.00    +0.000 C 
ATOM     18  C   UNL     1      11.628  11.922  18.391  0.00  0.00    +0.000 C 
ATOM     19  C   UNL     1      11.302  12.787  19.624  0.00  0.00    +0.000 C 
ATOM     20  C   UNL     1      10.640  11.830  20.635  0.00  0.00    +0.000 C 
ATOM     21  C   UNL     1       9.383  11.175  20.056  0.00  0.00    +0.000 C 
BRANCH  19  22
ATOM     22  C   UNL     1      10.511  14.067  19.339  0.00  0.00    +0.000 A 
ATOM     23  C   UNL     1      10.510  14.662  18.062  0.00  0.00    +0.000 A 
ATOM     24  C   UNL     1       9.794  15.833  17.797  0.00  0.00    +0.000 A 
ATOM     25  C   UNL     1       9.028  16.424  18.794  0.00  0.00    +0.000 A 
ATOM     26  C   UNL     1       8.970  15.830  20.050  0.00  0.00    +0.000 A 
ATOM     27  C   UNL     1       9.694  14.662  20.316  0.00  0.00    +0.000 A 
ENDBRANCH  19  22
ENDBRANCH  15  16
ENDBRANCH   1  15
TORSDOF 8
ENDMDL
MODEL 9
REMARK VINA RESULT:      -7.3      2.964     10.665
REMARK  Name = 
REMARK  9 active torsions:
REMARK  status: ('A' for Active; 'I' for Inactive)
REMARK    1  A    between atoms: C_1  and  C_2
REMARK    2  A    between atoms: C_2  and  C_4
REMARK    3  A    between atoms: C_7  and  O_8
REMARK    4  A    between atoms: O_8  and  C_9
REMARK    5  A    between atoms: C_9  and  C_10
REMARK    6  A    between atoms: C_10  and  C_11
REMARK    7  A    between atoms: C_11  and  N_12
REMARK    8  A    between atoms: C_15  and  C_16
REMARK    9  A    between atoms: C_25  and  O_26
REMARK                            x       y       z     vdW  Elec       q    Type
REMARK                         _______ _______ _______ _____ _____    ______ ____
ROOT
ATOM      1  C   UNL     1       8.495   8.655  18.293  0.00  0.00    +0.000 C 
ENDROOT
BRANCH   1   2
ATOM      2  C   UNL     1       7.345   8.185  17.414  0.00  0.00    +0.000 C 
BRANCH   2   3
ATOM      3  O   UNL     1       7.663   6.887  16.909  0.00  0.00    +0.000 OA
BRANCH   3   7
ATOM      4  C   UNL     1       4.436   4.256  17.219  0.00  0.00    +0.000 A 
ATOM      5  C   UNL     1       5.531   3.893  16.419  0.00  0.00    +0.000 A 
ATOM      6  C   UNL     1       6.625   4.748  16.286  0.00  0.00    +0.000 A 
ATOM      7  C   UNL     1       6.645   5.973  16.953  0.00  0.00    +0.000 A 
ATOM      8  C   UNL     1       5.562   6.339  17.754  0.00  0.00    +0.000 A 
ATOM      9  C   UNL     1       4.464   5.487  17.885  0.00  0.00    +0.000 A 
BRANCH   4  11
ATOM     10  C   UNL     1       3.531   1.945  17.910  0.00  0.00    +0.000 C 
ATOM     11  C   UNL     1       3.303   3.300  17.293  0.00  0.00    +0.000 C 
ATOM     12  O   UNL     1       2.186   3.648  16.907  0.00  0.00    +0.000 OA
ENDBRANCH   4  11
BRANCH   9  13
ATOM     13  O   UNL     1       3.433   5.867  18.696  0.00  0.00    +0.000 OA
ATOM     14  H   UNL     1       2.716   5.212  18.643  0.00  0.00    +0.000 HD
ENDBRANCH   9  13
ENDBRANCH   3   7
ENDBRANCH   2   3
ENDBRANCH   1   2
BRANCH   1  15
ATOM     15  C   UNL     1       8.714  10.166  18.174  0.00  0.00    +0.000 C 
BRANCH  15  16
ATOM     16  N   UNL     1       9.837  10.681  18.987  0.00  0.00    +0.000 NA
ATOM     17  C   UNL     1      10.918  11.187  18.125  0.00  0.00    +0.000 C 
ATOM     18  C   UNL     1      12.021  11.927  18.885  0.00  0.00    +0.000 C 
ATOM     19  C   UNL     1      11.466  13.066  19.763  0.00  0.00    +0.000 C 
ATOM     20  C   UNL     1      10.448  12.399  20.708  0.00  0.00    +0.000 C 
ATOM     21  C   UNL     1       9.334  11.691  19.932  0.00  0.00    +0.000 C 
BRANCH  19  22
ATOM     22  C   UNL     1      10.935  14.284  19.002  0.00  0.00    +0.000 A 
ATOM     23  C   UNL     1       9.992  15.157  19.578  0.00  0.00    +0.000 A 
ATOM     24  C   UNL     1       9.500  16.268  18.887  0.00  0.00    +0.000 A 
ATOM     25  C   UNL     1       9.966  16.559  17.610  0.00  0.00    +0.000 A 
ATOM     26  C   UNL     1      10.936  15.744  17.037  0.00  0.00    +0.000 A 
ATOM     27  C   UNL     1      11.421  14.626  17.729  0.00  0.00    +0.000 A 
ENDBRANCH  19  22
ENDBRANCH  15  16
ENDBRANCH   1  15
TORSDOF 8
ENDMDL
