MODEL 1
REMARK VINA RESULT:      -6.2      0.000      0.000
REMARK  Name = 
REMARK  9 active torsions:
REMARK  status: ('A' for Active; 'I' for Inactive)
REMARK    1  A    between atoms: C_1  and  C_2
REMARK    2  A    between atoms: C_4  and  C_5
REMARK    3  A    between atoms: C_5  and  N_6
REMARK    4  A    between atoms: N_6  and  C_7
REMARK    5  A    between atoms: C_8  and  C_10
REMARK    6  A    between atoms: C_10  and  S_11
REMARK    7  A    between atoms: S_11  and  C_12
REMARK    8  A    between atoms: C_12  and  C_13
REMARK    9  A    between atoms: C_13  and  N_14
REMARK                            x       y       z     vdW  Elec       q    Type
REMARK                         _______ _______ _______ _____ _____    ______ ____
ROOT
ATOM      1  N   UNL     1       5.473   5.720  17.986  0.00  0.00    +0.000 N 
ATOM      2  C   UNL     1       5.766   4.683  18.969  0.00  0.00    +0.000 C 
ATOM      3  C   UNL     1       4.250   6.391  17.916  0.00  0.00    +0.000 C 
ATOM      4  O   UNL     1       4.108   7.375  17.187  0.00  0.00    +0.000 OA
ENDROOT
BRANCH   1   5
ATOM      5  C   UNL     1       6.579   6.207  17.163  0.00  0.00    +0.000 C 
BRANCH   5   9
ATOM      6  C   UNL     1       6.083   3.516  12.843  0.00  0.00    +0.000 C 
ATOM      7  C   UNL     1       6.490   4.401  13.958  0.00  0.00    +0.000 A 
ATOM      8  C   UNL     1       5.798   4.682  15.158  0.00  0.00    +0.000 A 
ATOM      9  C   UNL     1       6.618   5.556  15.832  0.00  0.00    +0.000 A 
ATOM     10  O   UNL     1       7.735   5.776  15.087  0.00  0.00    +0.000 OA
ATOM     11  N   UNL     1       7.658   5.052  13.911  0.00  0.00    +0.000 NA
ENDBRANCH   5   9
ENDBRANCH   1   5
BRANCH   3  12
ATOM     12  C   UNL     1       3.113   5.818  18.765  0.00  0.00    +0.000 C 
BRANCH  12  13
ATOM     13  S   UNL     1       1.779   5.058  17.792  0.00  0.00    +0.000 S 
BRANCH  13  14
ATOM     14  C   UNL     1       2.679   3.615  17.104  0.00  0.00    +0.000 C 
BRANCH  14  15
ATOM     15  C   UNL     1       2.632   2.457  18.114  0.00  0.00    +0.000 C 
BRANCH  15  16
ATOM     16  N   UNL     1       2.376   2.874  19.497  0.00  0.00    +0.000 NA
ATOM     17  C   UNL     1       1.112   2.328  20.005  0.00  0.00    +0.000 C 
ATOM     18  C   UNL     1       1.187   2.757  21.457  0.00  0.00    +0.000 C 
ATOM     19  C   UNL     1       2.646   2.513  21.820  0.00  0.00    +0.000 C 
ATOM     20  C   UNL     1       3.387   2.468  20.476  0.00  0.00    +0.000 C 
ENDBRANCH  15  16
ENDBRANCH  14  15
ENDBRANCH  13  14
ENDBRANCH  12  13
ENDBRANCH   3  12
TORSDOF 7
ENDMDL
MODEL 2
REMARK VINA RESULT:      -6.2      1.319      2.155
REMARK  Name = 
REMARK  9 active torsions:
REMARK  status: ('A' for Active; 'I' for Inactive)
REMARK    1  A    between atoms: C_1  and  C_2
REMARK    2  A    between atoms: C_4  and  C_5
REMARK    3  A    between atoms: C_5  and  N_6
REMARK    4  A    between atoms: N_6  and  C_7
REMARK    5  A    between atoms: C_8  and  C_10
REMARK    6  A    between atoms: C_10  and  S_11
REMARK    7  A    between atoms: S_11  and  C_12
REMARK    8  A    between atoms: C_12  and  C_13
REMARK    9  A    between atoms: C_13  and  N_14
REMARK                            x       y       z     vdW  Elec       q    Type
REMARK                         _______ _______ _______ _____ _____    ______ ____
ROOT
ATOM      1  N   UNL     1       5.044   5.923  18.372  0.00  0.00    +0.000 N 
ATOM      2  C   UNL     1       6.032   5.025  18.958  0.00  0.00    +0.000 C 
ATOM      3  C   UNL     1       3.784   6.153  18.930  0.00  0.00    +0.000 C 
ATOM      4  O   UNL     1       3.054   7.047  18.499  0.00  0.00    +0.000 OA
ENDROOT
BRANCH   1   5
ATOM      5  C   UNL     1       5.469   6.764  17.254  0.00  0.00    +0.000 C 
BRANCH   5   9
ATOM      6  C   UNL     1       6.271   3.639  13.286  0.00  0.00    +0.000 C 
ATOM      7  C   UNL     1       6.343   4.614  14.397  0.00  0.00    +0.000 A 
ATOM      8  C   UNL     1       5.301   5.079  15.232  0.00  0.00    +0.000 A 
ATOM      9  C   UNL     1       5.913   5.964  16.087  0.00  0.00    +0.000 A 
ATOM     10  O   UNL     1       7.240   6.018  15.790  0.00  0.00    +0.000 OA
ATOM     11  N   UNL     1       7.513   5.172  14.730  0.00  0.00    +0.000 NA
ENDBRANCH   5   9
ENDBRANCH   1   5
BRANCH   3  12
ATOM     12  C   UNL     1       3.369   5.221  20.071  0.00  0.00    +0.000 C 
BRANCH  12  13
ATOM     13  S   UNL     1       1.656   5.459  20.630  0.00  0.00    +0.000 S 
BRANCH  13  14
ATOM     14  C   UNL     1       1.010   3.759  20.382  0.00  0.00    +0.000 C 
BRANCH  14  15
ATOM     15  C   UNL     1       0.808   3.505  18.880  0.00  0.00    +0.000 C 
BRANCH  15  16
ATOM     16  N   UNL     1       1.759   2.551  18.298  0.00  0.00    +0.000 NA
ATOM     17  C   UNL     1       2.695   3.209  17.379  0.00  0.00    +0.000 C 
ATOM     18  C   UNL     1       3.638   2.063  17.073  0.00  0.00    +0.000 C 
ATOM     19  C   UNL     1       3.813   1.382  18.425  0.00  0.00    +0.000 C 
ATOM     20  C   UNL     1       2.605   1.839  19.258  0.00  0.00    +0.000 C 
ENDBRANCH  15  16
ENDBRANCH  14  15
ENDBRANCH  13  14
ENDBRANCH  12  13
ENDBRANCH   3  12
TORSDOF 7
ENDMDL
MODEL 3
REMARK VINA RESULT:      -6.2      3.029      4.144
REMARK  Name = 
REMARK  9 active torsions:
REMARK  status: ('A' for Active; 'I' for Inactive)
REMARK    1  A    between atoms: C_1  and  C_2
REMARK    2  A    between atoms: C_4  and  C_5
REMARK    3  A    between atoms: C_5  and  N_6
REMARK    4  A    between atoms: N_6  and  C_7
REMARK    5  A    between atoms: C_8  and  C_10
REMARK    6  A    between atoms: C_10  and  S_11
REMARK    7  A    between atoms: S_11  and  C_12
REMARK    8  A    between atoms: C_12  and  C_13
REMARK    9  A    between atoms: C_13  and  N_14
REMARK                            x       y       z     vdW  Elec       q    Type
REMARK                         _______ _______ _______ _____ _____    ______ ____
ROOT
ATOM      1  N   UNL     1       5.932   5.487  17.863  0.00  0.00    +0.000 N 
ATOM      2  C   UNL     1       5.427   6.753  17.346  0.00  0.00    +0.000 C 
ATOM      3  C   UNL     1       5.258   4.720  18.816  0.00  0.00    +0.000 C 
ATOM      4  O   UNL     1       5.634   3.579  19.093  0.00  0.00    +0.000 OA
ENDROOT
BRANCH   1   5
ATOM      5  C   UNL     1       7.105   4.906  17.211  0.00  0.00    +0.000 C 
BRANCH   5   9
ATOM      6  C   UNL     1       5.952   3.445  12.448  0.00  0.00    +0.000 C 
ATOM      7  C   UNL     1       6.465   4.082  13.682  0.00  0.00    +0.000 A 
ATOM      8  C   UNL     1       6.121   3.806  15.025  0.00  0.00    +0.000 A 
ATOM      9  C   UNL     1       6.887   4.678  15.762  0.00  0.00    +0.000 A 
ATOM     10  O   UNL     1       7.649   5.422  14.914  0.00  0.00    +0.000 OA
ATOM     11  N   UNL     1       7.386   5.049  13.608  0.00  0.00    +0.000 NA
ENDBRANCH   5   9
ENDBRANCH   1   5
BRANCH   3  12
ATOM     12  C   UNL     1       4.062   5.387  19.500  0.00  0.00    +0.000 C 
BRANCH  12  13
ATOM     13  S   UNL     1       2.501   5.216  18.585  0.00  0.00    +0.000 S 
BRANCH  13  14
ATOM     14  C   UNL     1       1.981   6.974  18.526  0.00  0.00    +0.000 C 
BRANCH  14  15
ATOM     15  C   UNL     1       2.189   7.613  19.909  0.00  0.00    +0.000 C 
BRANCH  15  16
ATOM     16  N   UNL     1       1.077   8.460  20.354  0.00  0.00    +0.000 NA
ATOM     17  C   UNL     1       1.121   8.698  21.802  0.00  0.00    +0.000 C 
ATOM     18  C   UNL     1       0.001   9.709  21.952  0.00  0.00    +0.000 C 
ATOM     19  C   UNL     1       0.183  10.616  20.743  0.00  0.00    +0.000 C 
ATOM     20  C   UNL     1       1.018   9.793  19.751  0.00  0.00    +0.000 C 
ENDBRANCH  15  16
ENDBRANCH  14  15
ENDBRANCH  13  14
ENDBRANCH  12  13
ENDBRANCH   3  12
TORSDOF 7
ENDMDL
MODEL 4
REMARK VINA RESULT:      -6.1      1.758      2.298
REMARK  Name = 
REMARK  9 active torsions:
REMARK  status: ('A' for Active; 'I' for Inactive)
REMARK    1  A    between atoms: C_1  and  C_2
REMARK    2  A    between atoms: C_4  and  C_5
REMARK    3  A    between atoms: C_5  and  N_6
REMARK    4  A    between atoms: N_6  and  C_7
REMARK    5  A    between atoms: C_8  and  C_10
REMARK    6  A    between atoms: C_10  and  S_11
REMARK    7  A    between atoms: S_11  and  C_12
REMARK    8  A    between atoms: C_12  and  C_13
REMARK    9  A    between atoms: C_13  and  N_14
REMARK                            x       y       z     vdW  Elec       q    Type
REMARK                         _______ _______ _______ _____ _____    ______ ____
ROOT
ATOM      1  N   UNL     1       6.432   5.320  16.216  0.00  0.00    +0.000 N 
ATOM      2  C   UNL     1       6.884   4.448  17.294  0.00  0.00    +0.000 C 
ATOM      3  C   UNL     1       5.288   6.119  16.299  0.00  0.00    +0.000 C 
ATOM      4  O   UNL     1       5.043   6.965  15.438  0.00  0.00    +0.000 OA
ENDROOT
BRANCH   1   5
ATOM      5  C   UNL     1       7.325   5.507  15.074  0.00  0.00    +0.000 C 
BRANCH   5   9
ATOM      6  C   UNL     1       5.417   2.348  11.534  0.00  0.00    +0.000 C 
ATOM      7  C   UNL     1       6.149   3.364  12.322  0.00  0.00    +0.000 A 
ATOM      8  C   UNL     1       5.956   3.743  13.670  0.00  0.00    +0.000 A 
ATOM      9  C   UNL     1       6.898   4.719  13.893  0.00  0.00    +0.000 A 
ATOM     10  O   UNL     1       7.617   4.906  12.752  0.00  0.00    +0.000 OA
ATOM     11  N   UNL     1       7.150   4.056  11.765  0.00  0.00    +0.000 NA
ENDBRANCH   5   9
ENDBRANCH   1   5
BRANCH   3  12
ATOM     12  C   UNL     1       4.365   5.857  17.492  0.00  0.00    +0.000 C 
BRANCH  12  13
ATOM     13  S   UNL     1       3.274   7.253  17.899  0.00  0.00    +0.000 S 
BRANCH  13  14
ATOM     14  C   UNL     1       2.467   6.586  19.405  0.00  0.00    +0.000 C 
BRANCH  14  15
ATOM     15  C   UNL     1       3.241   5.351  19.893  0.00  0.00    +0.000 C 
BRANCH  15  16
ATOM     16  N   UNL     1       2.450   4.115  19.915  0.00  0.00    +0.000 NA
ATOM     17  C   UNL     1       1.420   4.111  18.869  0.00  0.00    +0.000 C 
ATOM     18  C   UNL     1       0.892   2.696  19.004  0.00  0.00    +0.000 C 
ATOM     19  C   UNL     1       2.152   1.871  19.228  0.00  0.00    +0.000 C 
ATOM     20  C   UNL     1       3.207   2.878  19.710  0.00  0.00    +0.000 C 
ENDBRANCH  15  16
ENDBRANCH  14  15
ENDBRANCH  13  14
ENDBRANCH  12  13
ENDBRANCH   3  12
TORSDOF 7
ENDMDL
MODEL 5
REMARK VINA RESULT:      -6.1      2.905      4.305
REMARK  Name = 
REMARK  9 active torsions:
REMARK  status: ('A' for Active; 'I' for Inactive)
REMARK    1  A    between atoms: C_1  and  C_2
REMARK    2  A    between atoms: C_4  and  C_5
REMARK    3  A    between atoms: C_5  and  N_6
REMARK    4  A    between atoms: N_6  and  C_7
REMARK    5  A    between atoms: C_8  and  C_10
REMARK    6  A    between atoms: C_10  and  S_11
REMARK    7  A    between atoms: S_11  and  C_12
REMARK    8  A    between atoms: C_12  and  C_13
REMARK    9  A    between atoms: C_13  and  N_14
REMARK                            x       y       z     vdW  Elec       q    Type
REMARK                         _______ _______ _______ _____ _____    ______ ____
ROOT
ATOM      1  N   UNL     1       5.033   5.182  17.769  0.00  0.00    +0.000 N 
ATOM      2  C   UNL     1       4.646   6.557  17.478  0.00  0.00    +0.000 C 
ATOM      3  C   UNL     1       4.139   4.210  18.224  0.00  0.00    +0.000 C 
ATOM      4  O   UNL     1       4.471   3.024  18.290  0.00  0.00    +0.000 OA
ENDROOT
BRANCH   1   5
ATOM      5  C   UNL     1       6.378   4.758  17.383  0.00  0.00    +0.000 C 
BRANCH   5   9
ATOM      6  C   UNL     1       6.506   3.753  12.370  0.00  0.00    +0.000 C 
ATOM      7  C   UNL     1       6.672   4.272  13.747  0.00  0.00    +0.000 A 
ATOM      8  C   UNL     1       6.011   3.866  14.928  0.00  0.00    +0.000 A 
ATOM      9  C   UNL     1       6.539   4.668  15.912  0.00  0.00    +0.000 A 
ATOM     10  O   UNL     1       7.465   5.496  15.355  0.00  0.00    +0.000 OA
ATOM     11  N   UNL     1       7.552   5.249  13.997  0.00  0.00    +0.000 NA
ENDBRANCH   5   9
ENDBRANCH   1   5
BRANCH   3  12
ATOM     12  C   UNL     1       2.758   4.709  18.655  0.00  0.00    +0.000 C 
BRANCH  12  13
ATOM     13  S   UNL     1       2.485   4.662  20.452  0.00  0.00    +0.000 S 
BRANCH  13  14
ATOM     14  C   UNL     1       1.453   6.165  20.648  0.00  0.00    +0.000 C 
BRANCH  14  15
ATOM     15  C   UNL     1       2.179   7.367  20.022  0.00  0.00    +0.000 C 
BRANCH  15  16
ATOM     16  N   UNL     1       1.285   8.429  19.548  0.00  0.00    +0.000 NA
ATOM     17  C   UNL     1       0.997   9.408  20.603  0.00  0.00    +0.000 C 
ATOM     18  C   UNL     1       0.226  10.448  19.815  0.00  0.00    +0.000 C 
ATOM     19  C   UNL     1       0.990  10.530  18.500  0.00  0.00    +0.000 C 
ATOM     20  C   UNL     1       1.788   9.220  18.422  0.00  0.00    +0.000 C 
ENDBRANCH  15  16
ENDBRANCH  14  15
ENDBRANCH  13  14
ENDBRANCH  12  13
ENDBRANCH   3  12
TORSDOF 7
ENDMDL
MODEL 6
REMARK VINA RESULT:      -6.0      3.388      4.634
REMARK  Name = 
REMARK  9 active torsions:
REMARK  status: ('A' for Active; 'I' for Inactive)
REMARK    1  A    between atoms: C_1  and  C_2
REMARK    2  A    between atoms: C_4  and  C_5
REMARK    3  A    between atoms: C_5  and  N_6
REMARK    4  A    between atoms: N_6  and  C_7
REMARK    5  A    between atoms: C_8  and  C_10
REMARK    6  A    between atoms: C_10  and  S_11
REMARK    7  A    between atoms: S_11  and  C_12
REMARK    8  A    between atoms: C_12  and  C_13
REMARK    9  A    between atoms: C_13  and  N_14
REMARK                            x       y       z     vdW  Elec       q    Type
REMARK                         _______ _______ _______ _____ _____    ______ ____
ROOT
ATOM      1  N   UNL     1       4.878   4.486  18.170  0.00  0.00    +0.000 N 
ATOM      2  C   UNL     1       4.592   3.223  18.841  0.00  0.00    +0.000 C 
ATOM      3  C   UNL     1       3.952   5.526  18.059  0.00  0.00    +0.000 C 
ATOM      4  O   UNL     1       4.291   6.635  17.641  0.00  0.00    +0.000 OA
ENDROOT
BRANCH   1   5
ATOM      5  C   UNL     1       6.259   4.743  17.765  0.00  0.00    +0.000 C 
BRANCH   5   9
ATOM      6  C   UNL     1       6.504   3.733  12.758  0.00  0.00    +0.000 C 
ATOM      7  C   UNL     1       6.619   4.268  14.134  0.00  0.00    +0.000 A 
ATOM      8  C   UNL     1       5.981   3.817  15.311  0.00  0.00    +0.000 A 
ATOM      9  C   UNL     1       6.438   4.660  16.296  0.00  0.00    +0.000 A 
ATOM     10  O   UNL     1       7.303   5.554  15.744  0.00  0.00    +0.000 OA
ATOM     11  N   UNL     1       7.420   5.310  14.387  0.00  0.00    +0.000 NA
ENDBRANCH   5   9
ENDBRANCH   1   5
BRANCH   3  12
ATOM     12  C   UNL     1       2.512   5.195  18.457  0.00  0.00    +0.000 C 
BRANCH  12  13
ATOM     13  S   UNL     1       2.084   5.690  20.153  0.00  0.00    +0.000 S 
BRANCH  13  14
ATOM     14  C   UNL     1       1.995   7.509  19.932  0.00  0.00    +0.000 C 
BRANCH  14  15
ATOM     15  C   UNL     1       1.335   8.141  21.169  0.00  0.00    +0.000 C 
BRANCH  15  16
ATOM     16  N   UNL     1       0.967   9.551  21.001  0.00  0.00    +0.000 NA
ATOM     17  C   UNL     1       0.834   9.912  19.585  0.00  0.00    +0.000 C 
ATOM     18  C   UNL     1       0.295  11.324  19.708  0.00  0.00    +0.000 C 
ATOM     19  C   UNL     1      -0.703  11.220  20.853  0.00  0.00    +0.000 C 
ATOM     20  C   UNL     1      -0.300   9.950  21.617  0.00  0.00    +0.000 C 
ENDBRANCH  15  16
ENDBRANCH  14  15
ENDBRANCH  13  14
ENDBRANCH  12  13
ENDBRANCH   3  12
TORSDOF 7
ENDMDL
MODEL 7
REMARK VINA RESULT:      -6.0      1.317      2.019
REMARK  Name = 
REMARK  9 active torsions:
REMARK  status: ('A' for Active; 'I' for Inactive)
REMARK    1  A    between atoms: C_1  and  C_2
REMARK    2  A    between atoms: C_4  and  C_5
REMARK    3  A    between atoms: C_5  and  N_6
REMARK    4  A    between atoms: N_6  and  C_7
REMARK    5  A    between atoms: C_8  and  C_10
REMARK    6  A    between atoms: C_10  and  S_11
REMARK    7  A    between atoms: S_11  and  C_12
REMARK    8  A    between atoms: C_12  and  C_13
REMARK    9  A    between atoms: C_13  and  N_14
REMARK                            x       y       z     vdW  Elec       q    Type
REMARK                         _______ _______ _______ _____ _____    ______ ____
ROOT
ATOM      1  N   UNL     1       5.389   5.060  17.697  0.00  0.00    +0.000 N 
ATOM      2  C   UNL     1       5.064   4.041  18.688  0.00  0.00    +0.000 C 
ATOM      3  C   UNL     1       4.521   6.096  17.343  0.00  0.00    +0.000 C 
ATOM      4  O   UNL     1       4.903   7.029  16.635  0.00  0.00    +0.000 OA
ENDROOT
BRANCH   1   5
ATOM      5  C   UNL     1       6.762   5.106  17.195  0.00  0.00    +0.000 C 
BRANCH   5   9
ATOM      6  C   UNL     1       6.605   3.648  12.296  0.00  0.00    +0.000 C 
ATOM      7  C   UNL     1       6.841   4.295  13.606  0.00  0.00    +0.000 A 
ATOM      8  C   UNL     1       6.269   3.982  14.860  0.00  0.00    +0.000 A 
ATOM      9  C   UNL     1       6.832   4.885  15.730  0.00  0.00    +0.000 A 
ATOM     10  O   UNL     1       7.694   5.683  15.042  0.00  0.00    +0.000 OA
ATOM     11  N   UNL     1       7.703   5.314  13.709  0.00  0.00    +0.000 NA
ENDBRANCH   5   9
ENDBRANCH   1   5
BRANCH   3  12
ATOM     12  C   UNL     1       3.085   5.982  17.860  0.00  0.00    +0.000 C 
BRANCH  12  13
ATOM     13  S   UNL     1       2.419   7.533  18.532  0.00  0.00    +0.000 S 
BRANCH  13  14
ATOM     14  C   UNL     1       2.314   7.082  20.308  0.00  0.00    +0.000 C 
BRANCH  14  15
ATOM     15  C   UNL     1       1.277   5.961  20.487  0.00  0.00    +0.000 C 
BRANCH  15  16
ATOM     16  N   UNL     1       1.827   4.607  20.365  0.00  0.00    +0.000 NA
ATOM     17  C   UNL     1       2.320   4.102  21.652  0.00  0.00    +0.000 C 
ATOM     18  C   UNL     1       2.657   2.672  21.280  0.00  0.00    +0.000 C 
ATOM     19  C   UNL     1       1.502   2.263  20.375  0.00  0.00    +0.000 C 
ATOM     20  C   UNL     1       0.891   3.586  19.888  0.00  0.00    +0.000 C 
ENDBRANCH  15  16
ENDBRANCH  14  15
ENDBRANCH  13  14
ENDBRANCH  12  13
ENDBRANCH   3  12
TORSDOF 7
ENDMDL
MODEL 8
REMARK VINA RESULT:      -6.0      1.470      2.283
REMARK  Name = 
REMARK  9 active torsions:
REMARK  status: ('A' for Active; 'I' for Inactive)
REMARK    1  A    between atoms: C_1  and  C_2
REMARK    2  A    between atoms: C_4  and  C_5
REMARK    3  A    between atoms: C_5  and  N_6
REMARK    4  A    between atoms: N_6  and  C_7
REMARK    5  A    between atoms: C_8  and  C_10
REMARK    6  A    between atoms: C_10  and  S_11
REMARK    7  A    between atoms: S_11  and  C_12
REMARK    8  A    between atoms: C_12  and  C_13
REMARK    9  A    between atoms: C_13  and  N_14
REMARK                            x       y       z     vdW  Elec       q    Type
REMARK                         _______ _______ _______ _____ _____    ______ ____
ROOT
ATOM      1  N   UNL     1       4.758   6.508  17.714  0.00  0.00    +0.000 N 
ATOM      2  C   UNL     1       4.099   7.353  16.724  0.00  0.00    +0.000 C 
ATOM      3  C   UNL     1       4.078   5.864  18.751  0.00  0.00    +0.000 C 
ATOM      4  O   UNL     1       4.644   5.025  19.455  0.00  0.00    +0.000 OA
ENDROOT
BRANCH   1   5
ATOM      5  C   UNL     1       6.162   6.170  17.492  0.00  0.00    +0.000 C 
BRANCH   5   9
ATOM      6  C   UNL     1       6.372   3.645  13.050  0.00  0.00    +0.000 C 
ATOM      7  C   UNL     1       6.571   4.517  14.230  0.00  0.00    +0.000 A 
ATOM      8  C   UNL     1       5.747   4.662  15.368  0.00  0.00    +0.000 A 
ATOM      9  C   UNL     1       6.396   5.590  16.148  0.00  0.00    +0.000 A 
ATOM     10  O   UNL     1       7.542   5.969  15.519  0.00  0.00    +0.000 OA
ATOM     11  N   UNL     1       7.655   5.297  14.316  0.00  0.00    +0.000 NA
ENDBRANCH   5   9
ENDBRANCH   1   5
BRANCH   3  12
ATOM     12  C   UNL     1       2.622   6.282  18.969  0.00  0.00    +0.000 C 
BRANCH  12  13
ATOM     13  S   UNL     1       2.149   6.418  20.718  0.00  0.00    +0.000 S 
BRANCH  13  14
ATOM     14  C   UNL     1       1.983   4.639  21.134  0.00  0.00    +0.000 C 
BRANCH  14  15
ATOM     15  C   UNL     1       0.980   3.983  20.171  0.00  0.00    +0.000 C 
BRANCH  15  16
ATOM     16  N   UNL     1       1.544   2.892  19.367  0.00  0.00    +0.000 NA
ATOM     17  C   UNL     1       1.828   3.322  17.993  0.00  0.00    +0.000 C 
ATOM     18  C   UNL     1       2.540   2.095  17.459  0.00  0.00    +0.000 C 
ATOM     19  C   UNL     1       3.428   1.670  18.621  0.00  0.00    +0.000 C 
ATOM     20  C   UNL     1       2.804   2.332  19.860  0.00  0.00    +0.000 C 
ENDBRANCH  15  16
ENDBRANCH  14  15
ENDBRANCH  13  14
ENDBRANCH  12  13
ENDBRANCH   3  12
TORSDOF 7
ENDMDL
MODEL 9
REMARK VINA RESULT:      -6.0      2.494      4.563
REMARK  Name = 
REMARK  9 active torsions:
REMARK  status: ('A' for Active; 'I' for Inactive)
REMARK    1  A    between atoms: C_1  and  C_2
REMARK    2  A    between atoms: C_4  and  C_5
REMARK    3  A    between atoms: C_5  and  N_6
REMARK    4  A    between atoms: N_6  and  C_7
REMARK    5  A    between atoms: C_8  and  C_10
REMARK    6  A    between atoms: C_10  and  S_11
REMARK    7  A    between atoms: S_11  and  C_12
REMARK    8  A    between atoms: C_12  and  C_13
REMARK    9  A    between atoms: C_13  and  N_14
REMARK                            x       y       z     vdW  Elec       q    Type
REMARK                         _______ _______ _______ _____ _____    ______ ____
ROOT
ATOM      1  N   UNL     1       3.345   2.892  17.766  0.00  0.00    +0.000 N 
ATOM      2  C   UNL     1       4.093   2.159  18.780  0.00  0.00    +0.000 C 
ATOM      3  C   UNL     1       2.019   3.299  17.930  0.00  0.00    +0.000 C 
ATOM      4  O   UNL     1       1.485   4.063  17.123  0.00  0.00    +0.000 OA
ENDROOT
BRANCH   1   5
ATOM      5  C   UNL     1       4.081   3.387  16.604  0.00  0.00    +0.000 C 
BRANCH   5   9
ATOM      6  C   UNL     1       7.766   6.429  18.426  0.00  0.00    +0.000 C 
ATOM      7  C   UNL     1       6.922   5.455  17.697  0.00  0.00    +0.000 A 
ATOM      8  C   UNL     1       5.588   5.072  17.963  0.00  0.00    +0.000 A 
ATOM      9  C   UNL     1       5.294   4.147  16.989  0.00  0.00    +0.000 A 
ATOM     10  O   UNL     1       6.381   3.995  16.183  0.00  0.00    +0.000 OA
ATOM     11  N   UNL     1       7.404   4.815  16.625  0.00  0.00    +0.000 NA
ENDBRANCH   5   9
ENDBRANCH   1   5
BRANCH   3  12
ATOM     12  C   UNL     1       1.279   2.722  19.139  0.00  0.00    +0.000 C 
BRANCH  12  13
ATOM     13  S   UNL     1       0.835   3.963  20.392  0.00  0.00    +0.000 S 
BRANCH  13  14
ATOM     14  C   UNL     1       2.221   5.143  20.165  0.00  0.00    +0.000 C 
BRANCH  14  15
ATOM     15  C   UNL     1       1.798   6.530  20.676  0.00  0.00    +0.000 C 
BRANCH  15  16
ATOM     16  N   UNL     1       2.200   7.640  19.805  0.00  0.00    +0.000 NA
ATOM     17  C   UNL     1       2.412   7.197  18.422  0.00  0.00    +0.000 C 
ATOM     18  C   UNL     1       2.637   8.529  17.734  0.00  0.00    +0.000 C 
ATOM     19  C   UNL     1       1.607   9.440  18.388  0.00  0.00    +0.000 C 
ATOM     20  C   UNL     1       1.243   8.744  19.708  0.00  0.00    +0.000 C 
ENDBRANCH  15  16
ENDBRANCH  14  15
ENDBRANCH  13  14
ENDBRANCH  12  13
ENDBRANCH   3  12
TORSDOF 7
ENDMDL
