MODEL 1
REMARK VINA RESULT:      -7.4      0.000      0.000
REMARK  Name = 
REMARK  5 active torsions:
REMARK  status: ('A' for Active; 'I' for Inactive)
REMARK    1  A    between atoms: C_1  and  C_2
REMARK    2  A    between atoms: C_2  and  C_3
REMARK    3  A    between atoms: C_4  and  C_5
REMARK    4  A    between atoms: N_11  and  C_12
REMARK    5  A    between atoms: C_22  and  O_23
REMARK                            x       y       z     vdW  Elec       q    Type
REMARK                         _______ _______ _______ _____ _____    ______ ____
ROOT
ATOM      1  C   UNL     1      -0.705  11.307  22.137  0.00  0.00    +0.000 A 
ATOM      2  C   UNL     1      -0.427  11.546  20.798  0.00  0.00    +0.000 A 
ATOM      3  C   UNL     1      -0.840  12.796  20.074  0.00  0.00    +0.000 C 
ATOM      4  N   UNL     1       0.262  10.671  20.024  0.00  0.00    +0.000 NA
ATOM      5  C   UNL     1       0.707   9.532  20.568  0.00  0.00    +0.000 A 
ATOM      6  N   UNL     1       1.562   8.730  19.841  0.00  0.00    +0.000 N 
ATOM      7  C   UNL     1       1.541   8.862  18.375  0.00  0.00    +0.000 C 
ATOM      8  C   UNL     1       2.834   8.262  17.768  0.00  0.00    +0.000 C 
ATOM      9  N   UNL     1       2.987   6.874  18.242  0.00  0.00    +0.000 N 
ATOM     10  C   UNL     1       3.062   6.771  19.713  0.00  0.00    +0.000 C 
ATOM     11  C   UNL     1       1.782   7.363  20.339  0.00  0.00    +0.000 C 
ATOM     12  N   UNL     1       0.443   9.199  21.833  0.00  0.00    +0.000 NA
ATOM     13  C   UNL     1      -0.242  10.084  22.564  0.00  0.00    +0.000 A 
ENDROOT
BRANCH   9  14
ATOM     14  C   UNL     1       3.639   5.917  17.479  0.00  0.00    +0.000 A 
ATOM     15  C   UNL     1       4.710   6.323  16.663  0.00  0.00    +0.000 A 
ATOM     16  C   UNL     1       5.477   5.408  15.937  0.00  0.00    +0.000 A 
ATOM     17  C   UNL     1       5.184   4.050  16.001  0.00  0.00    +0.000 A 
ATOM     18  C   UNL     1       4.122   3.616  16.788  0.00  0.00    +0.000 A 
ATOM     19  C   UNL     1       3.366   4.539  17.516  0.00  0.00    +0.000 A 
ATOM     20  F   UNL     1       2.347   4.063  18.251  0.00  0.00    +0.000 F 
ENDBRANCH   9  14
BRANCH   1  22
ATOM     21  C   UNL     1      -2.894  12.149  23.285  0.00  0.00    +0.000 C 
ATOM     22  C   UNL     1      -1.410  12.327  22.988  0.00  0.00    +0.000 C 
ENDBRANCH   1  22
BRANCH  13  23
ATOM     23  O   UNL     1      -0.415   9.633  23.829  0.00  0.00    +0.000 OA
ATOM     24  H   UNL     1      -1.313   9.261  23.750  0.00  0.00    +0.000 HD
ENDBRANCH  13  23
TORSDOF 3
ENDMDL
MODEL 2
REMARK VINA RESULT:      -6.9      2.995      8.473
REMARK  Name = 
REMARK  5 active torsions:
REMARK  status: ('A' for Active; 'I' for Inactive)
REMARK    1  A    between atoms: C_1  and  C_2
REMARK    2  A    between atoms: C_2  and  C_3
REMARK    3  A    between atoms: C_4  and  C_5
REMARK    4  A    between atoms: N_11  and  C_12
REMARK    5  A    between atoms: C_22  and  O_23
REMARK                            x       y       z     vdW  Elec       q    Type
REMARK                         _______ _______ _______ _____ _____    ______ ____
ROOT
ATOM      1  C   UNL     1       4.993   5.203  17.331  0.00  0.00    +0.000 A 
ATOM      2  C   UNL     1       4.378   4.921  18.543  0.00  0.00    +0.000 A 
ATOM      3  C   UNL     1       4.645   3.675  19.340  0.00  0.00    +0.000 C 
ATOM      4  N   UNL     1       3.487   5.759  19.127  0.00  0.00    +0.000 NA
ATOM      5  C   UNL     1       3.190   6.916  18.524  0.00  0.00    +0.000 A 
ATOM      6  N   UNL     1       2.431   7.851  19.197  0.00  0.00    +0.000 N 
ATOM      7  C   UNL     1       1.567   7.371  20.287  0.00  0.00    +0.000 C 
ATOM      8  C   UNL     1       1.164   8.551  21.207  0.00  0.00    +0.000 C 
ATOM      9  N   UNL     1       0.558   9.614  20.385  0.00  0.00    +0.000 N 
ATOM     10  C   UNL     1       1.464  10.120  19.334  0.00  0.00    +0.000 C 
ATOM     11  C   UNL     1       1.877   8.959  18.404  0.00  0.00    +0.000 C 
ATOM     12  N   UNL     1       3.697   7.246  17.333  0.00  0.00    +0.000 NA
ATOM     13  C   UNL     1       4.567   6.392  16.786  0.00  0.00    +0.000 A 
ENDROOT
BRANCH   9  14
ATOM     14  C   UNL     1      -0.395  10.476  20.906  0.00  0.00    +0.000 A 
ATOM     15  C   UNL     1      -0.497  10.600  22.303  0.00  0.00    +0.000 A 
ATOM     16  C   UNL     1      -1.365  11.515  22.905  0.00  0.00    +0.000 A 
ATOM     17  C   UNL     1      -2.169  12.331  22.118  0.00  0.00    +0.000 A 
ATOM     18  C   UNL     1      -2.103  12.225  20.732  0.00  0.00    +0.000 A 
ATOM     19  C   UNL     1      -1.226  11.312  20.141  0.00  0.00    +0.000 A 
ATOM     20  F   UNL     1      -1.212  11.246  18.799  0.00  0.00    +0.000 F 
ENDBRANCH   9  14
BRANCH   1  22
ATOM     21  C   UNL     1       7.502   4.545  17.031  0.00  0.00    +0.000 C 
ATOM     22  C   UNL     1       6.029   4.286  16.742  0.00  0.00    +0.000 C 
ENDBRANCH   1  22
BRANCH  13  23
ATOM     23  O   UNL     1       5.021   6.861  15.599  0.00  0.00    +0.000 OA
ATOM     24  H   UNL     1       5.878   7.228  15.883  0.00  0.00    +0.000 HD
ENDBRANCH  13  23
TORSDOF 3
ENDMDL
MODEL 3
REMARK VINA RESULT:      -6.9      1.091      1.294
REMARK  Name = 
REMARK  5 active torsions:
REMARK  status: ('A' for Active; 'I' for Inactive)
REMARK    1  A    between atoms: C_1  and  C_2
REMARK    2  A    between atoms: C_2  and  C_3
REMARK    3  A    between atoms: C_4  and  C_5
REMARK    4  A    between atoms: N_11  and  C_12
REMARK    5  A    between atoms: C_22  and  O_23
REMARK                            x       y       z     vdW  Elec       q    Type
REMARK                         _______ _______ _______ _____ _____    ______ ____
ROOT
ATOM      1  C   UNL     1      -0.825  12.565  21.414  0.00  0.00    +0.000 A 
ATOM      2  C   UNL     1      -0.432  12.579  20.082  0.00  0.00    +0.000 A 
ATOM      3  C   UNL     1      -0.626  13.759  19.172  0.00  0.00    +0.000 C 
ATOM      4  N   UNL     1       0.180  11.527  19.487  0.00  0.00    +0.000 NA
ATOM      5  C   UNL     1       0.432  10.427  20.207  0.00  0.00    +0.000 A 
ATOM      6  N   UNL     1       1.216   9.431  19.662  0.00  0.00    +0.000 N 
ATOM      7  C   UNL     1       1.307   9.361  18.195  0.00  0.00    +0.000 C 
ATOM      8  C   UNL     1       2.543   8.525  17.777  0.00  0.00    +0.000 C 
ATOM      9  N   UNL     1       2.477   7.209  18.438  0.00  0.00    +0.000 N 
ATOM     10  C   UNL     1       2.444   7.303  19.912  0.00  0.00    +0.000 C 
ATOM     11  C   UNL     1       1.217   8.130  20.350  0.00  0.00    +0.000 C 
ATOM     12  N   UNL     1       0.046  10.309  21.480  0.00  0.00    +0.000 NA
ATOM     13  C   UNL     1      -0.559  11.365  22.032  0.00  0.00    +0.000 A 
ENDROOT
BRANCH   9  14
ATOM     14  C   UNL     1       3.042   6.081  17.860  0.00  0.00    +0.000 A 
ATOM     15  C   UNL     1       4.293   6.203  17.231  0.00  0.00    +0.000 A 
ATOM     16  C   UNL     1       4.971   5.099  16.708  0.00  0.00    +0.000 A 
ATOM     17  C   UNL     1       4.405   3.832  16.794  0.00  0.00    +0.000 A 
ATOM     18  C   UNL     1       3.161   3.678  17.399  0.00  0.00    +0.000 A 
ATOM     19  C   UNL     1       2.496   4.788  17.925  0.00  0.00    +0.000 A 
ATOM     20  F   UNL     1       1.294   4.580  18.489  0.00  0.00    +0.000 F 
ENDBRANCH   9  14
BRANCH   1  22
ATOM     21  C   UNL     1      -0.579  14.652  22.964  0.00  0.00    +0.000 C 
ATOM     22  C   UNL     1      -1.440  13.772  22.066  0.00  0.00    +0.000 C 
ENDBRANCH   1  22
BRANCH  13  23
ATOM     23  O   UNL     1      -0.872  11.119  23.326  0.00  0.00    +0.000 OA
ATOM     24  H   UNL     1      -0.303  10.344  23.489  0.00  0.00    +0.000 HD
ENDBRANCH  13  23
TORSDOF 3
ENDMDL
MODEL 4
REMARK VINA RESULT:      -6.8      0.987      1.402
REMARK  Name = 
REMARK  5 active torsions:
REMARK  status: ('A' for Active; 'I' for Inactive)
REMARK    1  A    between atoms: C_1  and  C_2
REMARK    2  A    between atoms: C_2  and  C_3
REMARK    3  A    between atoms: C_4  and  C_5
REMARK    4  A    between atoms: N_11  and  C_12
REMARK    5  A    between atoms: C_22  and  O_23
REMARK                            x       y       z     vdW  Elec       q    Type
REMARK                         _______ _______ _______ _____ _____    ______ ____
ROOT
ATOM      1  C   UNL     1      -0.688  11.270  22.074  0.00  0.00    +0.000 A 
ATOM      2  C   UNL     1      -0.376  11.477  20.737  0.00  0.00    +0.000 A 
ATOM      3  C   UNL     1      -0.755  12.718  19.979  0.00  0.00    +0.000 C 
ATOM      4  N   UNL     1       0.318  10.578  19.998  0.00  0.00    +0.000 NA
ATOM      5  C   UNL     1       0.735   9.445  20.575  0.00  0.00    +0.000 A 
ATOM      6  N   UNL     1       1.595   8.616  19.885  0.00  0.00    +0.000 N 
ATOM      7  C   UNL     1       1.610   8.718  18.417  0.00  0.00    +0.000 C 
ATOM      8  C   UNL     1       2.909   8.088  17.852  0.00  0.00    +0.000 C 
ATOM      9  N   UNL     1       3.031   6.709  18.358  0.00  0.00    +0.000 N 
ATOM     10  C   UNL     1       3.071   6.636  19.833  0.00  0.00    +0.000 C 
ATOM     11  C   UNL     1       1.785   7.257  20.416  0.00  0.00    +0.000 C 
ATOM     12  N   UNL     1       0.437   9.142  21.840  0.00  0.00    +0.000 NA
ATOM     13  C   UNL     1      -0.253  10.050  22.537  0.00  0.00    +0.000 A 
ENDROOT
BRANCH   9  14
ATOM     14  C   UNL     1       3.687   5.727  17.630  0.00  0.00    +0.000 A 
ATOM     15  C   UNL     1       3.248   4.397  17.746  0.00  0.00    +0.000 A 
ATOM     16  C   UNL     1       3.794   3.366  16.977  0.00  0.00    +0.000 A 
ATOM     17  C   UNL     1       4.810   3.640  16.069  0.00  0.00    +0.000 A 
ATOM     18  C   UNL     1       5.278   4.944  15.939  0.00  0.00    +0.000 A 
ATOM     19  C   UNL     1       4.720   5.968  16.708  0.00  0.00    +0.000 A 
ATOM     20  F   UNL     1       5.218   7.206  16.547  0.00  0.00    +0.000 F 
ENDBRANCH   9  14
BRANCH   1  22
ATOM     21  C   UNL     1      -2.916  12.256  23.014  0.00  0.00    +0.000 C 
ATOM     22  C   UNL     1      -1.399  12.316  22.887  0.00  0.00    +0.000 C 
ENDBRANCH   1  22
BRANCH  13  23
ATOM     23  O   UNL     1      -0.461   9.628  23.806  0.00  0.00    +0.000 OA
ATOM     24  H   UNL     1       0.431   9.765  24.174  0.00  0.00    +0.000 HD
ENDBRANCH  13  23
TORSDOF 3
ENDMDL
MODEL 5
REMARK VINA RESULT:      -6.8      1.494      1.961
REMARK  Name = 
REMARK  5 active torsions:
REMARK  status: ('A' for Active; 'I' for Inactive)
REMARK    1  A    between atoms: C_1  and  C_2
REMARK    2  A    between atoms: C_2  and  C_3
REMARK    3  A    between atoms: C_4  and  C_5
REMARK    4  A    between atoms: N_11  and  C_12
REMARK    5  A    between atoms: C_22  and  O_23
REMARK                            x       y       z     vdW  Elec       q    Type
REMARK                         _______ _______ _______ _____ _____    ______ ____
ROOT
ATOM      1  C   UNL     1      -0.633  12.918  21.135  0.00  0.00    +0.000 A 
ATOM      2  C   UNL     1      -0.289  12.788  19.796  0.00  0.00    +0.000 A 
ATOM      3  C   UNL     1      -0.463  13.885  18.784  0.00  0.00    +0.000 C 
ATOM      4  N   UNL     1       0.255  11.656  19.285  0.00  0.00    +0.000 NA
ATOM      5  C   UNL     1       0.484  10.619  20.099  0.00  0.00    +0.000 A 
ATOM      6  N   UNL     1       1.202   9.540  19.627  0.00  0.00    +0.000 N 
ATOM      7  C   UNL     1       1.236   9.327  18.172  0.00  0.00    +0.000 C 
ATOM      8  C   UNL     1       2.418   8.398  17.797  0.00  0.00    +0.000 C 
ATOM      9  N   UNL     1       2.318   7.154  18.583  0.00  0.00    +0.000 N 
ATOM     10  C   UNL     1       2.342   7.388  20.040  0.00  0.00    +0.000 C 
ATOM     11  C   UNL     1       1.170   8.311  20.436  0.00  0.00    +0.000 C 
ATOM     12  N   UNL     1       0.139  10.640  21.389  0.00  0.00    +0.000 NA
ATOM     13  C   UNL     1      -0.399  11.771  21.856  0.00  0.00    +0.000 A 
ENDROOT
BRANCH   9  14
ATOM     14  C   UNL     1       2.810   5.951  18.098  0.00  0.00    +0.000 A 
ATOM     15  C   UNL     1       1.937   4.853  18.011  0.00  0.00    +0.000 A 
ATOM     16  C   UNL     1       2.330   3.636  17.447  0.00  0.00    +0.000 A 
ATOM     17  C   UNL     1       3.622   3.481  16.960  0.00  0.00    +0.000 A 
ATOM     18  C   UNL     1       4.517   4.544  17.044  0.00  0.00    +0.000 A 
ATOM     19  C   UNL     1       4.111   5.759  17.602  0.00  0.00    +0.000 A 
ATOM     20  F   UNL     1       5.020   6.746  17.665  0.00  0.00    +0.000 F 
ENDBRANCH   9  14
BRANCH   1  22
ATOM     21  C   UNL     1      -2.668  14.358  21.912  0.00  0.00    +0.000 C 
ATOM     22  C   UNL     1      -1.169  14.210  21.687  0.00  0.00    +0.000 C 
ENDBRANCH   1  22
BRANCH  13  23
ATOM     23  O   UNL     1      -0.675  11.663  23.177  0.00  0.00    +0.000 OA
ATOM     24  H   UNL     1      -1.643  11.558  23.136  0.00  0.00    +0.000 HD
ENDBRANCH  13  23
TORSDOF 3
ENDMDL
MODEL 6
REMARK VINA RESULT:      -6.8      1.866      2.107
REMARK  Name = 
REMARK  5 active torsions:
REMARK  status: ('A' for Active; 'I' for Inactive)
REMARK    1  A    between atoms: C_1  and  C_2
REMARK    2  A    between atoms: C_2  and  C_3
REMARK    3  A    between atoms: C_4  and  C_5
REMARK    4  A    between atoms: N_11  and  C_12
REMARK    5  A    between atoms: C_22  and  O_23
REMARK                            x       y       z     vdW  Elec       q    Type
REMARK                         _______ _______ _______ _____ _____    ______ ____
ROOT
ATOM      1  C   UNL     1       0.235  12.234  21.068  0.00  0.00    +0.000 A 
ATOM      2  C   UNL     1       0.790  11.976  19.821  0.00  0.00    +0.000 A 
ATOM      3  C   UNL     1       1.027  13.036  18.783  0.00  0.00    +0.000 C 
ATOM      4  N   UNL     1       1.184  10.738  19.436  0.00  0.00    +0.000 NA
ATOM      5  C   UNL     1       1.048   9.716  20.289  0.00  0.00    +0.000 A 
ATOM      6  N   UNL     1       1.613   8.498  19.975  0.00  0.00    +0.000 N 
ATOM      7  C   UNL     1       1.875   8.213  18.556  0.00  0.00    +0.000 C 
ATOM      8  C   UNL     1       2.899   7.056  18.424  0.00  0.00    +0.000 C 
ATOM      9  N   UNL     1       2.410   5.895  19.189  0.00  0.00    +0.000 N 
ATOM     10  C   UNL     1       2.209   6.189  20.622  0.00  0.00    +0.000 C 
ATOM     11  C   UNL     1       1.190   7.338  20.776  0.00  0.00    +0.000 C 
ATOM     12  N   UNL     1       0.480   9.864  21.488  0.00  0.00    +0.000 NA
ATOM     13  C   UNL     1       0.099  11.099  21.832  0.00  0.00    +0.000 A 
ENDROOT
BRANCH   9  14
ATOM     14  C   UNL     1       2.737   4.598  18.820  0.00  0.00    +0.000 A 
ATOM     15  C   UNL     1       3.793   3.955  19.489  0.00  0.00    +0.000 A 
ATOM     16  C   UNL     1       4.123   2.619  19.242  0.00  0.00    +0.000 A 
ATOM     17  C   UNL     1       3.404   1.888  18.304  0.00  0.00    +0.000 A 
ATOM     18  C   UNL     1       2.361   2.498  17.614  0.00  0.00    +0.000 A 
ATOM     19  C   UNL     1       2.034   3.831  17.874  0.00  0.00    +0.000 A 
ATOM     20  F   UNL     1       1.025   4.371  17.172  0.00  0.00    +0.000 F 
ENDBRANCH   9  14
BRANCH   1  22
ATOM     21  C   UNL     1      -1.569  14.101  21.345  0.00  0.00    +0.000 C 
ATOM     22  C   UNL     1      -0.129  13.630  21.493  0.00  0.00    +0.000 C 
ENDBRANCH   1  22
BRANCH  13  23
ATOM     23  O   UNL     1      -0.434  11.109  23.077  0.00  0.00    +0.000 OA
ATOM     24  H   UNL     1      -1.245  10.594  22.913  0.00  0.00    +0.000 HD
ENDBRANCH  13  23
TORSDOF 3
ENDMDL
MODEL 7
REMARK VINA RESULT:      -6.7      3.103      7.744
REMARK  Name = 
REMARK  5 active torsions:
REMARK  status: ('A' for Active; 'I' for Inactive)
REMARK    1  A    between atoms: C_1  and  C_2
REMARK    2  A    between atoms: C_2  and  C_3
REMARK    3  A    between atoms: C_4  and  C_5
REMARK    4  A    between atoms: N_11  and  C_12
REMARK    5  A    between atoms: C_22  and  O_23
REMARK                            x       y       z     vdW  Elec       q    Type
REMARK                         _______ _______ _______ _____ _____    ______ ____
ROOT
ATOM      1  C   UNL     1       3.209   3.692  19.476  0.00  0.00    +0.000 A 
ATOM      2  C   UNL     1       3.492   4.489  18.374  0.00  0.00    +0.000 A 
ATOM      3  C   UNL     1       4.200   3.988  17.147  0.00  0.00    +0.000 C 
ATOM      4  N   UNL     1       3.136   5.795  18.303  0.00  0.00    +0.000 NA
ATOM      5  C   UNL     1       2.474   6.346  19.327  0.00  0.00    +0.000 A 
ATOM      6  N   UNL     1       1.950   7.614  19.184  0.00  0.00    +0.000 N 
ATOM      7  C   UNL     1       2.553   8.491  18.168  0.00  0.00    +0.000 C 
ATOM      8  C   UNL     1       1.586   9.653  17.825  0.00  0.00    +0.000 C 
ATOM      9  N   UNL     1       1.211  10.347  19.070  0.00  0.00    +0.000 N 
ATOM     10  C   UNL     1       0.556   9.460  20.052  0.00  0.00    +0.000 C 
ATOM     11  C   UNL     1       1.504   8.295  20.409  0.00  0.00    +0.000 C 
ATOM     12  N   UNL     1       2.204   5.668  20.444  0.00  0.00    +0.000 NA
ATOM     13  C   UNL     1       2.574   4.384  20.480  0.00  0.00    +0.000 A 
ENDROOT
BRANCH   9  14
ATOM     14  C   UNL     1       0.882  11.695  19.075  0.00  0.00    +0.000 A 
ATOM     15  C   UNL     1       1.839  12.619  19.529  0.00  0.00    +0.000 A 
ATOM     16  C   UNL     1       1.621  13.998  19.477  0.00  0.00    +0.000 A 
ATOM     17  C   UNL     1       0.423  14.494  18.975  0.00  0.00    +0.000 A 
ATOM     18  C   UNL     1      -0.552  13.606  18.531  0.00  0.00    +0.000 A 
ATOM     19  C   UNL     1      -0.320  12.229  18.579  0.00  0.00    +0.000 A 
ATOM     20  F   UNL     1      -1.300  11.419  18.145  0.00  0.00    +0.000 F 
ENDBRANCH   9  14
BRANCH   1  22
ATOM     21  C   UNL     1       4.771   1.763  20.287  0.00  0.00    +0.000 C 
ATOM     22  C   UNL     1       3.554   2.229  19.497  0.00  0.00    +0.000 C 
ENDBRANCH   1  22
BRANCH  13  23
ATOM     23  O   UNL     1       2.217   3.813  21.655  0.00  0.00    +0.000 OA
ATOM     24  H   UNL     1       2.529   4.498  22.273  0.00  0.00    +0.000 HD
ENDBRANCH  13  23
TORSDOF 3
ENDMDL
MODEL 8
REMARK VINA RESULT:      -6.7      2.977      7.798
REMARK  Name = 
REMARK  5 active torsions:
REMARK  status: ('A' for Active; 'I' for Inactive)
REMARK    1  A    between atoms: C_1  and  C_2
REMARK    2  A    between atoms: C_2  and  C_3
REMARK    3  A    between atoms: C_4  and  C_5
REMARK    4  A    between atoms: N_11  and  C_12
REMARK    5  A    between atoms: C_22  and  O_23
REMARK                            x       y       z     vdW  Elec       q    Type
REMARK                         _______ _______ _______ _____ _____    ______ ____
ROOT
ATOM      1  C   UNL     1       3.125   3.765  19.486  0.00  0.00    +0.000 A 
ATOM      2  C   UNL     1       3.379   4.535  18.359  0.00  0.00    +0.000 A 
ATOM      3  C   UNL     1       4.034   3.998  17.118  0.00  0.00    +0.000 C 
ATOM      4  N   UNL     1       3.040   5.845  18.273  0.00  0.00    +0.000 NA
ATOM      5  C   UNL     1       2.424   6.427  19.308  0.00  0.00    +0.000 A 
ATOM      6  N   UNL     1       1.914   7.699  19.158  0.00  0.00    +0.000 N 
ATOM      7  C   UNL     1       2.492   8.546  18.103  0.00  0.00    +0.000 C 
ATOM      8  C   UNL     1       1.531   9.716  17.771  0.00  0.00    +0.000 C 
ATOM      9  N   UNL     1       1.212  10.441  19.014  0.00  0.00    +0.000 N 
ATOM     10  C   UNL     1       0.580   9.584  20.037  0.00  0.00    +0.000 C 
ATOM     11  C   UNL     1       1.523   8.412  20.385  0.00  0.00    +0.000 C 
ATOM     12  N   UNL     1       2.185   5.775  20.449  0.00  0.00    +0.000 NA
ATOM     13  C   UNL     1       2.537   4.487  20.498  0.00  0.00    +0.000 A 
ENDROOT
BRANCH   9  14
ATOM     14  C   UNL     1       0.903  11.793  19.003  0.00  0.00    +0.000 A 
ATOM     15  C   UNL     1      -0.353  12.200  19.488  0.00  0.00    +0.000 A 
ATOM     16  C   UNL     1      -0.703  13.548  19.598  0.00  0.00    +0.000 A 
ATOM     17  C   UNL     1       0.197  14.534  19.212  0.00  0.00    +0.000 A 
ATOM     18  C   UNL     1       1.443  14.166  18.714  0.00  0.00    +0.000 A 
ATOM     19  C   UNL     1       1.787  12.815  18.616  0.00  0.00    +0.000 A 
ATOM     20  F   UNL     1       2.999  12.518  18.120  0.00  0.00    +0.000 F 
ENDBRANCH   9  14
BRANCH   1  22
ATOM     21  C   UNL     1       4.654   1.823  20.330  0.00  0.00    +0.000 C 
ATOM     22  C   UNL     1       3.450   2.298  19.526  0.00  0.00    +0.000 C 
ENDBRANCH   1  22
BRANCH  13  23
ATOM     23  O   UNL     1       2.215   3.945  21.697  0.00  0.00    +0.000 OA
ATOM     24  H   UNL     1       2.135   4.758  22.229  0.00  0.00    +0.000 HD
ENDBRANCH  13  23
TORSDOF 3
ENDMDL
MODEL 9
REMARK VINA RESULT:      -6.7      3.182      8.941
REMARK  Name = 
REMARK  5 active torsions:
REMARK  status: ('A' for Active; 'I' for Inactive)
REMARK    1  A    between atoms: C_1  and  C_2
REMARK    2  A    between atoms: C_2  and  C_3
REMARK    3  A    between atoms: C_4  and  C_5
REMARK    4  A    between atoms: N_11  and  C_12
REMARK    5  A    between atoms: C_22  and  O_23
REMARK                            x       y       z     vdW  Elec       q    Type
REMARK                         _______ _______ _______ _____ _____    ______ ____
ROOT
ATOM      1  C   UNL     1       2.617   6.834  18.756  0.00  0.00    +0.000 A 
ATOM      2  C   UNL     1       2.075   6.541  20.001  0.00  0.00    +0.000 A 
ATOM      3  C   UNL     1       2.259   5.222  20.696  0.00  0.00    +0.000 C 
ATOM      4  N   UNL     1       1.341   7.433  20.709  0.00  0.00    +0.000 NA
ATOM      5  C   UNL     1       1.133   8.654  20.203  0.00  0.00    +0.000 A 
ATOM      6  N   UNL     1       0.548   9.620  20.995  0.00  0.00    +0.000 N 
ATOM      7  C   UNL     1      -0.274   9.167  22.129  0.00  0.00    +0.000 C 
ATOM      8  C   UNL     1      -0.457  10.320  23.148  0.00  0.00    +0.000 C 
ATOM      9  N   UNL     1      -1.000  11.498  22.446  0.00  0.00    +0.000 N 
ATOM     10  C   UNL     1      -0.130  11.968  21.350  0.00  0.00    +0.000 C 
ATOM     11  C   UNL     1       0.064  10.835  20.321  0.00  0.00    +0.000 C 
ATOM     12  N   UNL     1       1.575   9.004  18.993  0.00  0.00    +0.000 NA
ATOM     13  C   UNL     1       2.291   8.097  18.321  0.00  0.00    +0.000 A 
ENDROOT
BRANCH   9  14
ATOM     14  C   UNL     1      -1.798  12.424  23.101  0.00  0.00    +0.000 A 
ATOM     15  C   UNL     1      -3.079  12.028  23.525  0.00  0.00    +0.000 A 
ATOM     16  C   UNL     1      -3.906  12.871  24.272  0.00  0.00    +0.000 A 
ATOM     17  C   UNL     1      -3.474  14.148  24.609  0.00  0.00    +0.000 A 
ATOM     18  C   UNL     1      -2.218  14.578  24.192  0.00  0.00    +0.000 A 
ATOM     19  C   UNL     1      -1.395  13.724  23.453  0.00  0.00    +0.000 A 
ATOM     20  F   UNL     1      -0.197  14.195  23.070  0.00  0.00    +0.000 F 
ENDBRANCH   9  14
BRANCH   1  22
ATOM     21  C   UNL     1       4.983   6.107  17.926  0.00  0.00    +0.000 C 
ATOM     22  C   UNL     1       3.485   5.849  18.024  0.00  0.00    +0.000 C 
ENDBRANCH   1  22
BRANCH  13  23
ATOM     23  O   UNL     1       2.696   8.592  17.127  0.00  0.00    +0.000 OA
ATOM     24  H   UNL     1       3.019   9.466  17.412  0.00  0.00    +0.000 HD
ENDBRANCH  13  23
TORSDOF 3
ENDMDL
