MODEL 1
REMARK VINA RESULT:      -7.6      0.000      0.000
REMARK  Name = 
REMARK  10 active torsions:
REMARK  status: ('A' for Active; 'I' for Inactive)
REMARK    1  A    between atoms: N_1  and  CA_2
REMARK    2  A    between atoms: CA_2  and  C_3
REMARK    3  A    between atoms: CA_2  and  C_19
REMARK    4  A    between atoms: C_3  and  C_4
REMARK    5  A    between atoms: C_4  and  C_5
REMARK    6  A    between atoms: C_4  and  C_16
REMARK    7  A    between atoms: C_5  and  C_6
REMARK    8  A    between atoms: C_9  and  C_10
REMARK    9  A    between atoms: C_16  and  O_18
REMARK   10  A    between atoms: C_19  and  OXT_21
REMARK                            x       y       z     vdW  Elec       q    Type
REMARK                         _______ _______ _______ _____ _____    ______ ____
ROOT
ATOM      1  C   UNL     1       5.883   5.010  15.801  0.00  0.00    +0.000 C 
ENDROOT
BRANCH   1   2
ATOM      2  C   UNL     1       6.804   4.687  14.642  0.00  0.00    +0.000 C 
ATOM      3  O   UNL     1       7.724   5.390  14.265  0.00  0.00    +0.000 OA
BRANCH   2   4
ATOM      4  O   UNL     1       6.465   3.552  13.986  0.00  0.00    +0.000 OA
ATOM      5  H   UNL     1       7.073   2.798  14.111  0.00  0.00    +0.000 HD
ENDBRANCH   2   4
ENDBRANCH   1   2
BRANCH   1   6
ATOM      6  C   UNL     1       6.673   5.069  17.125  0.00  0.00    +0.000 C 
BRANCH   6   7
ATOM      7  CA  UNL     1       6.942   6.437  17.763  0.00  0.00    +0.000 C 
BRANCH   7   8
ATOM      8  N   UNL     1       7.528   7.449  16.852  0.00  0.00    +0.000 NA
ATOM      9  H1  UNL     1       8.301   7.947  17.307  0.00  0.00    +0.000 HD
ATOM     10  H2  UNL     1       6.835   8.191  16.693  0.00  0.00    +0.000 HD
ENDBRANCH   7   8
BRANCH   7  11
ATOM     11  C   UNL     1       7.927   6.252  18.956  0.00  0.00    +0.000 C 
ATOM     12  O   UNL     1       8.024   5.262  19.658  0.00  0.00    +0.000 OA
BRANCH  11  13
ATOM     13  OXT UNL     1       8.677   7.369  19.140  0.00  0.00    +0.000 OA
ATOM     14  HXT UNL     1       8.050   8.122  19.250  0.00  0.00    +0.000 HD
ENDBRANCH  11  13
ENDBRANCH   7  11
ENDBRANCH   6   7
ENDBRANCH   1   6
BRANCH   1  15
ATOM     15  C   UNL     1       4.789   3.909  15.844  0.00  0.00    +0.000 C 
BRANCH  15  16
ATOM     16  C   UNL     1       3.996   3.863  17.132  0.00  0.00    +0.000 A 
ATOM     17  C   UNL     1       3.873   2.678  17.864  0.00  0.00    +0.000 A 
ATOM     18  C   UNL     1       3.086   2.641  19.020  0.00  0.00    +0.000 A 
ATOM     19  C   UNL     1       2.396   3.783  19.456  0.00  0.00    +0.000 A 
ATOM     20  C   UNL     1       2.521   4.969  18.722  0.00  0.00    +0.000 A 
ATOM     21  C   UNL     1       3.325   5.012  17.583  0.00  0.00    +0.000 A 
BRANCH  19  22
ATOM     22  C   UNL     1       1.531   3.754  20.693  0.00  0.00    +0.000 C 
ATOM     23  F   UNL     1       1.015   2.524  20.967  0.00  0.00    +0.000 F 
ATOM     24  F   UNL     1       2.209   4.130  21.812  0.00  0.00    +0.000 F 
ATOM     25  F   UNL     1       0.462   4.594  20.604  0.00  0.00    +0.000 F 
ENDBRANCH  19  22
ENDBRANCH  15  16
ENDBRANCH   1  15
TORSDOF 10
ENDMDL
MODEL 2
REMARK VINA RESULT:      -7.5      2.270      4.346
REMARK  Name = 
REMARK  10 active torsions:
REMARK  status: ('A' for Active; 'I' for Inactive)
REMARK    1  A    between atoms: N_1  and  CA_2
REMARK    2  A    between atoms: CA_2  and  C_3
REMARK    3  A    between atoms: CA_2  and  C_19
REMARK    4  A    between atoms: C_3  and  C_4
REMARK    5  A    between atoms: C_4  and  C_5
REMARK    6  A    between atoms: C_4  and  C_16
REMARK    7  A    between atoms: C_5  and  C_6
REMARK    8  A    between atoms: C_9  and  C_10
REMARK    9  A    between atoms: C_16  and  O_18
REMARK   10  A    between atoms: C_19  and  OXT_21
REMARK                            x       y       z     vdW  Elec       q    Type
REMARK                         _______ _______ _______ _____ _____    ______ ____
ROOT
ATOM      1  C   UNL     1       5.796   4.394  15.339  0.00  0.00    +0.000 C 
ENDROOT
BRANCH   1   2
ATOM      2  C   UNL     1       7.254   4.765  15.522  0.00  0.00    +0.000 C 
ATOM      3  O   UNL     1       7.881   5.514  14.793  0.00  0.00    +0.000 OA
BRANCH   2   4
ATOM      4  O   UNL     1       7.849   4.115  16.549  0.00  0.00    +0.000 OA
ATOM      5  H   UNL     1       7.498   4.324  17.437  0.00  0.00    +0.000 HD
ENDBRANCH   2   4
ENDBRANCH   1   2
BRANCH   1   6
ATOM      6  C   UNL     1       5.423   4.373  13.841  0.00  0.00    +0.000 C 
BRANCH   6   7
ATOM      7  CA  UNL     1       6.265   3.523  12.883  0.00  0.00    +0.000 C 
BRANCH   7   8
ATOM      8  N   UNL     1       7.241   4.280  12.065  0.00  0.00    +0.000 NA
ATOM      9  H1  UNL     1       7.853   3.645  11.542  0.00  0.00    +0.000 HD
ATOM     10  H2  UNL     1       7.894   4.766  12.694  0.00  0.00    +0.000 HD
ENDBRANCH   7   8
BRANCH   7  11
ATOM     11  C   UNL     1       5.312   2.774  11.904  0.00  0.00    +0.000 C 
ATOM     12  O   UNL     1       4.250   3.190  11.479  0.00  0.00    +0.000 OA
BRANCH  11  13
ATOM     13  OXT UNL     1       5.811   1.551  11.585  0.00  0.00    +0.000 OA
ATOM     14  HXT UNL     1       5.745   0.993  12.395  0.00  0.00    +0.000 HD
ENDBRANCH  11  13
ENDBRANCH   7  11
ENDBRANCH   6   7
ENDBRANCH   1   6
BRANCH   1  15
ATOM     15  C   UNL     1       4.951   5.437  16.118  0.00  0.00    +0.000 C 
BRANCH  15  16
ATOM     16  C   UNL     1       3.905   4.839  17.033  0.00  0.00    +0.000 A 
ATOM     17  C   UNL     1       3.154   5.644  17.896  0.00  0.00    +0.000 A 
ATOM     18  C   UNL     1       2.234   5.066  18.778  0.00  0.00    +0.000 A 
ATOM     19  C   UNL     1       2.061   3.674  18.825  0.00  0.00    +0.000 A 
ATOM     20  C   UNL     1       2.815   2.870  17.961  0.00  0.00    +0.000 A 
ATOM     21  C   UNL     1       3.714   3.448  17.065  0.00  0.00    +0.000 A 
BRANCH  19  22
ATOM     22  C   UNL     1       1.085   3.035  19.782  0.00  0.00    +0.000 C 
ATOM     23  F   UNL     1       0.452   3.930  20.592  0.00  0.00    +0.000 F 
ATOM     24  F   UNL     1       0.097   2.352  19.141  0.00  0.00    +0.000 F 
ATOM     25  F   UNL     1       1.680   2.137  20.616  0.00  0.00    +0.000 F 
ENDBRANCH  19  22
ENDBRANCH  15  16
ENDBRANCH   1  15
TORSDOF 10
ENDMDL
MODEL 3
REMARK VINA RESULT:      -7.4      2.273      4.197
REMARK  Name = 
REMARK  10 active torsions:
REMARK  status: ('A' for Active; 'I' for Inactive)
REMARK    1  A    between atoms: N_1  and  CA_2
REMARK    2  A    between atoms: CA_2  and  C_3
REMARK    3  A    between atoms: CA_2  and  C_19
REMARK    4  A    between atoms: C_3  and  C_4
REMARK    5  A    between atoms: C_4  and  C_5
REMARK    6  A    between atoms: C_4  and  C_16
REMARK    7  A    between atoms: C_5  and  C_6
REMARK    8  A    between atoms: C_9  and  C_10
REMARK    9  A    between atoms: C_16  and  O_18
REMARK   10  A    between atoms: C_19  and  OXT_21
REMARK                            x       y       z     vdW  Elec       q    Type
REMARK                         _______ _______ _______ _____ _____    ______ ____
ROOT
ATOM      1  C   UNL     1       5.778   4.359  15.297  0.00  0.00    +0.000 C 
ENDROOT
BRANCH   1   2
ATOM      2  C   UNL     1       7.227   4.755  15.497  0.00  0.00    +0.000 C 
ATOM      3  O   UNL     1       7.847   5.523  14.783  0.00  0.00    +0.000 OA
BRANCH   2   4
ATOM      4  O   UNL     1       7.824   4.105  16.524  0.00  0.00    +0.000 OA
ATOM      5  H   UNL     1       8.445   3.396  16.267  0.00  0.00    +0.000 HD
ENDBRANCH   2   4
ENDBRANCH   1   2
BRANCH   1   6
ATOM      6  C   UNL     1       5.427   4.324  13.794  0.00  0.00    +0.000 C 
BRANCH   6   7
ATOM      7  CA  UNL     1       6.317   3.511  12.847  0.00  0.00    +0.000 C 
BRANCH   7   8
ATOM      8  N   UNL     1       7.253   4.312  12.024  0.00  0.00    +0.000 NA
ATOM      9  H1  UNL     1       8.192   4.319  12.437  0.00  0.00    +0.000 HD
ATOM     10  H2  UNL     1       6.972   5.301  12.071  0.00  0.00    +0.000 HD
ENDBRANCH   7   8
BRANCH   7  11
ATOM     11  C   UNL     1       5.409   2.702  11.873  0.00  0.00    +0.000 C 
ATOM     12  O   UNL     1       5.672   1.621  11.380  0.00  0.00    +0.000 OA
BRANCH  11  13
ATOM     13  OXT UNL     1       4.258   3.376  11.613  0.00  0.00    +0.000 OA
ATOM     14  HXT UNL     1       3.540   2.920  12.109  0.00  0.00    +0.000 HD
ENDBRANCH  11  13
ENDBRANCH   7  11
ENDBRANCH   6   7
ENDBRANCH   1   6
BRANCH   1  15
ATOM     15  C   UNL     1       4.905   5.393  16.057  0.00  0.00    +0.000 C 
BRANCH  15  16
ATOM     16  C   UNL     1       3.957   4.788  17.069  0.00  0.00    +0.000 A 
ATOM     17  C   UNL     1       3.763   3.405  17.143  0.00  0.00    +0.000 A 
ATOM     18  C   UNL     1       2.837   2.869  18.044  0.00  0.00    +0.000 A 
ATOM     19  C   UNL     1       2.077   3.705  18.876  0.00  0.00    +0.000 A 
ATOM     20  C   UNL     1       2.273   5.090  18.801  0.00  0.00    +0.000 A 
ATOM     21  C   UNL     1       3.214   5.623  17.920  0.00  0.00    +0.000 A 
BRANCH  19  22
ATOM     22  C   UNL     1       1.063   3.143  19.842  0.00  0.00    +0.000 C 
ATOM     23  F   UNL     1       0.419   4.097  20.571  0.00  0.00    +0.000 F 
ATOM     24  F   UNL     1       0.086   2.432  19.217  0.00  0.00    +0.000 F 
ATOM     25  F   UNL     1       1.620   2.295  20.751  0.00  0.00    +0.000 F 
ENDBRANCH  19  22
ENDBRANCH  15  16
ENDBRANCH   1  15
TORSDOF 10
ENDMDL
MODEL 4
REMARK VINA RESULT:      -7.4      1.290      1.504
REMARK  Name = 
REMARK  10 active torsions:
REMARK  status: ('A' for Active; 'I' for Inactive)
REMARK    1  A    between atoms: N_1  and  CA_2
REMARK    2  A    between atoms: CA_2  and  C_3
REMARK    3  A    between atoms: CA_2  and  C_19
REMARK    4  A    between atoms: C_3  and  C_4
REMARK    5  A    between atoms: C_4  and  C_5
REMARK    6  A    between atoms: C_4  and  C_16
REMARK    7  A    between atoms: C_5  and  C_6
REMARK    8  A    between atoms: C_9  and  C_10
REMARK    9  A    between atoms: C_16  and  O_18
REMARK   10  A    between atoms: C_19  and  OXT_21
REMARK                            x       y       z     vdW  Elec       q    Type
REMARK                         _______ _______ _______ _____ _____    ______ ____
ROOT
ATOM      1  C   UNL     1       6.130   4.752  15.877  0.00  0.00    +0.000 C 
ENDROOT
BRANCH   1   2
ATOM      2  C   UNL     1       6.739   4.649  14.493  0.00  0.00    +0.000 C 
ATOM      3  O   UNL     1       6.395   3.855  13.636  0.00  0.00    +0.000 OA
BRANCH   2   4
ATOM      4  O   UNL     1       7.786   5.486  14.304  0.00  0.00    +0.000 OA
ATOM      5  H   UNL     1       8.441   5.195  13.640  0.00  0.00    +0.000 HD
ENDBRANCH   2   4
ENDBRANCH   1   2
BRANCH   1   6
ATOM      6  C   UNL     1       7.186   4.449  16.961  0.00  0.00    +0.000 C 
BRANCH   6   7
ATOM      7  CA  UNL     1       7.459   5.505  18.039  0.00  0.00    +0.000 C 
BRANCH   7   8
ATOM      8  N   UNL     1       6.765   5.279  19.329  0.00  0.00    +0.000 NA
ATOM      9  H1  UNL     1       6.635   4.277  19.505  0.00  0.00    +0.000 HD
ATOM     10  H2  UNL     1       5.800   5.627  19.251  0.00  0.00    +0.000 HD
ENDBRANCH   7   8
BRANCH   7  11
ATOM     11  C   UNL     1       7.013   6.898  17.504  0.00  0.00    +0.000 C 
ATOM     12  O   UNL     1       5.937   7.431  17.702  0.00  0.00    +0.000 OA
BRANCH  11  13
ATOM     13  OXT UNL     1       7.992   7.461  16.746  0.00  0.00    +0.000 OA
ATOM     14  HXT UNL     1       8.462   6.723  16.291  0.00  0.00    +0.000 HD
ENDBRANCH  11  13
ENDBRANCH   7  11
ENDBRANCH   6   7
ENDBRANCH   1   6
BRANCH   1  15
ATOM     15  C   UNL     1       4.950   3.744  15.940  0.00  0.00    +0.000 C 
BRANCH  15  16
ATOM     16  C   UNL     1       4.131   3.817  17.210  0.00  0.00    +0.000 A 
ATOM     17  C   UNL     1       3.946   2.691  18.018  0.00  0.00    +0.000 A 
ATOM     18  C   UNL     1       3.136   2.764  19.156  0.00  0.00    +0.000 A 
ATOM     19  C   UNL     1       2.483   3.958  19.497  0.00  0.00    +0.000 A 
ATOM     20  C   UNL     1       2.668   5.085  18.687  0.00  0.00    +0.000 A 
ATOM     21  C   UNL     1       3.496   5.019  17.566  0.00  0.00    +0.000 A 
BRANCH  19  22
ATOM     22  C   UNL     1       1.592   4.048  20.713  0.00  0.00    +0.000 C 
ATOM     23  F   UNL     1       0.655   3.061  20.775  0.00  0.00    +0.000 F 
ATOM     24  F   UNL     1       2.292   3.969  21.878  0.00  0.00    +0.000 F 
ATOM     25  F   UNL     1       0.901   5.220  20.771  0.00  0.00    +0.000 F 
ENDBRANCH  19  22
ENDBRANCH  15  16
ENDBRANCH   1  15
TORSDOF 10
ENDMDL
MODEL 5
REMARK VINA RESULT:      -7.4      1.281      1.521
REMARK  Name = 
REMARK  10 active torsions:
REMARK  status: ('A' for Active; 'I' for Inactive)
REMARK    1  A    between atoms: N_1  and  CA_2
REMARK    2  A    between atoms: CA_2  and  C_3
REMARK    3  A    between atoms: CA_2  and  C_19
REMARK    4  A    between atoms: C_3  and  C_4
REMARK    5  A    between atoms: C_4  and  C_5
REMARK    6  A    between atoms: C_4  and  C_16
REMARK    7  A    between atoms: C_5  and  C_6
REMARK    8  A    between atoms: C_9  and  C_10
REMARK    9  A    between atoms: C_16  and  O_18
REMARK   10  A    between atoms: C_19  and  OXT_21
REMARK                            x       y       z     vdW  Elec       q    Type
REMARK                         _______ _______ _______ _____ _____    ______ ____
ROOT
ATOM      1  C   UNL     1       6.238   4.722  16.051  0.00  0.00    +0.000 C 
ENDROOT
BRANCH   1   2
ATOM      2  C   UNL     1       6.889   4.576  14.690  0.00  0.00    +0.000 C 
ATOM      3  O   UNL     1       7.719   5.339  14.228  0.00  0.00    +0.000 OA
BRANCH   2   4
ATOM      4  O   UNL     1       6.403   3.538  13.971  0.00  0.00    +0.000 OA
ATOM      5  H   UNL     1       6.590   2.651  14.334  0.00  0.00    +0.000 HD
ENDBRANCH   2   4
ENDBRANCH   1   2
BRANCH   1   6
ATOM      6  C   UNL     1       7.280   4.543  17.175  0.00  0.00    +0.000 C 
BRANCH   6   7
ATOM      7  CA  UNL     1       7.437   5.655  18.219  0.00  0.00    +0.000 C 
BRANCH   7   8
ATOM      8  N   UNL     1       6.747   5.407  19.508  0.00  0.00    +0.000 NA
ATOM      9  H1  UNL     1       5.948   6.041  19.624  0.00  0.00    +0.000 HD
ATOM     10  H2  UNL     1       7.374   5.681  20.276  0.00  0.00    +0.000 HD
ENDBRANCH   7   8
BRANCH   7  11
ATOM     11  C   UNL     1       6.871   6.982  17.631  0.00  0.00    +0.000 C 
ATOM     12  O   UNL     1       5.705   7.333  17.645  0.00  0.00    +0.000 OA
BRANCH  11  13
ATOM     13  OXT UNL     1       7.861   7.718  17.062  0.00  0.00    +0.000 OA
ATOM     14  HXT UNL     1       8.688   7.521  17.560  0.00  0.00    +0.000 HD
ENDBRANCH  11  13
ENDBRANCH   7  11
ENDBRANCH   6   7
ENDBRANCH   1   6
BRANCH   1  15
ATOM     15  C   UNL     1       5.116   3.653  16.145  0.00  0.00    +0.000 C 
BRANCH  15  16
ATOM     16  C   UNL     1       4.253   3.758  17.383  0.00  0.00    +0.000 A 
ATOM     17  C   UNL     1       4.258   2.753  18.356  0.00  0.00    +0.000 A 
ATOM     18  C   UNL     1       3.408   2.839  19.464  0.00  0.00    +0.000 A 
ATOM     19  C   UNL     1       2.528   3.922  19.612  0.00  0.00    +0.000 A 
ATOM     20  C   UNL     1       2.525   4.928  18.637  0.00  0.00    +0.000 A 
ATOM     21  C   UNL     1       3.389   4.854  17.545  0.00  0.00    +0.000 A 
BRANCH  19  22
ATOM     22  C   UNL     1       1.595   4.021  20.794  0.00  0.00    +0.000 C 
ATOM     23  F   UNL     1       2.234   3.983  21.996  0.00  0.00    +0.000 F 
ATOM     24  F   UNL     1       0.874   5.176  20.794  0.00  0.00    +0.000 F 
ATOM     25  F   UNL     1       0.681   3.011  20.826  0.00  0.00    +0.000 F 
ENDBRANCH  19  22
ENDBRANCH  15  16
ENDBRANCH   1  15
TORSDOF 10
ENDMDL
MODEL 6
REMARK VINA RESULT:      -7.3      2.192      4.185
REMARK  Name = 
REMARK  10 active torsions:
REMARK  status: ('A' for Active; 'I' for Inactive)
REMARK    1  A    between atoms: N_1  and  CA_2
REMARK    2  A    between atoms: CA_2  and  C_3
REMARK    3  A    between atoms: CA_2  and  C_19
REMARK    4  A    between atoms: C_3  and  C_4
REMARK    5  A    between atoms: C_4  and  C_5
REMARK    6  A    between atoms: C_4  and  C_16
REMARK    7  A    between atoms: C_5  and  C_6
REMARK    8  A    between atoms: C_9  and  C_10
REMARK    9  A    between atoms: C_16  and  O_18
REMARK   10  A    between atoms: C_19  and  OXT_21
REMARK                            x       y       z     vdW  Elec       q    Type
REMARK                         _______ _______ _______ _____ _____    ______ ____
ROOT
ATOM      1  C   UNL     1       5.788   4.434  15.355  0.00  0.00    +0.000 C 
ENDROOT
BRANCH   1   2
ATOM      2  C   UNL     1       7.242   4.763  15.625  0.00  0.00    +0.000 C 
ATOM      3  O   UNL     1       7.893   4.335  16.562  0.00  0.00    +0.000 OA
BRANCH   2   4
ATOM      4  O   UNL     1       7.759   5.664  14.757  0.00  0.00    +0.000 OA
ATOM      5  H   UNL     1       8.613   6.058  15.020  0.00  0.00    +0.000 HD
ENDBRANCH   2   4
ENDBRANCH   1   2
BRANCH   1   6
ATOM      6  C   UNL     1       5.496   4.462  13.839  0.00  0.00    +0.000 C 
BRANCH   6   7
ATOM      7  CA  UNL     1       6.313   3.552  12.914  0.00  0.00    +0.000 C 
BRANCH   7   8
ATOM      8  N   UNL     1       7.320   4.249  12.080  0.00  0.00    +0.000 NA
ATOM      9  H1  UNL     1       7.188   4.031  11.086  0.00  0.00    +0.000 HD
ATOM     10  H2  UNL     1       8.248   3.853  12.282  0.00  0.00    +0.000 HD
ENDBRANCH   7   8
BRANCH   7  11
ATOM     11  C   UNL     1       5.339   2.808  11.952  0.00  0.00    +0.000 C 
ATOM     12  O   UNL     1       4.281   3.236  11.531  0.00  0.00    +0.000 OA
BRANCH  11  13
ATOM     13  OXT UNL     1       5.816   1.574  11.642  0.00  0.00    +0.000 OA
ATOM     14  HXT UNL     1       6.771   1.682  11.421  0.00  0.00    +0.000 HD
ENDBRANCH  11  13
ENDBRANCH   7  11
ENDBRANCH   6   7
ENDBRANCH   1   6
BRANCH   1  15
ATOM     15  C   UNL     1       4.927   5.478  16.115  0.00  0.00    +0.000 C 
BRANCH  15  16
ATOM     16  C   UNL     1       4.150   4.917  17.286  0.00  0.00    +0.000 A 
ATOM     17  C   UNL     1       3.432   3.722  17.172  0.00  0.00    +0.000 A 
ATOM     18  C   UNL     1       2.672   3.250  18.247  0.00  0.00    +0.000 A 
ATOM     19  C   UNL     1       2.602   3.971  19.449  0.00  0.00    +0.000 A 
ATOM     20  C   UNL     1       3.322   5.167  19.561  0.00  0.00    +0.000 A 
ATOM     21  C   UNL     1       4.100   5.625  18.498  0.00  0.00    +0.000 A 
BRANCH  19  22
ATOM     22  C   UNL     1       1.773   3.483  20.612  0.00  0.00    +0.000 C 
ATOM     23  F   UNL     1       2.341   3.728  21.826  0.00  0.00    +0.000 F 
ATOM     24  F   UNL     1       0.542   4.062  20.654  0.00  0.00    +0.000 F 
ATOM     25  F   UNL     1       1.552   2.139  20.571  0.00  0.00    +0.000 F 
ENDBRANCH  19  22
ENDBRANCH  15  16
ENDBRANCH   1  15
TORSDOF 10
ENDMDL
MODEL 7
REMARK VINA RESULT:      -7.3      1.259      1.956
REMARK  Name = 
REMARK  10 active torsions:
REMARK  status: ('A' for Active; 'I' for Inactive)
REMARK    1  A    between atoms: N_1  and  CA_2
REMARK    2  A    between atoms: CA_2  and  C_3
REMARK    3  A    between atoms: CA_2  and  C_19
REMARK    4  A    between atoms: C_3  and  C_4
REMARK    5  A    between atoms: C_4  and  C_5
REMARK    6  A    between atoms: C_4  and  C_16
REMARK    7  A    between atoms: C_5  and  C_6
REMARK    8  A    between atoms: C_9  and  C_10
REMARK    9  A    between atoms: C_16  and  O_18
REMARK   10  A    between atoms: C_19  and  OXT_21
REMARK                            x       y       z     vdW  Elec       q    Type
REMARK                         _______ _______ _______ _____ _____    ______ ____
ROOT
ATOM      1  C   UNL     1       6.305   4.758  16.084  0.00  0.00    +0.000 C 
ENDROOT
BRANCH   1   2
ATOM      2  C   UNL     1       6.987   4.682  14.733  0.00  0.00    +0.000 C 
ATOM      3  O   UNL     1       7.837   5.458  14.335  0.00  0.00    +0.000 OA
BRANCH   2   4
ATOM      4  O   UNL     1       6.504   3.694  13.943  0.00  0.00    +0.000 OA
ATOM      5  H   UNL     1       5.558   3.766  13.712  0.00  0.00    +0.000 HD
ENDBRANCH   2   4
ENDBRANCH   1   2
BRANCH   1   6
ATOM      6  C   UNL     1       7.322   4.524  17.221  0.00  0.00    +0.000 C 
BRANCH   6   7
ATOM      7  CA  UNL     1       7.520   5.623  18.271  0.00  0.00    +0.000 C 
BRANCH   7   8
ATOM      8  N   UNL     1       6.711   5.466  19.503  0.00  0.00    +0.000 NA
ATOM      9  H1  UNL     1       6.030   6.228  19.595  0.00  0.00    +0.000 HD
ATOM     10  H2  UNL     1       7.323   5.603  20.320  0.00  0.00    +0.000 HD
ENDBRANCH   7   8
BRANCH   7  11
ATOM     11  C   UNL     1       7.150   6.997  17.638  0.00  0.00    +0.000 C 
ATOM     12  O   UNL     1       7.902   7.725  17.017  0.00  0.00    +0.000 OA
BRANCH  11  13
ATOM     13  OXT UNL     1       5.851   7.309  17.887  0.00  0.00    +0.000 OA
ATOM     14  HXT UNL     1       5.512   7.781  17.090  0.00  0.00    +0.000 HD
ENDBRANCH  11  13
ENDBRANCH   7  11
ENDBRANCH   6   7
ENDBRANCH   1   6
BRANCH   1  15
ATOM     15  C   UNL     1       5.184   3.685  16.099  0.00  0.00    +0.000 C 
BRANCH  15  16
ATOM     16  C   UNL     1       4.215   3.807  17.254  0.00  0.00    +0.000 A 
ATOM     17  C   UNL     1       3.566   5.014  17.530  0.00  0.00    +0.000 A 
ATOM     18  C   UNL     1       2.719   5.124  18.638  0.00  0.00    +0.000 A 
ATOM     19  C   UNL     1       2.519   4.035  19.500  0.00  0.00    +0.000 A 
ATOM     20  C   UNL     1       3.170   2.826  19.222  0.00  0.00    +0.000 A 
ATOM     21  C   UNL     1       3.994   2.710  18.103  0.00  0.00    +0.000 A 
BRANCH  19  22
ATOM     22  C   UNL     1       1.621   4.142  20.709  0.00  0.00    +0.000 C 
ATOM     23  F   UNL     1       0.823   5.246  20.696  0.00  0.00    +0.000 F 
ATOM     24  F   UNL     1       0.781   3.078  20.831  0.00  0.00    +0.000 F 
ATOM     25  F   UNL     1       2.320   4.202  21.876  0.00  0.00    +0.000 F 
ENDBRANCH  19  22
ENDBRANCH  15  16
ENDBRANCH   1  15
TORSDOF 10
ENDMDL
MODEL 8
REMARK VINA RESULT:      -7.3      1.756      3.824
REMARK  Name = 
REMARK  10 active torsions:
REMARK  status: ('A' for Active; 'I' for Inactive)
REMARK    1  A    between atoms: N_1  and  CA_2
REMARK    2  A    between atoms: CA_2  and  C_3
REMARK    3  A    between atoms: CA_2  and  C_19
REMARK    4  A    between atoms: C_3  and  C_4
REMARK    5  A    between atoms: C_4  and  C_5
REMARK    6  A    between atoms: C_4  and  C_16
REMARK    7  A    between atoms: C_5  and  C_6
REMARK    8  A    between atoms: C_9  and  C_10
REMARK    9  A    between atoms: C_16  and  O_18
REMARK   10  A    between atoms: C_19  and  OXT_21
REMARK                            x       y       z     vdW  Elec       q    Type
REMARK                         _______ _______ _______ _____ _____    ______ ____
ROOT
ATOM      1  C   UNL     1       6.714   5.309  16.866  0.00  0.00    +0.000 C 
ENDROOT
BRANCH   1   2
ATOM      2  C   UNL     1       7.447   6.448  17.545  0.00  0.00    +0.000 C 
ATOM      3  O   UNL     1       7.897   6.414  18.676  0.00  0.00    +0.000 OA
BRANCH   2   4
ATOM      4  O   UNL     1       7.496   7.576  16.798  0.00  0.00    +0.000 OA
ATOM      5  H   UNL     1       8.319   7.706  16.287  0.00  0.00    +0.000 HD
ENDBRANCH   2   4
ENDBRANCH   1   2
BRANCH   1   6
ATOM      6  C   UNL     1       7.479   4.840  15.611  0.00  0.00    +0.000 C 
BRANCH   6   7
ATOM      7  CA  UNL     1       6.725   4.747  14.279  0.00  0.00    +0.000 C 
BRANCH   7   8
ATOM      8  N   UNL     1       6.168   3.410  13.966  0.00  0.00    +0.000 NA
ATOM      9  H1  UNL     1       6.336   2.753  14.734  0.00  0.00    +0.000 HD
ATOM     10  H2  UNL     1       6.705   3.002  13.189  0.00  0.00    +0.000 HD
ENDBRANCH   7   8
BRANCH   7  11
ATOM     11  C   UNL     1       7.695   5.134  13.123  0.00  0.00    +0.000 C 
ATOM     12  O   UNL     1       8.607   5.937  13.192  0.00  0.00    +0.000 OA
BRANCH  11  13
ATOM     13  OXT UNL     1       7.381   4.463  11.984  0.00  0.00    +0.000 OA
ATOM     14  HXT UNL     1       8.168   3.920  11.745  0.00  0.00    +0.000 HD
ENDBRANCH  11  13
ENDBRANCH   7  11
ENDBRANCH   6   7
ENDBRANCH   1   6
BRANCH   1  15
ATOM     15  C   UNL     1       5.294   5.822  16.504  0.00  0.00    +0.000 C 
BRANCH  15  16
ATOM     16  C   UNL     1       4.167   5.086  17.194  0.00  0.00    +0.000 A 
ATOM     17  C   UNL     1       3.162   5.778  17.877  0.00  0.00    +0.000 A 
ATOM     18  C   UNL     1       2.161   5.079  18.560  0.00  0.00    +0.000 A 
ATOM     19  C   UNL     1       2.156   3.675  18.586  0.00  0.00    +0.000 A 
ATOM     20  C   UNL     1       3.163   2.983  17.901  0.00  0.00    +0.000 A 
ATOM     21  C   UNL     1       4.146   3.681  17.200  0.00  0.00    +0.000 A 
BRANCH  19  22
ATOM     22  C   UNL     1       1.092   2.907  19.331  0.00  0.00    +0.000 C 
ATOM     23  F   UNL     1       0.317   3.689  20.134  0.00  0.00    +0.000 F 
ATOM     24  F   UNL     1       0.230   2.265  18.495  0.00  0.00    +0.000 F 
ATOM     25  F   UNL     1       1.613   1.944  20.142  0.00  0.00    +0.000 F 
ENDBRANCH  19  22
ENDBRANCH  15  16
ENDBRANCH   1  15
TORSDOF 10
ENDMDL
MODEL 9
REMARK VINA RESULT:      -7.3      0.666      1.561
REMARK  Name = 
REMARK  10 active torsions:
REMARK  status: ('A' for Active; 'I' for Inactive)
REMARK    1  A    between atoms: N_1  and  CA_2
REMARK    2  A    between atoms: CA_2  and  C_3
REMARK    3  A    between atoms: CA_2  and  C_19
REMARK    4  A    between atoms: C_3  and  C_4
REMARK    5  A    between atoms: C_4  and  C_5
REMARK    6  A    between atoms: C_4  and  C_16
REMARK    7  A    between atoms: C_5  and  C_6
REMARK    8  A    between atoms: C_9  and  C_10
REMARK    9  A    between atoms: C_16  and  O_18
REMARK   10  A    between atoms: C_19  and  OXT_21
REMARK                            x       y       z     vdW  Elec       q    Type
REMARK                         _______ _______ _______ _____ _____    ______ ____
ROOT
ATOM      1  C   UNL     1       5.953   4.913  15.779  0.00  0.00    +0.000 C 
ENDROOT
BRANCH   1   2
ATOM      2  C   UNL     1       6.608   4.759  14.421  0.00  0.00    +0.000 C 
ATOM      3  O   UNL     1       6.228   4.004  13.544  0.00  0.00    +0.000 OA
BRANCH   2   4
ATOM      4  O   UNL     1       7.736   5.494  14.282  0.00  0.00    +0.000 OA
ATOM      5  H   UNL     1       8.542   4.988  14.062  0.00  0.00    +0.000 HD
ENDBRANCH   2   4
ENDBRANCH   1   2
BRANCH   1   6
ATOM      6  C   UNL     1       7.019   5.011  16.890  0.00  0.00    +0.000 C 
BRANCH   6   7
ATOM      7  CA  UNL     1       6.877   6.106  17.954  0.00  0.00    +0.000 C 
BRANCH   7   8
ATOM      8  N   UNL     1       7.800   7.255  17.798  0.00  0.00    +0.000 NA
ATOM      9  H1  UNL     1       8.776   6.961  17.913  0.00  0.00    +0.000 HD
ATOM     10  H2  UNL     1       7.659   7.902  18.586  0.00  0.00    +0.000 HD
ENDBRANCH   7   8
BRANCH   7  11
ATOM     11  C   UNL     1       7.137   5.482  19.357  0.00  0.00    +0.000 C 
ATOM     12  O   UNL     1       8.205   5.448  19.940  0.00  0.00    +0.000 OA
BRANCH  11  13
ATOM     13  OXT UNL     1       5.998   4.942  19.865  0.00  0.00    +0.000 OA
ATOM     14  HXT UNL     1       5.335   4.934  19.136  0.00  0.00    +0.000 HD
ENDBRANCH  11  13
ENDBRANCH   7  11
ENDBRANCH   6   7
ENDBRANCH   1   6
BRANCH   1  15
ATOM     15  C   UNL     1       5.028   3.685  15.990  0.00  0.00    +0.000 C 
BRANCH  15  16
ATOM     16  C   UNL     1       4.093   3.800  17.174  0.00  0.00    +0.000 A 
ATOM     17  C   UNL     1       3.452   5.005  17.475  0.00  0.00    +0.000 A 
ATOM     18  C   UNL     1       2.639   5.108  18.609  0.00  0.00    +0.000 A 
ATOM     19  C   UNL     1       2.465   4.014  19.470  0.00  0.00    +0.000 A 
ATOM     20  C   UNL     1       3.109   2.807  19.167  0.00  0.00    +0.000 A 
ATOM     21  C   UNL     1       3.900   2.698  18.024  0.00  0.00    +0.000 A 
BRANCH  19  22
ATOM     22  C   UNL     1       1.605   4.115  20.706  0.00  0.00    +0.000 C 
ATOM     23  F   UNL     1       0.783   3.043  20.885  0.00  0.00    +0.000 F 
ATOM     24  F   UNL     1       2.340   4.213  21.848  0.00  0.00    +0.000 F 
ATOM     25  F   UNL     1       0.791   5.207  20.691  0.00  0.00    +0.000 F 
ENDBRANCH  19  22
ENDBRANCH  15  16
ENDBRANCH   1  15
TORSDOF 10
ENDMDL
