MODEL 1
REMARK VINA RESULT:      -9.0      0.000      0.000
REMARK  Name = 
REMARK  8 active torsions:
REMARK  status: ('A' for Active; 'I' for Inactive)
REMARK    1  A    between atoms: C_1  and  N_2
REMARK    2  A    between atoms: C_3  and  C_5
REMARK    3  A    between atoms: C_5  and  C_6
REMARK    4  A    between atoms: C_5  and  N_10
REMARK    5  A    between atoms: N_8  and  O_9
REMARK    6  A    between atoms: N_10  and  C_11
REMARK    7  A    between atoms: C_12  and  C_14
REMARK    8  A    between atoms: C_17  and  C_18
REMARK                            x       y       z     vdW  Elec       q    Type
REMARK                         _______ _______ _______ _____ _____    ______ ____
ROOT
ATOM      1  N   UNL     1       5.458   5.898  17.548  0.00  0.00    +0.000 N 
ATOM      2  C   UNL     1       6.041   7.234  17.383  0.00  0.00    +0.000 C 
ATOM      3  C   UNL     1       4.192   5.618  18.066  0.00  0.00    +0.000 C 
ATOM      4  O   UNL     1       3.865   4.465  18.348  0.00  0.00    +0.000 OA
ENDROOT
BRANCH   3   5
ATOM      5  C   UNL     1       3.212   6.698  18.373  0.00  0.00    +0.000 A 
ATOM      6  C   UNL     1       2.829   7.664  17.444  0.00  0.00    +0.000 A 
ATOM      7  C   UNL     1       1.996   8.718  17.833  0.00  0.00    +0.000 A 
ATOM      8  C   UNL     1       1.484   8.806  19.135  0.00  0.00    +0.000 A 
ATOM      9  C   UNL     1       1.771   7.757  20.023  0.00  0.00    +0.000 A 
ATOM     10  C   UNL     1       2.631   6.717  19.648  0.00  0.00    +0.000 A 
BRANCH   8  11
ATOM     11  C   UNL     1       0.801  10.029  19.594  0.00  0.00    +0.000 A 
ATOM     12  C   UNL     1       0.706  10.382  20.960  0.00  0.00    +0.000 A 
ATOM     13  C   UNL     1       0.220  11.640  21.359  0.00  0.00    +0.000 A 
ATOM     14  C   UNL     1      -0.145  12.537  20.375  0.00  0.00    +0.000 A 
ATOM     15  C   UNL     1      -0.119  12.169  19.039  0.00  0.00    +0.000 A 
ATOM     16  C   UNL     1       0.324  10.936  18.630  0.00  0.00    +0.000 A 
ATOM     17  O   UNL     1      -0.501  13.166  18.181  0.00  0.00    +0.000 OA
ATOM     18  C   UNL     1      -0.356  14.345  19.004  0.00  0.00    +0.000 C 
ATOM     19  C   UNL     1      -0.593  13.945  20.464  0.00  0.00    +0.000 C 
ENDBRANCH   8  11
ENDBRANCH   3   5
BRANCH   1  20
ATOM     20  C   UNL     1       6.312   4.745  17.148  0.00  0.00    +0.000 C 
BRANCH  20  23
ATOM     21  C   UNL     1       6.214   3.806  13.446  0.00  0.00    +0.000 C 
ATOM     22  N   UNL     1       5.951   3.913  14.858  0.00  0.00    +0.000 N 
ATOM     23  C   UNL     1       6.685   4.771  15.656  0.00  0.00    +0.000 C 
ATOM     24  O   UNL     1       7.572   5.494  15.190  0.00  0.00    +0.000 OA
ATOM     25  H   UNL     1       5.229   3.330  15.262  0.00  0.00    +0.000 HD
ENDBRANCH  20  23
BRANCH  20  26
ATOM     26  C   UNL     1       7.534   4.660  18.066  0.00  0.00    +0.000 C 
ATOM     27  O   UNL     1       8.577   4.061  17.797  0.00  0.00    +0.000 OA
ATOM     28  N   UNL     1       7.337   5.212  19.314  0.00  0.00    +0.000 N 
ATOM     29  H   UNL     1       6.571   5.848  19.516  0.00  0.00    +0.000 HD
BRANCH  28  30
ATOM     30  O   UNL     1       8.458   5.243  20.173  0.00  0.00    +0.000 OA
ATOM     31  H   UNL     1       8.056   5.067  21.052  0.00  0.00    +0.000 HD
ENDBRANCH  28  30
ENDBRANCH  20  26
ENDBRANCH   1  20
TORSDOF 6
ENDMDL
MODEL 2
REMARK VINA RESULT:      -9.0      2.016      2.804
REMARK  Name = 
REMARK  8 active torsions:
REMARK  status: ('A' for Active; 'I' for Inactive)
REMARK    1  A    between atoms: C_1  and  N_2
REMARK    2  A    between atoms: C_3  and  C_5
REMARK    3  A    between atoms: C_5  and  C_6
REMARK    4  A    between atoms: C_5  and  N_10
REMARK    5  A    between atoms: N_8  and  O_9
REMARK    6  A    between atoms: N_10  and  C_11
REMARK    7  A    between atoms: C_12  and  C_14
REMARK    8  A    between atoms: C_17  and  C_18
REMARK                            x       y       z     vdW  Elec       q    Type
REMARK                         _______ _______ _______ _____ _____    ______ ____
ROOT
ATOM      1  N   UNL     1       4.017   5.282  17.804  0.00  0.00    +0.000 N 
ATOM      2  C   UNL     1       5.152   6.088  18.266  0.00  0.00    +0.000 C 
ATOM      3  C   UNL     1       2.668   5.563  18.035  0.00  0.00    +0.000 C 
ATOM      4  O   UNL     1       1.796   4.733  17.779  0.00  0.00    +0.000 OA
ENDROOT
BRANCH   3   5
ATOM      5  C   UNL     1       2.229   6.839  18.670  0.00  0.00    +0.000 A 
ATOM      6  C   UNL     1       2.015   6.971  20.041  0.00  0.00    +0.000 A 
ATOM      7  C   UNL     1       1.491   8.162  20.556  0.00  0.00    +0.000 A 
ATOM      8  C   UNL     1       1.219   9.261  19.729  0.00  0.00    +0.000 A 
ATOM      9  C   UNL     1       1.563   9.160  18.372  0.00  0.00    +0.000 A 
ATOM     10  C   UNL     1       2.057   7.958  17.846  0.00  0.00    +0.000 A 
BRANCH   8  11
ATOM     11  C   UNL     1       0.462  10.418  20.240  0.00  0.00    +0.000 A 
ATOM     12  C   UNL     1      -0.078  11.411  19.390  0.00  0.00    +0.000 A 
ATOM     13  C   UNL     1      -0.954  12.396  19.879  0.00  0.00    +0.000 A 
ATOM     14  C   UNL     1      -1.293  12.356  21.218  0.00  0.00    +0.000 A 
ATOM     15  C   UNL     1      -0.712  11.428  22.066  0.00  0.00    +0.000 A 
ATOM     16  C   UNL     1       0.168  10.476  21.615  0.00  0.00    +0.000 A 
ATOM     17  O   UNL     1      -1.153  11.507  23.360  0.00  0.00    +0.000 OA
ATOM     18  C   UNL     1      -2.382  12.252  23.216  0.00  0.00    +0.000 C 
ATOM     19  C   UNL     1      -2.246  13.175  22.001  0.00  0.00    +0.000 C 
ENDBRANCH   8  11
ENDBRANCH   3   5
BRANCH   1  20
ATOM     20  C   UNL     1       4.344   4.044  17.043  0.00  0.00    +0.000 C 
BRANCH  20  23
ATOM     21  C   UNL     1       6.643   4.523  14.029  0.00  0.00    +0.000 C 
ATOM     22  N   UNL     1       5.501   4.420  14.901  0.00  0.00    +0.000 N 
ATOM     23  C   UNL     1       5.658   4.163  16.251  0.00  0.00    +0.000 C 
ATOM     24  O   UNL     1       6.775   4.039  16.764  0.00  0.00    +0.000 OA
ATOM     25  H   UNL     1       4.577   4.519  14.503  0.00  0.00    +0.000 HD
ENDBRANCH  20  23
BRANCH  20  26
ATOM     26  C   UNL     1       4.323   2.836  17.983  0.00  0.00    +0.000 C 
ATOM     27  O   UNL     1       3.602   1.847  17.842  0.00  0.00    +0.000 OA
ATOM     28  N   UNL     1       5.102   2.989  19.110  0.00  0.00    +0.000 N 
ATOM     29  H   UNL     1       5.826   3.699  19.183  0.00  0.00    +0.000 HD
BRANCH  28  30
ATOM     30  O   UNL     1       5.192   1.872  19.970  0.00  0.00    +0.000 OA
ATOM     31  H   UNL     1       4.258   1.737  20.240  0.00  0.00    +0.000 HD
ENDBRANCH  28  30
ENDBRANCH  20  26
ENDBRANCH   1  20
TORSDOF 6
ENDMDL
MODEL 3
REMARK VINA RESULT:      -8.8      1.280      1.867
REMARK  Name = 
REMARK  8 active torsions:
REMARK  status: ('A' for Active; 'I' for Inactive)
REMARK    1  A    between atoms: C_1  and  N_2
REMARK    2  A    between atoms: C_3  and  C_5
REMARK    3  A    between atoms: C_5  and  C_6
REMARK    4  A    between atoms: C_5  and  N_10
REMARK    5  A    between atoms: N_8  and  O_9
REMARK    6  A    between atoms: N_10  and  C_11
REMARK    7  A    between atoms: C_12  and  C_14
REMARK    8  A    between atoms: C_17  and  C_18
REMARK                            x       y       z     vdW  Elec       q    Type
REMARK                         _______ _______ _______ _____ _____    ______ ____
ROOT
ATOM      1  N   UNL     1       5.351   6.080  17.576  0.00  0.00    +0.000 N 
ATOM      2  C   UNL     1       5.965   7.372  17.251  0.00  0.00    +0.000 C 
ATOM      3  C   UNL     1       4.111   5.897  18.194  0.00  0.00    +0.000 C 
ATOM      4  O   UNL     1       3.766   4.788  18.601  0.00  0.00    +0.000 OA
ENDROOT
BRANCH   3   5
ATOM      5  C   UNL     1       3.189   7.038  18.457  0.00  0.00    +0.000 A 
ATOM      6  C   UNL     1       2.506   7.201  19.661  0.00  0.00    +0.000 A 
ATOM      7  C   UNL     1       1.567   8.228  19.801  0.00  0.00    +0.000 A 
ATOM      8  C   UNL     1       1.326   9.145  18.767  0.00  0.00    +0.000 A 
ATOM      9  C   UNL     1       2.115   9.050  17.610  0.00  0.00    +0.000 A 
ATOM     10  C   UNL     1       3.032   8.003  17.454  0.00  0.00    +0.000 A 
BRANCH   8  11
ATOM     11  C   UNL     1       0.184  10.074  18.838  0.00  0.00    +0.000 A 
ATOM     12  C   UNL     1      -0.899  10.021  17.930  0.00  0.00    +0.000 A 
ATOM     13  C   UNL     1      -2.061  10.787  18.131  0.00  0.00    +0.000 A 
ATOM     14  C   UNL     1      -2.127  11.584  19.257  0.00  0.00    +0.000 A 
ATOM     15  C   UNL     1      -1.042  11.691  20.111  0.00  0.00    +0.000 A 
ATOM     16  C   UNL     1       0.113  10.974  19.918  0.00  0.00    +0.000 A 
ATOM     17  O   UNL     1      -1.260  12.509  21.187  0.00  0.00    +0.000 OA
ATOM     18  C   UNL     1      -2.702  12.584  21.221  0.00  0.00    +0.000 C 
ATOM     19  C   UNL     1      -3.228  12.417  19.792  0.00  0.00    +0.000 C 
ENDBRANCH   8  11
ENDBRANCH   3   5
BRANCH   1  20
ATOM     20  C   UNL     1       6.139   4.863  17.234  0.00  0.00    +0.000 C 
BRANCH  20  23
ATOM     21  C   UNL     1       6.085   3.821  13.559  0.00  0.00    +0.000 C 
ATOM     22  N   UNL     1       5.790   3.986  14.958  0.00  0.00    +0.000 N 
ATOM     23  C   UNL     1       6.555   4.820  15.754  0.00  0.00    +0.000 C 
ATOM     24  O   UNL     1       7.498   5.472  15.293  0.00  0.00    +0.000 OA
ATOM     25  H   UNL     1       5.022   3.463  15.357  0.00  0.00    +0.000 HD
ENDBRANCH  20  23
BRANCH  20  26
ATOM     26  C   UNL     1       7.327   4.728  18.190  0.00  0.00    +0.000 C 
ATOM     27  O   UNL     1       8.383   4.152  17.924  0.00  0.00    +0.000 OA
ATOM     28  N   UNL     1       7.080   5.201  19.461  0.00  0.00    +0.000 N 
ATOM     29  H   UNL     1       6.302   5.820  19.673  0.00  0.00    +0.000 HD
BRANCH  28  30
ATOM     30  O   UNL     1       8.168   5.184  20.362  0.00  0.00    +0.000 OA
ATOM     31  H   UNL     1       7.932   5.901  20.991  0.00  0.00    +0.000 HD
ENDBRANCH  28  30
ENDBRANCH  20  26
ENDBRANCH   1  20
TORSDOF 6
ENDMDL
MODEL 4
REMARK VINA RESULT:      -8.7      2.217      3.423
REMARK  Name = 
REMARK  8 active torsions:
REMARK  status: ('A' for Active; 'I' for Inactive)
REMARK    1  A    between atoms: C_1  and  N_2
REMARK    2  A    between atoms: C_3  and  C_5
REMARK    3  A    between atoms: C_5  and  C_6
REMARK    4  A    between atoms: C_5  and  N_10
REMARK    5  A    between atoms: N_8  and  O_9
REMARK    6  A    between atoms: N_10  and  C_11
REMARK    7  A    between atoms: C_12  and  C_14
REMARK    8  A    between atoms: C_17  and  C_18
REMARK                            x       y       z     vdW  Elec       q    Type
REMARK                         _______ _______ _______ _____ _____    ______ ____
ROOT
ATOM      1  N   UNL     1       3.090   5.247  18.514  0.00  0.00    +0.000 N 
ATOM      2  C   UNL     1       2.255   4.613  19.539  0.00  0.00    +0.000 C 
ATOM      3  C   UNL     1       3.096   6.606  18.191  0.00  0.00    +0.000 C 
ATOM      4  O   UNL     1       3.684   7.016  17.190  0.00  0.00    +0.000 OA
ENDROOT
BRANCH   3   5
ATOM      5  C   UNL     1       2.332   7.606  18.990  0.00  0.00    +0.000 A 
ATOM      6  C   UNL     1       2.077   7.457  20.352  0.00  0.00    +0.000 A 
ATOM      7  C   UNL     1       1.255   8.373  21.016  0.00  0.00    +0.000 A 
ATOM      8  C   UNL     1       0.714   9.485  20.354  0.00  0.00    +0.000 A 
ATOM      9  C   UNL     1       1.085   9.696  19.017  0.00  0.00    +0.000 A 
ATOM     10  C   UNL     1       1.881   8.762  18.340  0.00  0.00    +0.000 A 
BRANCH   8  11
ATOM     11  C   UNL     1      -0.325  10.310  20.996  0.00  0.00    +0.000 A 
ATOM     12  C   UNL     1      -0.540  10.314  22.394  0.00  0.00    +0.000 A 
ATOM     13  C   UNL     1      -1.401  11.245  23.000  0.00  0.00    +0.000 A 
ATOM     14  C   UNL     1      -2.021  12.178  22.192  0.00  0.00    +0.000 A 
ATOM     15  C   UNL     1      -1.866  12.135  20.816  0.00  0.00    +0.000 A 
ATOM     16  C   UNL     1      -1.053  11.215  20.201  0.00  0.00    +0.000 A 
ATOM     17  O   UNL     1      -2.534  13.128  20.151  0.00  0.00    +0.000 OA
ATOM     18  C   UNL     1      -2.776  14.087  21.203  0.00  0.00    +0.000 C 
ATOM     19  C   UNL     1      -2.890  13.328  22.530  0.00  0.00    +0.000 C 
ENDBRANCH   8  11
ENDBRANCH   3   5
BRANCH   1  20
ATOM     20  C   UNL     1       3.991   4.349  17.739  0.00  0.00    +0.000 C 
BRANCH  20  23
ATOM     21  C   UNL     1       7.803   4.465  17.518  0.00  0.00    +0.000 C 
ATOM     22  N   UNL     1       6.396   4.442  17.214  0.00  0.00    +0.000 N 
ATOM     23  C   UNL     1       5.450   4.408  18.222  0.00  0.00    +0.000 C 
ATOM     24  O   UNL     1       5.771   4.423  19.416  0.00  0.00    +0.000 OA
ATOM     25  H   UNL     1       6.110   4.430  16.244  0.00  0.00    +0.000 HD
ENDBRANCH  20  23
BRANCH  20  26
ATOM     26  C   UNL     1       3.424   2.927  17.730  0.00  0.00    +0.000 C 
ATOM     27  O   UNL     1       2.338   2.605  17.246  0.00  0.00    +0.000 OA
ATOM     28  N   UNL     1       4.181   2.017  18.437  0.00  0.00    +0.000 N 
ATOM     29  H   UNL     1       5.145   2.197  18.702  0.00  0.00    +0.000 HD
BRANCH  28  30
ATOM     30  O   UNL     1       3.755   0.671  18.390  0.00  0.00    +0.000 OA
ATOM     31  H   UNL     1       4.062   0.322  19.254  0.00  0.00    +0.000 HD
ENDBRANCH  28  30
ENDBRANCH  20  26
ENDBRANCH   1  20
TORSDOF 6
ENDMDL
MODEL 5
REMARK VINA RESULT:      -8.7      2.029      2.694
REMARK  Name = 
REMARK  8 active torsions:
REMARK  status: ('A' for Active; 'I' for Inactive)
REMARK    1  A    between atoms: C_1  and  N_2
REMARK    2  A    between atoms: C_3  and  C_5
REMARK    3  A    between atoms: C_5  and  C_6
REMARK    4  A    between atoms: C_5  and  N_10
REMARK    5  A    between atoms: N_8  and  O_9
REMARK    6  A    between atoms: N_10  and  C_11
REMARK    7  A    between atoms: C_12  and  C_14
REMARK    8  A    between atoms: C_17  and  C_18
REMARK                            x       y       z     vdW  Elec       q    Type
REMARK                         _______ _______ _______ _____ _____    ______ ____
ROOT
ATOM      1  N   UNL     1       4.110   6.239  17.692  0.00  0.00    +0.000 N 
ATOM      2  C   UNL     1       5.076   7.327  17.881  0.00  0.00    +0.000 C 
ATOM      3  C   UNL     1       2.783   6.241  18.126  0.00  0.00    +0.000 C 
ATOM      4  O   UNL     1       2.106   5.213  18.095  0.00  0.00    +0.000 OA
ENDROOT
BRANCH   3   5
ATOM      5  C   UNL     1       2.151   7.456  18.714  0.00  0.00    +0.000 A 
ATOM      6  C   UNL     1       1.933   7.614  20.082  0.00  0.00    +0.000 A 
ATOM      7  C   UNL     1       1.230   8.727  20.555  0.00  0.00    +0.000 A 
ATOM      8  C   UNL     1       0.775   9.730  19.687  0.00  0.00    +0.000 A 
ATOM      9  C   UNL     1       1.114   9.625  18.330  0.00  0.00    +0.000 A 
ATOM     10  C   UNL     1       1.790   8.496  17.847  0.00  0.00    +0.000 A 
BRANCH   8  11
ATOM     11  C   UNL     1      -0.154  10.771  20.163  0.00  0.00    +0.000 A 
ATOM     12  C   UNL     1      -0.934  11.557  19.282  0.00  0.00    +0.000 A 
ATOM     13  C   UNL     1      -1.947  12.406  19.761  0.00  0.00    +0.000 A 
ATOM     14  C   UNL     1      -2.177  12.439  21.123  0.00  0.00    +0.000 A 
ATOM     15  C   UNL     1      -1.370  11.724  21.993  0.00  0.00    +0.000 A 
ATOM     16  C   UNL     1      -0.357  10.911  21.548  0.00  0.00    +0.000 A 
ATOM     17  O   UNL     1      -1.725  11.849  23.309  0.00  0.00    +0.000 OA
ATOM     18  C   UNL     1      -3.082  12.335  23.211  0.00  0.00    +0.000 C 
ATOM     19  C   UNL     1      -3.212  13.141  21.914  0.00  0.00    +0.000 C 
ENDBRANCH   8  11
ENDBRANCH   3   5
BRANCH   1  20
ATOM     20  C   UNL     1       4.608   5.020  16.996  0.00  0.00    +0.000 C 
BRANCH  20  23
ATOM     21  C   UNL     1       7.016   4.498  14.075  0.00  0.00    +0.000 C 
ATOM     22  N   UNL     1       6.199   4.323  15.248  0.00  0.00    +0.000 N 
ATOM     23  C   UNL     1       5.392   5.346  15.713  0.00  0.00    +0.000 C 
ATOM     24  O   UNL     1       5.320   6.433  15.130  0.00  0.00    +0.000 OA
ATOM     25  H   UNL     1       6.241   3.441  15.741  0.00  0.00    +0.000 HD
ENDBRANCH  20  23
BRANCH  20  26
ATOM     26  C   UNL     1       5.402   4.151  17.974  0.00  0.00    +0.000 C 
ATOM     27  O   UNL     1       6.623   4.207  18.135  0.00  0.00    +0.000 OA
ATOM     28  N   UNL     1       4.651   3.177  18.596  0.00  0.00    +0.000 N 
ATOM     29  H   UNL     1       3.636   3.202  18.620  0.00  0.00    +0.000 HD
BRANCH  28  30
ATOM     30  O   UNL     1       5.311   2.402  19.576  0.00  0.00    +0.000 OA
ATOM     31  H   UNL     1       6.128   2.921  19.741  0.00  0.00    +0.000 HD
ENDBRANCH  28  30
ENDBRANCH  20  26
ENDBRANCH   1  20
TORSDOF 6
ENDMDL
MODEL 6
REMARK VINA RESULT:      -8.7      2.285      2.914
REMARK  Name = 
REMARK  8 active torsions:
REMARK  status: ('A' for Active; 'I' for Inactive)
REMARK    1  A    between atoms: C_1  and  N_2
REMARK    2  A    between atoms: C_3  and  C_5
REMARK    3  A    between atoms: C_5  and  C_6
REMARK    4  A    between atoms: C_5  and  N_10
REMARK    5  A    between atoms: N_8  and  O_9
REMARK    6  A    between atoms: N_10  and  C_11
REMARK    7  A    between atoms: C_12  and  C_14
REMARK    8  A    between atoms: C_17  and  C_18
REMARK                            x       y       z     vdW  Elec       q    Type
REMARK                         _______ _______ _______ _____ _____    ______ ____
ROOT
ATOM      1  N   UNL     1       3.045   4.737  17.980  0.00  0.00    +0.000 N 
ATOM      2  C   UNL     1       1.640   4.316  17.995  0.00  0.00    +0.000 C 
ATOM      3  C   UNL     1       3.515   6.023  18.255  0.00  0.00    +0.000 C 
ATOM      4  O   UNL     1       4.686   6.329  18.029  0.00  0.00    +0.000 OA
ENDROOT
BRANCH   3   5
ATOM      5  C   UNL     1       2.614   7.098  18.758  0.00  0.00    +0.000 A 
ATOM      6  C   UNL     1       2.174   8.155  17.963  0.00  0.00    +0.000 A 
ATOM      7  C   UNL     1       1.425   9.192  18.528  0.00  0.00    +0.000 A 
ATOM      8  C   UNL     1       1.054   9.175  19.880  0.00  0.00    +0.000 A 
ATOM      9  C   UNL     1       1.391   8.043  20.638  0.00  0.00    +0.000 A 
ATOM     10  C   UNL     1       2.169   7.017  20.084  0.00  0.00    +0.000 A 
BRANCH   8  11
ATOM     11  C   UNL     1       0.467  10.370  20.514  0.00  0.00    +0.000 A 
ATOM     12  C   UNL     1       0.452  11.637  19.885  0.00  0.00    +0.000 A 
ATOM     13  C   UNL     1      -0.278  12.712  20.423  0.00  0.00    +0.000 A 
ATOM     14  C   UNL     1      -1.002  12.492  21.578  0.00  0.00    +0.000 A 
ATOM     15  C   UNL     1      -0.934  11.274  22.233  0.00  0.00    +0.000 A 
ATOM     16  C   UNL     1      -0.205  10.220  21.742  0.00  0.00    +0.000 A 
ATOM     17  O   UNL     1      -1.712  11.204  23.358  0.00  0.00    +0.000 OA
ATOM     18  C   UNL     1      -2.634  12.298  23.156  0.00  0.00    +0.000 C 
ATOM     19  C   UNL     1      -1.930  13.374  22.323  0.00  0.00    +0.000 C 
ENDBRANCH   8  11
ENDBRANCH   3   5
BRANCH   1  20
ATOM     20  C   UNL     1       4.047   3.698  17.612  0.00  0.00    +0.000 C 
BRANCH  20  23
ATOM     21  C   UNL     1       7.323   4.636  15.884  0.00  0.00    +0.000 C 
ATOM     22  N   UNL     1       6.329   4.195  16.828  0.00  0.00    +0.000 N 
ATOM     23  C   UNL     1       4.990   4.154  16.485  0.00  0.00    +0.000 C 
ATOM     24  O   UNL     1       4.598   4.467  15.356  0.00  0.00    +0.000 OA
ATOM     25  H   UNL     1       6.627   3.934  17.759  0.00  0.00    +0.000 HD
ENDBRANCH  20  23
BRANCH  20  26
ATOM     26  C   UNL     1       4.796   3.233  18.863  0.00  0.00    +0.000 C 
ATOM     27  O   UNL     1       5.593   3.920  19.504  0.00  0.00    +0.000 OA
ATOM     28  N   UNL     1       4.609   1.900  19.165  0.00  0.00    +0.000 N 
ATOM     29  H   UNL     1       3.849   1.352  18.773  0.00  0.00    +0.000 HD
BRANCH  28  30
ATOM     30  O   UNL     1       5.204   1.436  20.359  0.00  0.00    +0.000 OA
ATOM     31  H   UNL     1       5.879   0.804  20.028  0.00  0.00    +0.000 HD
ENDBRANCH  28  30
ENDBRANCH  20  26
ENDBRANCH   1  20
TORSDOF 6
ENDMDL
MODEL 7
REMARK VINA RESULT:      -8.6      2.368      3.707
REMARK  Name = 
REMARK  8 active torsions:
REMARK  status: ('A' for Active; 'I' for Inactive)
REMARK    1  A    between atoms: C_1  and  N_2
REMARK    2  A    between atoms: C_3  and  C_5
REMARK    3  A    between atoms: C_5  and  C_6
REMARK    4  A    between atoms: C_5  and  N_10
REMARK    5  A    between atoms: N_8  and  O_9
REMARK    6  A    between atoms: N_10  and  C_11
REMARK    7  A    between atoms: C_12  and  C_14
REMARK    8  A    between atoms: C_17  and  C_18
REMARK                            x       y       z     vdW  Elec       q    Type
REMARK                         _______ _______ _______ _____ _____    ______ ____
ROOT
ATOM      1  N   UNL     1       3.092   5.280  18.275  0.00  0.00    +0.000 N 
ATOM      2  C   UNL     1       2.082   4.774  19.211  0.00  0.00    +0.000 C 
ATOM      3  C   UNL     1       3.262   6.615  17.899  0.00  0.00    +0.000 C 
ATOM      4  O   UNL     1       4.003   6.919  16.965  0.00  0.00    +0.000 OA
ENDROOT
BRANCH   3   5
ATOM      5  C   UNL     1       2.501   7.717  18.553  0.00  0.00    +0.000 A 
ATOM      6  C   UNL     1       2.108   7.681  19.890  0.00  0.00    +0.000 A 
ATOM      7  C   UNL     1       1.297   8.695  20.409  0.00  0.00    +0.000 A 
ATOM      8  C   UNL     1       0.903   9.791  19.627  0.00  0.00    +0.000 A 
ATOM      9  C   UNL     1       1.413   9.882  18.323  0.00  0.00    +0.000 A 
ATOM     10  C   UNL     1       2.200   8.852  17.789  0.00  0.00    +0.000 A 
BRANCH   8  11
ATOM     11  C   UNL     1      -0.129  10.727  20.109  0.00  0.00    +0.000 A 
ATOM     12  C   UNL     1      -1.112  11.283  19.258  0.00  0.00    +0.000 A 
ATOM     13  C   UNL     1      -2.194  12.018  19.772  0.00  0.00    +0.000 A 
ATOM     14  C   UNL     1      -2.286  12.167  21.142  0.00  0.00    +0.000 A 
ATOM     15  C   UNL     1      -1.289  11.684  21.973  0.00  0.00    +0.000 A 
ATOM     16  C   UNL     1      -0.209  10.988  21.490  0.00  0.00    +0.000 A 
ATOM     17  O   UNL     1      -1.524  11.900  23.305  0.00  0.00    +0.000 OA
ATOM     18  C   UNL     1      -2.944  12.162  23.323  0.00  0.00    +0.000 C 
ATOM     19  C   UNL     1      -3.335  12.790  21.981  0.00  0.00    +0.000 C 
ENDBRANCH   8  11
ENDBRANCH   3   5
BRANCH   1  20
ATOM     20  C   UNL     1       3.994   4.268  17.657  0.00  0.00    +0.000 C 
BRANCH  20  23
ATOM     21  C   UNL     1       7.800   4.588  17.740  0.00  0.00    +0.000 C 
ATOM     22  N   UNL     1       6.418   4.562  17.335  0.00  0.00    +0.000 N 
ATOM     23  C   UNL     1       5.414   4.298  18.248  0.00  0.00    +0.000 C 
ATOM     24  O   UNL     1       5.657   4.101  19.444  0.00  0.00    +0.000 OA
ATOM     25  H   UNL     1       6.195   4.722  16.362  0.00  0.00    +0.000 HD
ENDBRANCH  20  23
BRANCH  20  26
ATOM     26  C   UNL     1       3.348   2.882  17.731  0.00  0.00    +0.000 C 
ATOM     27  O   UNL     1       2.246   2.593  17.262  0.00  0.00    +0.000 OA
ATOM     28  N   UNL     1       4.050   1.976  18.496  0.00  0.00    +0.000 N 
ATOM     29  H   UNL     1       5.022   2.117  18.756  0.00  0.00    +0.000 HD
BRANCH  28  30
ATOM     30  O   UNL     1       3.549   0.656  18.527  0.00  0.00    +0.000 OA
ATOM     31  H   UNL     1       4.062   0.217  17.814  0.00  0.00    +0.000 HD
ENDBRANCH  28  30
ENDBRANCH  20  26
ENDBRANCH   1  20
TORSDOF 6
ENDMDL
MODEL 8
REMARK VINA RESULT:      -8.6      2.212      2.958
REMARK  Name = 
REMARK  8 active torsions:
REMARK  status: ('A' for Active; 'I' for Inactive)
REMARK    1  A    between atoms: C_1  and  N_2
REMARK    2  A    between atoms: C_3  and  C_5
REMARK    3  A    between atoms: C_5  and  C_6
REMARK    4  A    between atoms: C_5  and  N_10
REMARK    5  A    between atoms: N_8  and  O_9
REMARK    6  A    between atoms: N_10  and  C_11
REMARK    7  A    between atoms: C_12  and  C_14
REMARK    8  A    between atoms: C_17  and  C_18
REMARK                            x       y       z     vdW  Elec       q    Type
REMARK                         _______ _______ _______ _____ _____    ______ ____
ROOT
ATOM      1  N   UNL     1       3.118   4.876  18.052  0.00  0.00    +0.000 N 
ATOM      2  C   UNL     1       1.701   4.510  18.151  0.00  0.00    +0.000 C 
ATOM      3  C   UNL     1       3.637   6.169  18.153  0.00  0.00    +0.000 C 
ATOM      4  O   UNL     1       4.810   6.403  17.864  0.00  0.00    +0.000 OA
ENDROOT
BRANCH   3   5
ATOM      5  C   UNL     1       2.784   7.329  18.537  0.00  0.00    +0.000 A 
ATOM      6  C   UNL     1       2.192   7.456  19.792  0.00  0.00    +0.000 A 
ATOM      7  C   UNL     1       1.309   8.510  20.048  0.00  0.00    +0.000 A 
ATOM      8  C   UNL     1       1.037   9.488  19.080  0.00  0.00    +0.000 A 
ATOM      9  C   UNL     1       1.740   9.423  17.867  0.00  0.00    +0.000 A 
ATOM     10  C   UNL     1       2.600   8.351  17.596  0.00  0.00    +0.000 A 
BRANCH   8  11
ATOM     11  C   UNL     1      -0.057  10.456  19.276  0.00  0.00    +0.000 A 
ATOM     12  C   UNL     1      -1.078  10.658  18.318  0.00  0.00    +0.000 A 
ATOM     13  C   UNL     1      -2.209  11.441  18.607  0.00  0.00    +0.000 A 
ATOM     14  C   UNL     1      -2.310  11.996  19.868  0.00  0.00    +0.000 A 
ATOM     15  C   UNL     1      -1.281  11.858  20.784  0.00  0.00    +0.000 A 
ATOM     16  C   UNL     1      -0.154  11.122  20.513  0.00  0.00    +0.000 A 
ATOM     17  O   UNL     1      -1.528  12.455  21.991  0.00  0.00    +0.000 OA
ATOM     18  C   UNL     1      -2.964  12.615  21.961  0.00  0.00    +0.000 C 
ATOM     19  C   UNL     1      -3.400  12.774  20.500  0.00  0.00    +0.000 C 
ENDBRANCH   8  11
ENDBRANCH   3   5
BRANCH   1  20
ATOM     20  C   UNL     1       4.076   3.764  17.795  0.00  0.00    +0.000 C 
BRANCH  20  23
ATOM     21  C   UNL     1       7.374   4.476  16.001  0.00  0.00    +0.000 C 
ATOM     22  N   UNL     1       6.367   4.166  16.983  0.00  0.00    +0.000 N 
ATOM     23  C   UNL     1       5.034   4.064  16.629  0.00  0.00    +0.000 C 
ATOM     24  O   UNL     1       4.659   4.208  15.460  0.00  0.00    +0.000 OA
ATOM     25  H   UNL     1       6.652   4.043  17.946  0.00  0.00    +0.000 HD
ENDBRANCH  20  23
BRANCH  20  26
ATOM     26  C   UNL     1       4.808   3.400  19.088  0.00  0.00    +0.000 C 
ATOM     27  O   UNL     1       5.592   4.138  19.686  0.00  0.00    +0.000 OA
ATOM     28  N   UNL     1       4.622   2.094  19.488  0.00  0.00    +0.000 N 
ATOM     29  H   UNL     1       3.869   1.513  19.129  0.00  0.00    +0.000 HD
BRANCH  28  30
ATOM     30  O   UNL     1       5.200   1.724  20.723  0.00  0.00    +0.000 OA
ATOM     31  H   UNL     1       5.804   2.477  20.908  0.00  0.00    +0.000 HD
ENDBRANCH  28  30
ENDBRANCH  20  26
ENDBRANCH   1  20
TORSDOF 6
ENDMDL
MODEL 9
REMARK VINA RESULT:      -8.6      3.944      9.875
REMARK  Name = 
REMARK  8 active torsions:
REMARK  status: ('A' for Active; 'I' for Inactive)
REMARK    1  A    between atoms: C_1  and  N_2
REMARK    2  A    between atoms: C_3  and  C_5
REMARK    3  A    between atoms: C_5  and  C_6
REMARK    4  A    between atoms: C_5  and  N_10
REMARK    5  A    between atoms: N_8  and  O_9
REMARK    6  A    between atoms: N_10  and  C_11
REMARK    7  A    between atoms: C_12  and  C_14
REMARK    8  A    between atoms: C_17  and  C_18
REMARK                            x       y       z     vdW  Elec       q    Type
REMARK                         _______ _______ _______ _____ _____    ______ ____
ROOT
ATOM      1  N   UNL     1      -0.581  11.450  19.840  0.00  0.00    +0.000 N 
ATOM      2  C   UNL     1      -1.488  10.840  18.861  0.00  0.00    +0.000 C 
ATOM      3  C   UNL     1       0.624  10.904  20.287  0.00  0.00    +0.000 C 
ATOM      4  O   UNL     1       1.220  11.390  21.249  0.00  0.00    +0.000 OA
ENDROOT
BRANCH   3   5
ATOM      5  C   UNL     1       1.203   9.673  19.679  0.00  0.00    +0.000 A 
ATOM      6  C   UNL     1       1.387   8.487  20.389  0.00  0.00    +0.000 A 
ATOM      7  C   UNL     1       2.042   7.407  19.790  0.00  0.00    +0.000 A 
ATOM      8  C   UNL     1       2.482   7.462  18.460  0.00  0.00    +0.000 A 
ATOM      9  C   UNL     1       2.174   8.612  17.716  0.00  0.00    +0.000 A 
ATOM     10  C   UNL     1       1.547   9.709  18.321  0.00  0.00    +0.000 A 
BRANCH   8  11
ATOM     11  C   UNL     1       3.365   6.415  17.915  0.00  0.00    +0.000 A 
ATOM     12  C   UNL     1       3.000   5.049  17.886  0.00  0.00    +0.000 A 
ATOM     13  C   UNL     1       3.771   4.099  17.193  0.00  0.00    +0.000 A 
ATOM     14  C   UNL     1       4.892   4.541  16.518  0.00  0.00    +0.000 A 
ATOM     15  C   UNL     1       5.291   5.865  16.602  0.00  0.00    +0.000 A 
ATOM     16  C   UNL     1       4.568   6.803  17.297  0.00  0.00    +0.000 A 
ATOM     17  O   UNL     1       6.414   6.154  15.875  0.00  0.00    +0.000 OA
ATOM     18  C   UNL     1       6.474   5.040  14.957  0.00  0.00    +0.000 C 
ATOM     19  C   UNL     1       5.838   3.822  15.635  0.00  0.00    +0.000 C 
ENDBRANCH   8  11
ENDBRANCH   3   5
BRANCH   1  20
ATOM     20  C   UNL     1      -1.007  12.755  20.419  0.00  0.00    +0.000 C 
BRANCH  20  23
ATOM     21  C   UNL     1      -1.054  16.350  19.127  0.00  0.00    +0.000 C 
ATOM     22  N   UNL     1      -1.218  15.157  19.917  0.00  0.00    +0.000 N 
ATOM     23  C   UNL     1      -0.721  13.942  19.484  0.00  0.00    +0.000 C 
ATOM     24  O   UNL     1      -0.099  13.835  18.421  0.00  0.00    +0.000 OA
ATOM     25  H   UNL     1      -1.723  15.221  20.791  0.00  0.00    +0.000 HD
ENDBRANCH  20  23
BRANCH  20  26
ATOM     26  C   UNL     1      -2.473  12.677  20.852  0.00  0.00    +0.000 C 
ATOM     27  O   UNL     1      -3.435  12.951  20.132  0.00  0.00    +0.000 OA
ATOM     28  N   UNL     1      -2.648  12.392  22.189  0.00  0.00    +0.000 N 
ATOM     29  H   UNL     1      -1.909  12.003  22.767  0.00  0.00    +0.000 HD
BRANCH  28  30
ATOM     30  O   UNL     1      -3.981  12.220  22.627  0.00  0.00    +0.000 OA
ATOM     31  H   UNL     1      -3.913  12.405  23.589  0.00  0.00    +0.000 HD
ENDBRANCH  28  30
ENDBRANCH  20  26
ENDBRANCH   1  20
TORSDOF 6
ENDMDL
