MODEL 1
REMARK VINA RESULT:      -6.1      0.000      0.000
REMARK  Name = 
REMARK  4 active torsions:
REMARK  status: ('A' for Active; 'I' for Inactive)
REMARK    1  A    between atoms: C_1  and  O_2
REMARK    2  A    between atoms: O_2  and  C_3
REMARK    3  A    between atoms: C_3  and  C_4
REMARK    4  A    between atoms: C_7  and  C_8
REMARK                            x       y       z     vdW  Elec       q    Type
REMARK                         _______ _______ _______ _____ _____    ______ ____
ROOT
ATOM      1  C   UNL     1       4.061   5.794  18.944  0.00  0.00    +0.000 C 
ATOM      2  O   UNL     1       4.342   5.262  20.024  0.00  0.00    +0.000 OA
ATOM      3  N   UNL     1       2.881   6.536  18.811  0.00  0.00    +0.000 N 
ATOM      4  C   UNL     1       2.471   7.330  17.649  0.00  0.00    +0.000 C 
ATOM      5  C   UNL     1       2.188   8.797  18.009  0.00  0.00    +0.000 C 
ATOM      6  N   UNL     1       1.265   8.945  19.147  0.00  0.00    +0.000 NA
ATOM      7  C   UNL     1       1.103  10.371  19.460  0.00  0.00    +0.000 C 
ATOM      8  C   UNL     1       0.139  10.578  20.625  0.00  0.00    +0.000 C 
ATOM      9  C   UNL     1       0.585   9.791  21.850  0.00  0.00    +0.000 C 
ATOM     10  C   UNL     1       0.798   8.321  21.494  0.00  0.00    +0.000 C 
ATOM     11  C   UNL     1       1.773   8.179  20.316  0.00  0.00    +0.000 C 
ATOM     12  C   UNL     1       1.980   6.682  19.960  0.00  0.00    +0.000 C 
ENDROOT
BRANCH   1  16
ATOM     13  C   UNL     1       6.134   4.808  15.800  0.00  0.00    +0.000 A 
ATOM     14  C   UNL     1       6.745   5.932  16.319  0.00  0.00    +0.000 A 
ATOM     15  C   UNL     1       6.012   6.491  17.402  0.00  0.00    +0.000 A 
ATOM     16  C   UNL     1       4.955   5.691  17.793  0.00  0.00    +0.000 A 
ATOM     17  S   UNL     1       4.714   4.413  16.671  0.00  0.00    +0.000 S 
BRANCH  13  18
ATOM     18  C   UNL     1       6.557   3.997  14.620  0.00  0.00    +0.000 C 
BRANCH  18  20
ATOM     19  C   UNL     1       5.839   3.407  12.462  0.00  0.00    +0.000 C 
ATOM     20  O   UNL     1       5.470   4.008  13.696  0.00  0.00    +0.000 OA
ENDBRANCH  18  20
ENDBRANCH  13  18
ENDBRANCH   1  16
TORSDOF 3
ENDMDL
MODEL 2
REMARK VINA RESULT:      -5.9      3.567      5.739
REMARK  Name = 
REMARK  4 active torsions:
REMARK  status: ('A' for Active; 'I' for Inactive)
REMARK    1  A    between atoms: C_1  and  O_2
REMARK    2  A    between atoms: O_2  and  C_3
REMARK    3  A    between atoms: C_3  and  C_4
REMARK    4  A    between atoms: C_7  and  C_8
REMARK                            x       y       z     vdW  Elec       q    Type
REMARK                         _______ _______ _______ _____ _____    ______ ____
ROOT
ATOM      1  C   UNL     1       6.169   5.159  17.375  0.00  0.00    +0.000 C 
ATOM      2  O   UNL     1       6.690   4.181  16.827  0.00  0.00    +0.000 OA
ATOM      3  N   UNL     1       4.781   5.213  17.547  0.00  0.00    +0.000 N 
ATOM      4  C   UNL     1       4.028   6.230  18.287  0.00  0.00    +0.000 C 
ATOM      5  C   UNL     1       3.151   5.625  19.394  0.00  0.00    +0.000 C 
ATOM      6  N   UNL     1       2.295   4.525  18.917  0.00  0.00    +0.000 NA
ATOM      7  C   UNL     1       1.544   3.967  20.049  0.00  0.00    +0.000 C 
ATOM      8  C   UNL     1       0.626   2.833  19.601  0.00  0.00    +0.000 C 
ATOM      9  C   UNL     1       1.410   1.750  18.872  0.00  0.00    +0.000 C 
ATOM     10  C   UNL     1       2.225   2.356  17.731  0.00  0.00    +0.000 C 
ATOM     11  C   UNL     1       3.124   3.491  18.243  0.00  0.00    +0.000 C 
ATOM     12  C   UNL     1       3.946   4.102  17.076  0.00  0.00    +0.000 C 
ENDROOT
BRANCH   1  16
ATOM     13  C   UNL     1       8.118   8.458  18.064  0.00  0.00    +0.000 A 
ATOM     14  C   UNL     1       8.600   7.537  18.971  0.00  0.00    +0.000 A 
ATOM     15  C   UNL     1       7.880   6.311  18.930  0.00  0.00    +0.000 A 
ATOM     16  C   UNL     1       6.980   6.264  17.882  0.00  0.00    +0.000 A 
ATOM     17  S   UNL     1       6.838   7.803  17.134  0.00  0.00    +0.000 S 
BRANCH  13  18
ATOM     18  C   UNL     1       8.562   9.870  17.867  0.00  0.00    +0.000 C 
BRANCH  18  20
ATOM     19  C   UNL     1      10.177  11.320  18.765  0.00  0.00    +0.000 C 
ATOM     20  O   UNL     1       9.289  10.245  19.036  0.00  0.00    +0.000 OA
ENDBRANCH  18  20
ENDBRANCH  13  18
ENDBRANCH   1  16
TORSDOF 3
ENDMDL
MODEL 3
REMARK VINA RESULT:      -5.9      3.182      4.244
REMARK  Name = 
REMARK  4 active torsions:
REMARK  status: ('A' for Active; 'I' for Inactive)
REMARK    1  A    between atoms: C_1  and  O_2
REMARK    2  A    between atoms: O_2  and  C_3
REMARK    3  A    between atoms: C_3  and  C_4
REMARK    4  A    between atoms: C_7  and  C_8
REMARK                            x       y       z     vdW  Elec       q    Type
REMARK                         _______ _______ _______ _____ _____    ______ ____
ROOT
ATOM      1  C   UNL     1       5.097   5.970  16.816  0.00  0.00    +0.000 C 
ATOM      2  O   UNL     1       4.635   7.116  16.841  0.00  0.00    +0.000 OA
ATOM      3  N   UNL     1       4.882   5.101  17.892  0.00  0.00    +0.000 N 
ATOM      4  C   UNL     1       5.246   3.682  17.960  0.00  0.00    +0.000 C 
ATOM      5  C   UNL     1       4.041   2.780  18.269  0.00  0.00    +0.000 C 
ATOM      6  N   UNL     1       3.274   3.222  19.446  0.00  0.00    +0.000 NA
ATOM      7  C   UNL     1       2.111   2.344  19.627  0.00  0.00    +0.000 C 
ATOM      8  C   UNL     1       1.292   2.752  20.848  0.00  0.00    +0.000 C 
ATOM      9  C   UNL     1       0.872   4.213  20.762  0.00  0.00    +0.000 C 
ATOM     10  C   UNL     1       2.087   5.106  20.522  0.00  0.00    +0.000 C 
ATOM     11  C   UNL     1       2.871   4.644  19.284  0.00  0.00    +0.000 C 
ATOM     12  C   UNL     1       4.105   5.556  19.051  0.00  0.00    +0.000 C 
ENDROOT
BRANCH   1  16
ATOM     13  C   UNL     1       6.449   4.259  13.591  0.00  0.00    +0.000 A 
ATOM     14  C   UNL     1       7.550   4.801  14.222  0.00  0.00    +0.000 A 
ATOM     15  C   UNL     1       7.192   5.582  15.356  0.00  0.00    +0.000 A 
ATOM     16  C   UNL     1       5.847   5.480  15.662  0.00  0.00    +0.000 A 
ATOM     17  S   UNL     1       5.002   4.655  14.415  0.00  0.00    +0.000 S 
BRANCH  13  18
ATOM     18  C   UNL     1       6.418   3.452  12.335  0.00  0.00    +0.000 C 
BRANCH  18  20
ATOM     19  C   UNL     1       4.369   3.124  11.233  0.00  0.00    +0.000 C 
ATOM     20  O   UNL     1       5.183   2.736  12.332  0.00  0.00    +0.000 OA
ENDBRANCH  18  20
ENDBRANCH  13  18
ENDBRANCH   1  16
TORSDOF 3
ENDMDL
MODEL 4
REMARK VINA RESULT:      -5.7      3.658      5.538
REMARK  Name = 
REMARK  4 active torsions:
REMARK  status: ('A' for Active; 'I' for Inactive)
REMARK    1  A    between atoms: C_1  and  O_2
REMARK    2  A    between atoms: O_2  and  C_3
REMARK    3  A    between atoms: C_3  and  C_4
REMARK    4  A    between atoms: C_7  and  C_8
REMARK                            x       y       z     vdW  Elec       q    Type
REMARK                         _______ _______ _______ _____ _____    ______ ____
ROOT
ATOM      1  C   UNL     1       6.646   5.235  18.172  0.00  0.00    +0.000 C 
ATOM      2  O   UNL     1       7.358   4.248  18.391  0.00  0.00    +0.000 OA
ATOM      3  N   UNL     1       5.255   5.099  18.104  0.00  0.00    +0.000 N 
ATOM      4  C   UNL     1       4.273   6.181  17.984  0.00  0.00    +0.000 C 
ATOM      5  C   UNL     1       3.231   6.158  19.113  0.00  0.00    +0.000 C 
ATOM      6  N   UNL     1       2.599   4.840  19.290  0.00  0.00    +0.000 NA
ATOM      7  C   UNL     1       1.670   4.894  20.426  0.00  0.00    +0.000 C 
ATOM      8  C   UNL     1       0.974   3.553  20.639  0.00  0.00    +0.000 C 
ATOM      9  C   UNL     1       1.990   2.431  20.810  0.00  0.00    +0.000 C 
ATOM     10  C   UNL     1       2.979   2.422  19.646  0.00  0.00    +0.000 C 
ATOM     11  C   UNL     1       3.642   3.798  19.481  0.00  0.00    +0.000 C 
ATOM     12  C   UNL     1       4.643   3.779  18.294  0.00  0.00    +0.000 C 
ENDROOT
BRANCH   1  16
ATOM     13  C   UNL     1       8.420   8.687  18.478  0.00  0.00    +0.000 A 
ATOM     14  C   UNL     1       7.657   8.755  17.331  0.00  0.00    +0.000 A 
ATOM     15  C   UNL     1       7.051   7.508  17.013  0.00  0.00    +0.000 A 
ATOM     16  C   UNL     1       7.227   6.567  18.010  0.00  0.00    +0.000 A 
ATOM     17  S   UNL     1       8.344   7.131  19.186  0.00  0.00    +0.000 S 
BRANCH  13  18
ATOM     18  C   UNL     1       9.263   9.762  19.083  0.00  0.00    +0.000 C 
BRANCH  18  20
ATOM     19  C   UNL     1      10.378  11.433  17.867  0.00  0.00    +0.000 C 
ATOM     20  O   UNL     1       9.114  10.919  18.262  0.00  0.00    +0.000 OA
ENDBRANCH  18  20
ENDBRANCH  13  18
ENDBRANCH   1  16
TORSDOF 3
ENDMDL
MODEL 5
REMARK VINA RESULT:      -5.7      1.453      1.735
REMARK  Name = 
REMARK  4 active torsions:
REMARK  status: ('A' for Active; 'I' for Inactive)
REMARK    1  A    between atoms: C_1  and  O_2
REMARK    2  A    between atoms: O_2  and  C_3
REMARK    3  A    between atoms: C_3  and  C_4
REMARK    4  A    between atoms: C_7  and  C_8
REMARK                            x       y       z     vdW  Elec       q    Type
REMARK                         _______ _______ _______ _____ _____    ______ ____
ROOT
ATOM      1  C   UNL     1       3.126   5.147  19.722  0.00  0.00    +0.000 C 
ATOM      2  O   UNL     1       3.167   4.686  20.868  0.00  0.00    +0.000 OA
ATOM      3  N   UNL     1       2.204   6.150  19.399  0.00  0.00    +0.000 N 
ATOM      4  C   UNL     1       2.116   6.887  18.134  0.00  0.00    +0.000 C 
ATOM      5  C   UNL     1       2.209   8.408  18.333  0.00  0.00    +0.000 C 
ATOM      6  N   UNL     1       1.271   8.916  19.348  0.00  0.00    +0.000 NA
ATOM      7  C   UNL     1       1.473  10.362  19.516  0.00  0.00    +0.000 C 
ATOM      8  C   UNL     1       0.509  10.940  20.548  0.00  0.00    +0.000 C 
ATOM      9  C   UNL     1       0.628  10.208  21.878  0.00  0.00    +0.000 C 
ATOM     10  C   UNL     1       0.467   8.703  21.677  0.00  0.00    +0.000 C 
ATOM     11  C   UNL     1       1.459   8.182  20.627  0.00  0.00    +0.000 C 
ATOM     12  C   UNL     1       1.286   6.652  20.428  0.00  0.00    +0.000 C 
ENDROOT
BRANCH   1  16
ATOM     13  C   UNL     1       6.040   4.500  17.222  0.00  0.00    +0.000 A 
ATOM     14  C   UNL     1       4.964   3.782  16.743  0.00  0.00    +0.000 A 
ATOM     15  C   UNL     1       3.855   3.813  17.634  0.00  0.00    +0.000 A 
ATOM     16  C   UNL     1       4.050   4.688  18.687  0.00  0.00    +0.000 A 
ATOM     17  S   UNL     1       5.672   5.250  18.716  0.00  0.00    +0.000 S 
BRANCH  13  18
ATOM     18  C   UNL     1       7.396   4.637  16.612  0.00  0.00    +0.000 C 
BRANCH  18  20
ATOM     19  C   UNL     1       7.143   4.962  14.299  0.00  0.00    +0.000 C 
ATOM     20  O   UNL     1       7.285   5.597  15.563  0.00  0.00    +0.000 OA
ENDBRANCH  18  20
ENDBRANCH  13  18
ENDBRANCH   1  16
TORSDOF 3
ENDMDL
MODEL 6
REMARK VINA RESULT:      -5.6      3.263      8.133
REMARK  Name = 
REMARK  4 active torsions:
REMARK  status: ('A' for Active; 'I' for Inactive)
REMARK    1  A    between atoms: C_1  and  O_2
REMARK    2  A    between atoms: O_2  and  C_3
REMARK    3  A    between atoms: C_3  and  C_4
REMARK    4  A    between atoms: C_7  and  C_8
REMARK                            x       y       z     vdW  Elec       q    Type
REMARK                         _______ _______ _______ _____ _____    ______ ____
ROOT
ATOM      1  C   UNL     1       1.903   8.795  18.873  0.00  0.00    +0.000 C 
ATOM      2  O   UNL     1       2.093   9.725  18.081  0.00  0.00    +0.000 OA
ATOM      3  N   UNL     1       2.363   7.508  18.571  0.00  0.00    +0.000 N 
ATOM      4  C   UNL     1       2.334   6.337  19.453  0.00  0.00    +0.000 C 
ATOM      5  C   UNL     1       3.726   5.719  19.656  0.00  0.00    +0.000 C 
ATOM      6  N   UNL     1       4.431   5.455  18.390  0.00  0.00    +0.000 NA
ATOM      7  C   UNL     1       5.771   4.927  18.681  0.00  0.00    +0.000 C 
ATOM      8  C   UNL     1       6.537   4.620  17.397  0.00  0.00    +0.000 C 
ATOM      9  C   UNL     1       6.610   5.846  16.497  0.00  0.00    +0.000 C 
ATOM     10  C   UNL     1       5.213   6.411  16.248  0.00  0.00    +0.000 C 
ATOM     11  C   UNL     1       4.493   6.696  17.575  0.00  0.00    +0.000 C 
ATOM     12  C   UNL     1       3.074   7.267  17.310  0.00  0.00    +0.000 C 
ENDROOT
BRANCH   1  16
ATOM     13  C   UNL     1      -0.169  10.024  21.932  0.00  0.00    +0.000 A 
ATOM     14  C   UNL     1       0.661   9.032  22.411  0.00  0.00    +0.000 A 
ATOM     15  C   UNL     1       1.388   8.388  21.372  0.00  0.00    +0.000 A 
ATOM     16  C   UNL     1       1.225   9.014  20.149  0.00  0.00    +0.000 A 
ATOM     17  S   UNL     1      -0.011  10.202  20.237  0.00  0.00    +0.000 S 
BRANCH  13  18
ATOM     18  C   UNL     1      -1.137  10.861  22.702  0.00  0.00    +0.000 C 
BRANCH  18  20
ATOM     19  C   UNL     1      -1.281  13.201  22.850  0.00  0.00    +0.000 C 
ATOM     20  O   UNL     1      -0.455  12.064  23.057  0.00  0.00    +0.000 OA
ENDBRANCH  18  20
ENDBRANCH  13  18
ENDBRANCH   1  16
TORSDOF 3
ENDMDL
MODEL 7
REMARK VINA RESULT:      -5.5      3.111      4.243
REMARK  Name = 
REMARK  4 active torsions:
REMARK  status: ('A' for Active; 'I' for Inactive)
REMARK    1  A    between atoms: C_1  and  O_2
REMARK    2  A    between atoms: O_2  and  C_3
REMARK    3  A    between atoms: C_3  and  C_4
REMARK    4  A    between atoms: C_7  and  C_8
REMARK                            x       y       z     vdW  Elec       q    Type
REMARK                         _______ _______ _______ _____ _____    ______ ____
ROOT
ATOM      1  C   UNL     1       5.729   5.665  16.193  0.00  0.00    +0.000 C 
ATOM      2  O   UNL     1       5.871   6.876  16.397  0.00  0.00    +0.000 OA
ATOM      3  N   UNL     1       5.208   4.839  17.196  0.00  0.00    +0.000 N 
ATOM      4  C   UNL     1       4.858   3.421  17.071  0.00  0.00    +0.000 C 
ATOM      5  C   UNL     1       3.396   3.139  17.451  0.00  0.00    +0.000 C 
ATOM      6  N   UNL     1       3.022   3.699  18.761  0.00  0.00    +0.000 NA
ATOM      7  C   UNL     1       1.598   3.439  19.012  0.00  0.00    +0.000 C 
ATOM      8  C   UNL     1       1.165   3.985  20.370  0.00  0.00    +0.000 C 
ATOM      9  C   UNL     1       1.485   5.470  20.489  0.00  0.00    +0.000 C 
ATOM     10  C   UNL     1       2.957   5.728  20.174  0.00  0.00    +0.000 C 
ATOM     11  C   UNL     1       3.331   5.153  18.800  0.00  0.00    +0.000 C 
ATOM     12  C   UNL     1       4.830   5.417  18.491  0.00  0.00    +0.000 C 
ENDROOT
BRANCH   1  16
ATOM     13  C   UNL     1       5.954   3.704  12.838  0.00  0.00    +0.000 A 
ATOM     14  C   UNL     1       7.217   4.207  13.067  0.00  0.00    +0.000 A 
ATOM     15  C   UNL     1       7.258   5.068  14.198  0.00  0.00    +0.000 A 
ATOM     16  C   UNL     1       6.068   5.068  14.903  0.00  0.00    +0.000 A 
ATOM     17  S   UNL     1       4.847   4.233  14.031  0.00  0.00    +0.000 S 
BRANCH  13  18
ATOM     18  C   UNL     1       5.504   2.834  11.710  0.00  0.00    +0.000 C 
BRANCH  18  20
ATOM     19  C   UNL     1       3.702   3.626  10.427  0.00  0.00    +0.000 C 
ATOM     20  O   UNL     1       4.085   2.964  11.625  0.00  0.00    +0.000 OA
ENDBRANCH  18  20
ENDBRANCH  13  18
ENDBRANCH   1  16
TORSDOF 3
ENDMDL
MODEL 8
REMARK VINA RESULT:      -5.4      3.147      4.511
REMARK  Name = 
REMARK  4 active torsions:
REMARK  status: ('A' for Active; 'I' for Inactive)
REMARK    1  A    between atoms: C_1  and  O_2
REMARK    2  A    between atoms: O_2  and  C_3
REMARK    3  A    between atoms: C_3  and  C_4
REMARK    4  A    between atoms: C_7  and  C_8
REMARK                            x       y       z     vdW  Elec       q    Type
REMARK                         _______ _______ _______ _____ _____    ______ ____
ROOT
ATOM      1  C   UNL     1       1.693   8.221  19.428  0.00  0.00    +0.000 C 
ATOM      2  O   UNL     1       1.431   8.534  18.262  0.00  0.00    +0.000 OA
ATOM      3  N   UNL     1       1.518   9.149  20.462  0.00  0.00    +0.000 N 
ATOM      4  C   UNL     1       1.657   8.897  21.899  0.00  0.00    +0.000 C 
ATOM      5  C   UNL     1       0.389   9.265  22.686  0.00  0.00    +0.000 C 
ATOM      6  N   UNL     1      -0.097  10.625  22.396  0.00  0.00    +0.000 NA
ATOM      7  C   UNL     1      -1.342  10.865  23.138  0.00  0.00    +0.000 C 
ATOM      8  C   UNL     1      -1.877  12.272  22.884  0.00  0.00    +0.000 C 
ATOM      9  C   UNL     1      -2.065  12.524  21.394  0.00  0.00    +0.000 C 
ATOM     10  C   UNL     1      -0.778  12.219  20.632  0.00  0.00    +0.000 C 
ATOM     11  C   UNL     1      -0.289  10.794  20.931  0.00  0.00    +0.000 C 
ATOM     12  C   UNL     1       1.022  10.496  20.154  0.00  0.00    +0.000 C 
ENDROOT
BRANCH   1  16
ATOM     13  C   UNL     1       3.379   4.722  19.695  0.00  0.00    +0.000 A 
ATOM     14  C   UNL     1       2.300   4.688  20.554  0.00  0.00    +0.000 A 
ATOM     15  C   UNL     1       1.660   5.954  20.666  0.00  0.00    +0.000 A 
ATOM     16  C   UNL     1       2.159   6.878  19.767  0.00  0.00    +0.000 A 
ATOM     17  S   UNL     1       3.566   6.272  18.992  0.00  0.00    +0.000 S 
BRANCH  13  18
ATOM     18  C   UNL     1       4.336   3.620  19.381  0.00  0.00    +0.000 C 
BRANCH  18  20
ATOM     19  C   UNL     1       3.360   1.800  18.263  0.00  0.00    +0.000 C 
ATOM     20  O   UNL     1       3.953   3.083  18.116  0.00  0.00    +0.000 OA
ENDBRANCH  18  20
ENDBRANCH  13  18
ENDBRANCH   1  16
TORSDOF 3
ENDMDL
MODEL 9
REMARK VINA RESULT:      -5.3      2.646      4.533
REMARK  Name = 
REMARK  4 active torsions:
REMARK  status: ('A' for Active; 'I' for Inactive)
REMARK    1  A    between atoms: C_1  and  O_2
REMARK    2  A    between atoms: O_2  and  C_3
REMARK    3  A    between atoms: C_3  and  C_4
REMARK    4  A    between atoms: C_7  and  C_8
REMARK                            x       y       z     vdW  Elec       q    Type
REMARK                         _______ _______ _______ _____ _____    ______ ____
ROOT
ATOM      1  C   UNL     1       1.573   8.506  19.279  0.00  0.00    +0.000 C 
ATOM      2  O   UNL     1       1.249   8.851  18.137  0.00  0.00    +0.000 OA
ATOM      3  N   UNL     1       1.405   9.386  20.355  0.00  0.00    +0.000 N 
ATOM      4  C   UNL     1       1.615   9.085  21.774  0.00  0.00    +0.000 C 
ATOM      5  C   UNL     1       0.368   9.367  22.627  0.00  0.00    +0.000 C 
ATOM      6  N   UNL     1      -0.187  10.715  22.411  0.00  0.00    +0.000 NA
ATOM      7  C   UNL     1      -1.407  10.873  23.214  0.00  0.00    +0.000 C 
ATOM      8  C   UNL     1      -2.010  12.263  23.038  0.00  0.00    +0.000 C 
ATOM      9  C   UNL     1      -2.273  12.563  21.568  0.00  0.00    +0.000 C 
ATOM     10  C   UNL     1      -1.008  12.344  20.742  0.00  0.00    +0.000 C 
ATOM     11  C   UNL     1      -0.448  10.931  20.964  0.00  0.00    +0.000 C 
ATOM     12  C   UNL     1       0.840  10.720  20.122  0.00  0.00    +0.000 C 
ENDROOT
BRANCH   1  16
ATOM     13  C   UNL     1       3.308   5.021  19.272  0.00  0.00    +0.000 A 
ATOM     14  C   UNL     1       2.424   5.001  20.330  0.00  0.00    +0.000 A 
ATOM     15  C   UNL     1       1.809   6.266  20.543  0.00  0.00    +0.000 A 
ATOM     16  C   UNL     1       2.109   7.172  19.544  0.00  0.00    +0.000 A 
ATOM     17  S   UNL     1       3.337   6.556  18.514  0.00  0.00    +0.000 S 
BRANCH  13  18
ATOM     18  C   UNL     1       4.192   3.916  18.794  0.00  0.00    +0.000 C 
BRANCH  18  20
ATOM     19  C   UNL     1       6.379   4.598  18.275  0.00  0.00    +0.000 C 
ATOM     20  O   UNL     1       5.498   4.177  19.307  0.00  0.00    +0.000 OA
ENDBRANCH  18  20
ENDBRANCH  13  18
ENDBRANCH   1  16
TORSDOF 3
ENDMDL
