MODEL 1
REMARK VINA RESULT:      -8.7      0.000      0.000
REMARK  Name = 
REMARK  4 active torsions:
REMARK  status: ('A' for Active; 'I' for Inactive)
REMARK    1  A    between atoms: C_1  and  C_2
REMARK    2  A    between atoms: C_7  and  N_8
REMARK    3  A    between atoms: N_8  and  C_9
REMARK    4  A    between atoms: C_10  and  C_11
REMARK                            x       y       z     vdW  Elec       q    Type
REMARK                         _______ _______ _______ _____ _____    ______ ____
ROOT
ATOM      1  C   UNL     1       3.441   6.386  19.030  0.00  0.00    +0.000 A 
ATOM      2  C   UNL     1       4.156   6.645  17.864  0.00  0.00    +0.000 A 
ATOM      3  N   UNL     1       3.726   7.814  17.267  0.00  0.00    +0.000 NA
ATOM      4  C   UNL     1       2.763   8.268  18.035  0.00  0.00    +0.000 A 
ATOM      5  C   UNL     1       1.882   9.381  17.878  0.00  0.00    +0.000 A 
ATOM      6  C   UNL     1       0.971   9.662  18.829  0.00  0.00    +0.000 A 
ATOM      7  C   UNL     1       0.891   8.885  20.053  0.00  0.00    +0.000 A 
ATOM      8  C   UNL     1       1.723   7.843  20.212  0.00  0.00    +0.000 A 
ATOM      9  N   UNL     1       2.611   7.496  19.186  0.00  0.00    +0.000 N 
ENDROOT
BRANCH   2  10
ATOM     10  C   UNL     1       5.219   5.841  17.271  0.00  0.00    +0.000 A 
ATOM     11  C   UNL     1       5.048   5.334  15.971  0.00  0.00    +0.000 A 
ATOM     12  C   UNL     1       6.060   4.583  15.365  0.00  0.00    +0.000 A 
ATOM     13 BR   UNL     1       5.825   3.928  13.606  0.00  0.00    +0.000 Br
ATOM     14  C   UNL     1       7.247   4.310  16.041  0.00  0.00    +0.000 A 
ATOM     15  C   UNL     1       7.414   4.779  17.342  0.00  0.00    +0.000 A 
ATOM     16  C   UNL     1       6.405   5.528  17.946  0.00  0.00    +0.000 A 
ATOM     17  F   UNL     1       6.616   5.934  19.206  0.00  0.00    +0.000 F 
ENDBRANCH   2  10
BRANCH   1  18
ATOM     18  N   UNL     1       3.476   5.340  19.918  0.00  0.00    +0.000 N 
ATOM     19  H   UNL     1       4.304   5.296  20.518  0.00  0.00    +0.000 HD
BRANCH  18  26
ATOM     20  C   UNL     1       0.764   4.385  20.451  0.00  0.00    +0.000 C 
ATOM     21  C   UNL     1       1.824   3.522  19.821  0.00  0.00    +0.000 A 
ATOM     22  C   UNL     1       1.489   2.206  19.454  0.00  0.00    +0.000 A 
ATOM     23  C   UNL     1       2.429   1.372  18.845  0.00  0.00    +0.000 A 
ATOM     24  C   UNL     1       3.724   1.825  18.639  0.00  0.00    +0.000 A 
ATOM     25  C   UNL     1       4.080   3.109  19.040  0.00  0.00    +0.000 A 
ATOM     26  C   UNL     1       3.134   3.993  19.591  0.00  0.00    +0.000 A 
ENDBRANCH  18  26
ENDBRANCH   1  18
TORSDOF 3
ENDMDL
MODEL 2
REMARK VINA RESULT:      -8.5      0.483      1.400
REMARK  Name = 
REMARK  4 active torsions:
REMARK  status: ('A' for Active; 'I' for Inactive)
REMARK    1  A    between atoms: C_1  and  C_2
REMARK    2  A    between atoms: C_7  and  N_8
REMARK    3  A    between atoms: N_8  and  C_9
REMARK    4  A    between atoms: C_10  and  C_11
REMARK                            x       y       z     vdW  Elec       q    Type
REMARK                         _______ _______ _______ _____ _____    ______ ____
ROOT
ATOM      1  C   UNL     1       3.333   6.492  19.063  0.00  0.00    +0.000 A 
ATOM      2  C   UNL     1       4.086   6.742  17.919  0.00  0.00    +0.000 A 
ATOM      3  N   UNL     1       3.693   7.920  17.315  0.00  0.00    +0.000 NA
ATOM      4  C   UNL     1       2.718   8.389  18.057  0.00  0.00    +0.000 A 
ATOM      5  C   UNL     1       1.862   9.518  17.879  0.00  0.00    +0.000 A 
ATOM      6  C   UNL     1       0.929   9.813  18.804  0.00  0.00    +0.000 A 
ATOM      7  C   UNL     1       0.800   9.033  20.022  0.00  0.00    +0.000 A 
ATOM      8  C   UNL     1       1.608   7.976  20.201  0.00  0.00    +0.000 A 
ATOM      9  N   UNL     1       2.518   7.616  19.199  0.00  0.00    +0.000 N 
ENDROOT
BRANCH   2  10
ATOM     10  C   UNL     1       5.150   5.921  17.354  0.00  0.00    +0.000 A 
ATOM     11  C   UNL     1       4.997   5.401  16.056  0.00  0.00    +0.000 A 
ATOM     12  C   UNL     1       6.012   4.634  15.476  0.00  0.00    +0.000 A 
ATOM     13 BR   UNL     1       5.801   3.962  13.721  0.00  0.00    +0.000 Br
ATOM     14  C   UNL     1       7.184   4.356  16.176  0.00  0.00    +0.000 A 
ATOM     15  C   UNL     1       7.333   4.837  17.475  0.00  0.00    +0.000 A 
ATOM     16  C   UNL     1       6.320   5.603  18.053  0.00  0.00    +0.000 A 
ATOM     17  F   UNL     1       6.513   6.020  19.312  0.00  0.00    +0.000 F 
ENDBRANCH   2  10
BRANCH   1  18
ATOM     18  N   UNL     1       3.324   5.443  19.948  0.00  0.00    +0.000 N 
ATOM     19  H   UNL     1       4.234   5.179  20.332  0.00  0.00    +0.000 HD
BRANCH  18  26
ATOM     20  C   UNL     1       4.785   2.953  19.484  0.00  0.00    +0.000 C 
ATOM     21  C   UNL     1       3.283   3.016  19.551  0.00  0.00    +0.000 A 
ATOM     22  C   UNL     1       2.551   1.824  19.405  0.00  0.00    +0.000 A 
ATOM     23  C   UNL     1       1.157   1.825  19.482  0.00  0.00    +0.000 A 
ATOM     24  C   UNL     1       0.476   3.021  19.658  0.00  0.00    +0.000 A 
ATOM     25  C   UNL     1       1.186   4.213  19.759  0.00  0.00    +0.000 A 
ATOM     26  C   UNL     1       2.594   4.231  19.754  0.00  0.00    +0.000 A 
ENDBRANCH  18  26
ENDBRANCH   1  18
TORSDOF 3
ENDMDL
MODEL 3
REMARK VINA RESULT:      -7.9      2.806      6.187
REMARK  Name = 
REMARK  4 active torsions:
REMARK  status: ('A' for Active; 'I' for Inactive)
REMARK    1  A    between atoms: C_1  and  C_2
REMARK    2  A    between atoms: C_7  and  N_8
REMARK    3  A    between atoms: N_8  and  C_9
REMARK    4  A    between atoms: C_10  and  C_11
REMARK                            x       y       z     vdW  Elec       q    Type
REMARK                         _______ _______ _______ _____ _____    ______ ____
ROOT
ATOM      1  C   UNL     1       3.698   5.827  19.160  0.00  0.00    +0.000 A 
ATOM      2  C   UNL     1       2.460   6.369  19.495  0.00  0.00    +0.000 A 
ATOM      3  N   UNL     1       1.622   5.405  20.021  0.00  0.00    +0.000 NA
ATOM      4  C   UNL     1       2.314   4.291  20.008  0.00  0.00    +0.000 A 
ATOM      5  C   UNL     1       1.945   2.951  20.337  0.00  0.00    +0.000 A 
ATOM      6  C   UNL     1       2.853   1.960  20.261  0.00  0.00    +0.000 A 
ATOM      7  C   UNL     1       4.233   2.226  19.898  0.00  0.00    +0.000 A 
ATOM      8  C   UNL     1       4.591   3.485  19.598  0.00  0.00    +0.000 A 
ATOM      9  N   UNL     1       3.627   4.501  19.590  0.00  0.00    +0.000 N 
ENDROOT
BRANCH   2  10
ATOM     10  C   UNL     1       2.017   7.749  19.334  0.00  0.00    +0.000 A 
ATOM     11  C   UNL     1       1.361   8.386  20.402  0.00  0.00    +0.000 A 
ATOM     12  C   UNL     1       0.949   9.717  20.288  0.00  0.00    +0.000 A 
ATOM     13 BR   UNL     1       0.090  10.567  21.742  0.00  0.00    +0.000 Br
ATOM     14  C   UNL     1       1.166  10.432  19.112  0.00  0.00    +0.000 A 
ATOM     15  C   UNL     1       1.785   9.801  18.035  0.00  0.00    +0.000 A 
ATOM     16  C   UNL     1       2.196   8.473  18.150  0.00  0.00    +0.000 A 
ATOM     17  F   UNL     1       2.767   7.916  17.073  0.00  0.00    +0.000 F 
ENDBRANCH   2  10
BRANCH   1  18
ATOM     18  N   UNL     1       4.813   6.370  18.573  0.00  0.00    +0.000 N 
ATOM     19  H   UNL     1       4.773   7.376  18.394  0.00  0.00    +0.000 HD
BRANCH  18  26
ATOM     20  C   UNL     1       7.636   5.673  18.883  0.00  0.00    +0.000 C 
ATOM     21  C   UNL     1       6.868   5.422  17.613  0.00  0.00    +0.000 A 
ATOM     22  C   UNL     1       7.531   4.807  16.536  0.00  0.00    +0.000 A 
ATOM     23  C   UNL     1       6.858   4.530  15.344  0.00  0.00    +0.000 A 
ATOM     24  C   UNL     1       5.531   4.907  15.197  0.00  0.00    +0.000 A 
ATOM     25  C   UNL     1       4.877   5.558  16.238  0.00  0.00    +0.000 A 
ATOM     26  C   UNL     1       5.512   5.785  17.474  0.00  0.00    +0.000 A 
ENDBRANCH  18  26
ENDBRANCH   1  18
TORSDOF 3
ENDMDL
MODEL 4
REMARK VINA RESULT:      -7.7      3.106      5.732
REMARK  Name = 
REMARK  4 active torsions:
REMARK  status: ('A' for Active; 'I' for Inactive)
REMARK    1  A    between atoms: C_1  and  C_2
REMARK    2  A    between atoms: C_7  and  N_8
REMARK    3  A    between atoms: N_8  and  C_9
REMARK    4  A    between atoms: C_10  and  C_11
REMARK                            x       y       z     vdW  Elec       q    Type
REMARK                         _______ _______ _______ _____ _____    ______ ____
ROOT
ATOM      1  C   UNL     1       5.891   4.431  15.448  0.00  0.00    +0.000 A 
ATOM      2  C   UNL     1       6.997   5.255  15.640  0.00  0.00    +0.000 A 
ATOM      3  N   UNL     1       7.706   5.414  14.466  0.00  0.00    +0.000 NA
ATOM      4  C   UNL     1       7.064   4.705  13.567  0.00  0.00    +0.000 A 
ATOM      5  C   UNL     1       7.375   4.410  12.205  0.00  0.00    +0.000 A 
ATOM      6  C   UNL     1       6.537   3.660  11.465  0.00  0.00    +0.000 A 
ATOM      7  C   UNL     1       5.279   3.177  12.007  0.00  0.00    +0.000 A 
ATOM      8  C   UNL     1       4.975   3.458  13.284  0.00  0.00    +0.000 A 
ATOM      9  N   UNL     1       5.887   4.163  14.080  0.00  0.00    +0.000 N 
ENDROOT
BRANCH   2  10
ATOM     10  C   UNL     1       7.432   5.891  16.878  0.00  0.00    +0.000 A 
ATOM     11  C   UNL     1       7.688   7.274  16.882  0.00  0.00    +0.000 A 
ATOM     12  C   UNL     1       8.080   7.918  18.060  0.00  0.00    +0.000 A 
ATOM     13 BR   UNL     1       8.397   9.782  18.055  0.00  0.00    +0.000 Br
ATOM     14  C   UNL     1       8.239   7.202  19.245  0.00  0.00    +0.000 A 
ATOM     15  C   UNL     1       8.021   5.827  19.244  0.00  0.00    +0.000 A 
ATOM     16  C   UNL     1       7.630   5.184  18.070  0.00  0.00    +0.000 A 
ATOM     17  F   UNL     1       7.455   3.857  18.128  0.00  0.00    +0.000 F 
ENDBRANCH   2  10
BRANCH   1  18
ATOM     18  N   UNL     1       4.938   3.954  16.313  0.00  0.00    +0.000 N 
ATOM     19  H   UNL     1       4.415   3.136  15.989  0.00  0.00    +0.000 HD
BRANCH  18  26
ATOM     20  C   UNL     1       2.573   2.727  17.519  0.00  0.00    +0.000 C 
ATOM     21  C   UNL     1       2.878   4.196  17.634  0.00  0.00    +0.000 A 
ATOM     22  C   UNL     1       2.000   5.011  18.371  0.00  0.00    +0.000 A 
ATOM     23  C   UNL     1       2.250   6.375  18.528  0.00  0.00    +0.000 A 
ATOM     24  C   UNL     1       3.352   6.951  17.913  0.00  0.00    +0.000 A 
ATOM     25  C   UNL     1       4.204   6.164  17.143  0.00  0.00    +0.000 A 
ATOM     26  C   UNL     1       4.013   4.775  17.027  0.00  0.00    +0.000 A 
ENDBRANCH  18  26
ENDBRANCH   1  18
TORSDOF 3
ENDMDL
MODEL 5
REMARK VINA RESULT:      -7.7      2.503      5.269
REMARK  Name = 
REMARK  4 active torsions:
REMARK  status: ('A' for Active; 'I' for Inactive)
REMARK    1  A    between atoms: C_1  and  C_2
REMARK    2  A    between atoms: C_7  and  N_8
REMARK    3  A    between atoms: N_8  and  C_9
REMARK    4  A    between atoms: C_10  and  C_11
REMARK                            x       y       z     vdW  Elec       q    Type
REMARK                         _______ _______ _______ _____ _____    ______ ____
ROOT
ATOM      1  C   UNL     1       3.482   5.208  17.476  0.00  0.00    +0.000 A 
ATOM      2  C   UNL     1       3.616   6.520  17.922  0.00  0.00    +0.000 A 
ATOM      3  N   UNL     1       4.796   7.078  17.474  0.00  0.00    +0.000 NA
ATOM      4  C   UNL     1       5.386   6.139  16.773  0.00  0.00    +0.000 A 
ATOM      5  C   UNL     1       6.670   6.100  16.148  0.00  0.00    +0.000 A 
ATOM      6  C   UNL     1       7.053   5.011  15.455  0.00  0.00    +0.000 A 
ATOM      7  C   UNL     1       6.164   3.876  15.279  0.00  0.00    +0.000 A 
ATOM      8  C   UNL     1       4.952   3.911  15.855  0.00  0.00    +0.000 A 
ATOM      9  N   UNL     1       4.586   5.005  16.649  0.00  0.00    +0.000 N 
ENDROOT
BRANCH   2  10
ATOM     10  C   UNL     1       2.694   7.274  18.764  0.00  0.00    +0.000 A 
ATOM     11  C   UNL     1       2.054   8.407  18.231  0.00  0.00    +0.000 A 
ATOM     12  C   UNL     1       1.143   9.136  19.003  0.00  0.00    +0.000 A 
ATOM     13 BR   UNL     1       0.272  10.642  18.264  0.00  0.00    +0.000 Br
ATOM     14  C   UNL     1       0.865   8.764  20.317  0.00  0.00    +0.000 A 
ATOM     15  C   UNL     1       1.519   7.663  20.866  0.00  0.00    +0.000 A 
ATOM     16  C   UNL     1       2.426   6.937  20.095  0.00  0.00    +0.000 A 
ATOM     17  F   UNL     1       3.038   5.901  20.686  0.00  0.00    +0.000 F 
ENDBRANCH   2  10
BRANCH   1  18
ATOM     18  N   UNL     1       2.523   4.252  17.701  0.00  0.00    +0.000 N 
ATOM     19  H   UNL     1       1.619   4.417  17.253  0.00  0.00    +0.000 HD
BRANCH  18  26
ATOM     20  C   UNL     1       4.700   3.002  19.201  0.00  0.00    +0.000 C 
ATOM     21  C   UNL     1       3.290   3.082  19.723  0.00  0.00    +0.000 A 
ATOM     22  C   UNL     1       3.013   2.552  20.996  0.00  0.00    +0.000 A 
ATOM     23  C   UNL     1       1.727   2.622  21.536  0.00  0.00    +0.000 A 
ATOM     24  C   UNL     1       0.695   3.178  20.794  0.00  0.00    +0.000 A 
ATOM     25  C   UNL     1       0.948   3.665  19.515  0.00  0.00    +0.000 A 
ATOM     26  C   UNL     1       2.248   3.670  18.976  0.00  0.00    +0.000 A 
ENDBRANCH  18  26
ENDBRANCH   1  18
TORSDOF 3
ENDMDL
MODEL 6
REMARK VINA RESULT:      -7.2      3.010      5.557
REMARK  Name = 
REMARK  4 active torsions:
REMARK  status: ('A' for Active; 'I' for Inactive)
REMARK    1  A    between atoms: C_1  and  C_2
REMARK    2  A    between atoms: C_7  and  N_8
REMARK    3  A    between atoms: N_8  and  C_9
REMARK    4  A    between atoms: C_10  and  C_11
REMARK                            x       y       z     vdW  Elec       q    Type
REMARK                         _______ _______ _______ _____ _____    ______ ____
ROOT
ATOM      1  C   UNL     1       5.500   4.805  15.227  0.00  0.00    +0.000 A 
ATOM      2  C   UNL     1       6.797   5.202  15.540  0.00  0.00    +0.000 A 
ATOM      3  N   UNL     1       7.671   4.891  14.518  0.00  0.00    +0.000 NA
ATOM      4  C   UNL     1       6.943   4.310  13.595  0.00  0.00    +0.000 A 
ATOM      5  C   UNL     1       7.308   3.690  12.361  0.00  0.00    +0.000 A 
ATOM      6  C   UNL     1       6.361   3.169  11.558  0.00  0.00    +0.000 A 
ATOM      7  C   UNL     1       4.951   3.265  11.892  0.00  0.00    +0.000 A 
ATOM      8  C   UNL     1       4.599   3.856  13.045  0.00  0.00    +0.000 A 
ATOM      9  N   UNL     1       5.588   4.319  13.922  0.00  0.00    +0.000 N 
ENDROOT
BRANCH   2  10
ATOM     10  C   UNL     1       7.262   5.849  16.761  0.00  0.00    +0.000 A 
ATOM     11  C   UNL     1       7.515   7.232  16.748  0.00  0.00    +0.000 A 
ATOM     12  C   UNL     1       7.935   7.887  17.910  0.00  0.00    +0.000 A 
ATOM     13 BR   UNL     1       8.249   9.752  17.882  0.00  0.00    +0.000 Br
ATOM     14  C   UNL     1       8.124   7.182  19.097  0.00  0.00    +0.000 A 
ATOM     15  C   UNL     1       7.908   5.806  19.114  0.00  0.00    +0.000 A 
ATOM     16  C   UNL     1       7.489   5.153  17.954  0.00  0.00    +0.000 A 
ATOM     17  F   UNL     1       7.318   3.826  18.028  0.00  0.00    +0.000 F 
ENDBRANCH   2  10
BRANCH   1  18
ATOM     18  N   UNL     1       4.325   4.855  15.935  0.00  0.00    +0.000 N 
ATOM     19  H   UNL     1       3.827   5.748  15.904  0.00  0.00    +0.000 HD
BRANCH  18  26
ATOM     20  C   UNL     1       3.961   6.713  18.163  0.00  0.00    +0.000 C 
ATOM     21  C   UNL     1       3.958   5.218  18.339  0.00  0.00    +0.000 A 
ATOM     22  C   UNL     1       3.750   4.692  19.626  0.00  0.00    +0.000 A 
ATOM     23  C   UNL     1       3.714   3.313  19.839  0.00  0.00    +0.000 A 
ATOM     24  C   UNL     1       3.932   2.444  18.779  0.00  0.00    +0.000 A 
ATOM     25  C   UNL     1       4.185   2.953  17.509  0.00  0.00    +0.000 A 
ATOM     26  C   UNL     1       4.156   4.337  17.255  0.00  0.00    +0.000 A 
ENDBRANCH  18  26
ENDBRANCH   1  18
TORSDOF 3
ENDMDL
MODEL 7
REMARK VINA RESULT:      -7.2      2.885      5.524
REMARK  Name = 
REMARK  4 active torsions:
REMARK  status: ('A' for Active; 'I' for Inactive)
REMARK    1  A    between atoms: C_1  and  C_2
REMARK    2  A    between atoms: C_7  and  N_8
REMARK    3  A    between atoms: N_8  and  C_9
REMARK    4  A    between atoms: C_10  and  C_11
REMARK                            x       y       z     vdW  Elec       q    Type
REMARK                         _______ _______ _______ _____ _____    ______ ____
ROOT
ATOM      1  C   UNL     1       3.037   5.942  17.906  0.00  0.00    +0.000 A 
ATOM      2  C   UNL     1       3.198   7.307  18.128  0.00  0.00    +0.000 A 
ATOM      3  N   UNL     1       4.450   7.730  17.726  0.00  0.00    +0.000 NA
ATOM      4  C   UNL     1       5.055   6.659  17.272  0.00  0.00    +0.000 A 
ATOM      5  C   UNL     1       6.394   6.458  16.814  0.00  0.00    +0.000 A 
ATOM      6  C   UNL     1       6.783   5.248  16.371  0.00  0.00    +0.000 A 
ATOM      7  C   UNL     1       5.853   4.136  16.295  0.00  0.00    +0.000 A 
ATOM      8  C   UNL     1       4.591   4.319  16.714  0.00  0.00    +0.000 A 
ATOM      9  N   UNL     1       4.208   5.552  17.258  0.00  0.00    +0.000 N 
ENDROOT
BRANCH   2  10
ATOM     10  C   UNL     1       2.239   8.236  18.714  0.00  0.00    +0.000 A 
ATOM     11  C   UNL     1       1.787   8.013  20.027  0.00  0.00    +0.000 A 
ATOM     12  C   UNL     1       0.888   8.901  20.627  0.00  0.00    +0.000 A 
ATOM     13 BR   UNL     1       0.308   8.602  22.402  0.00  0.00    +0.000 Br
ATOM     14  C   UNL     1       0.412  10.011  19.933  0.00  0.00    +0.000 A 
ATOM     15  C   UNL     1       0.827  10.223  18.620  0.00  0.00    +0.000 A 
ATOM     16  C   UNL     1       1.723   9.338  18.022  0.00  0.00    +0.000 A 
ATOM     17  F   UNL     1       2.069   9.583  16.751  0.00  0.00    +0.000 F 
ENDBRANCH   2  10
BRANCH   1  18
ATOM     18  N   UNL     1       2.005   5.080  18.183  0.00  0.00    +0.000 N 
ATOM     19  H   UNL     1       1.064   5.471  18.092  0.00  0.00    +0.000 HD
BRANCH  18  26
ATOM     20  C   UNL     1       2.126   2.195  17.724  0.00  0.00    +0.000 C 
ATOM     21  C   UNL     1       2.054   2.799  19.101  0.00  0.00    +0.000 A 
ATOM     22  C   UNL     1       2.067   1.941  20.215  0.00  0.00    +0.000 A 
ATOM     23  C   UNL     1       2.026   2.452  21.513  0.00  0.00    +0.000 A 
ATOM     24  C   UNL     1       1.924   3.821  21.714  0.00  0.00    +0.000 A 
ATOM     25  C   UNL     1       1.865   4.678  20.619  0.00  0.00    +0.000 A 
ATOM     26  C   UNL     1       1.975   4.193  19.302  0.00  0.00    +0.000 A 
ENDBRANCH  18  26
ENDBRANCH   1  18
TORSDOF 3
ENDMDL
MODEL 8
REMARK VINA RESULT:      -7.2      2.519      5.083
REMARK  Name = 
REMARK  4 active torsions:
REMARK  status: ('A' for Active; 'I' for Inactive)
REMARK    1  A    between atoms: C_1  and  C_2
REMARK    2  A    between atoms: C_7  and  N_8
REMARK    3  A    between atoms: N_8  and  C_9
REMARK    4  A    between atoms: C_10  and  C_11
REMARK                            x       y       z     vdW  Elec       q    Type
REMARK                         _______ _______ _______ _____ _____    ______ ____
ROOT
ATOM      1  C   UNL     1       3.460   5.252  17.627  0.00  0.00    +0.000 A 
ATOM      2  C   UNL     1       3.505   6.623  17.864  0.00  0.00    +0.000 A 
ATOM      3  N   UNL     1       4.563   7.208  17.198  0.00  0.00    +0.000 NA
ATOM      4  C   UNL     1       5.167   6.229  16.567  0.00  0.00    +0.000 A 
ATOM      5  C   UNL     1       6.371   6.208  15.799  0.00  0.00    +0.000 A 
ATOM      6  C   UNL     1       6.787   5.064  15.223  0.00  0.00    +0.000 A 
ATOM      7  C   UNL     1       6.007   3.843  15.319  0.00  0.00    +0.000 A 
ATOM      8  C   UNL     1       4.869   3.858  16.031  0.00  0.00    +0.000 A 
ATOM      9  N   UNL     1       4.481   5.023  16.704  0.00  0.00    +0.000 N 
ENDROOT
BRANCH   2  10
ATOM     10  C   UNL     1       2.608   7.413  18.700  0.00  0.00    +0.000 A 
ATOM     11  C   UNL     1       1.951   8.522  18.139  0.00  0.00    +0.000 A 
ATOM     12  C   UNL     1       1.063   9.283  18.907  0.00  0.00    +0.000 A 
ATOM     13 BR   UNL     1       0.169  10.757  18.132  0.00  0.00    +0.000 Br
ATOM     14  C   UNL     1       0.825   8.967  20.243  0.00  0.00    +0.000 A 
ATOM     15  C   UNL     1       1.496   7.890  20.819  0.00  0.00    +0.000 A 
ATOM     16  C   UNL     1       2.381   7.132  20.053  0.00  0.00    +0.000 A 
ATOM     17  F   UNL     1       3.011   6.122  20.668  0.00  0.00    +0.000 F 
ENDBRANCH   2  10
BRANCH   1  18
ATOM     18  N   UNL     1       2.637   4.261  18.100  0.00  0.00    +0.000 N 
ATOM     19  H   UNL     1       1.638   4.480  18.106  0.00  0.00    +0.000 HD
BRANCH  18  26
ATOM     20  C   UNL     1       0.535   3.979  20.113  0.00  0.00    +0.000 C 
ATOM     21  C   UNL     1       1.885   3.327  20.248  0.00  0.00    +0.000 A 
ATOM     22  C   UNL     1       2.140   2.532  21.379  0.00  0.00    +0.000 A 
ATOM     23  C   UNL     1       3.368   1.887  21.540  0.00  0.00    +0.000 A 
ATOM     24  C   UNL     1       4.371   2.067  20.598  0.00  0.00    +0.000 A 
ATOM     25  C   UNL     1       4.147   2.888  19.497  0.00  0.00    +0.000 A 
ATOM     26  C   UNL     1       2.896   3.492  19.276  0.00  0.00    +0.000 A 
ENDBRANCH  18  26
ENDBRANCH   1  18
TORSDOF 3
ENDMDL
MODEL 9
REMARK VINA RESULT:      -7.2      1.869      2.637
REMARK  Name = 
REMARK  4 active torsions:
REMARK  status: ('A' for Active; 'I' for Inactive)
REMARK    1  A    between atoms: C_1  and  C_2
REMARK    2  A    between atoms: C_7  and  N_8
REMARK    3  A    between atoms: N_8  and  C_9
REMARK    4  A    between atoms: C_10  and  C_11
REMARK                            x       y       z     vdW  Elec       q    Type
REMARK                         _______ _______ _______ _____ _____    ______ ____
ROOT
ATOM      1  C   UNL     1       2.229   6.990  19.982  0.00  0.00    +0.000 A 
ATOM      2  C   UNL     1       2.748   7.391  18.754  0.00  0.00    +0.000 A 
ATOM      3  N   UNL     1       2.183   8.582  18.342  0.00  0.00    +0.000 NA
ATOM      4  C   UNL     1       1.330   8.912  19.282  0.00  0.00    +0.000 A 
ATOM      5  C   UNL     1       0.389   9.984  19.364  0.00  0.00    +0.000 A 
ATOM      6  C   UNL     1      -0.379  10.129  20.460  0.00  0.00    +0.000 A 
ATOM      7  C   UNL     1      -0.240   9.243  21.603  0.00  0.00    +0.000 A 
ATOM      8  C   UNL     1       0.650   8.239  21.537  0.00  0.00    +0.000 A 
ATOM      9  N   UNL     1       1.386   8.034  20.364  0.00  0.00    +0.000 N 
ENDROOT
BRANCH   2  10
ATOM     10  C   UNL     1       3.741   6.703  17.938  0.00  0.00    +0.000 A 
ATOM     11  C   UNL     1       5.038   7.239  17.843  0.00  0.00    +0.000 A 
ATOM     12  C   UNL     1       6.021   6.588  17.091  0.00  0.00    +0.000 A 
ATOM     13 BR   UNL     1       7.766   7.308  16.994  0.00  0.00    +0.000 Br
ATOM     14  C   UNL     1       5.731   5.408  16.410  0.00  0.00    +0.000 A 
ATOM     15  C   UNL     1       4.441   4.885  16.469  0.00  0.00    +0.000 A 
ATOM     16  C   UNL     1       3.462   5.535  17.219  0.00  0.00    +0.000 A 
ATOM     17  F   UNL     1       2.235   4.995  17.220  0.00  0.00    +0.000 F 
ENDBRANCH   2  10
BRANCH   1  18
ATOM     18  N   UNL     1       2.442   5.874  20.751  0.00  0.00    +0.000 N 
ATOM     19  H   UNL     1       3.325   5.853  21.268  0.00  0.00    +0.000 HD
BRANCH  18  26
ATOM     20  C   UNL     1       4.697   4.130  20.101  0.00  0.00    +0.000 C 
ATOM     21  C   UNL     1       3.265   3.674  20.022  0.00  0.00    +0.000 A 
ATOM     22  C   UNL     1       3.001   2.347  19.639  0.00  0.00    +0.000 A 
ATOM     23  C   UNL     1       1.691   1.868  19.573  0.00  0.00    +0.000 A 
ATOM     24  C   UNL     1       0.629   2.720  19.842  0.00  0.00    +0.000 A 
ATOM     25  C   UNL     1       0.876   4.048  20.177  0.00  0.00    +0.000 A 
ATOM     26  C   UNL     1       2.188   4.536  20.319  0.00  0.00    +0.000 A 
ENDBRANCH  18  26
ENDBRANCH   1  18
TORSDOF 3
ENDMDL
