MODEL 1
REMARK VINA RESULT:      -7.6      0.000      0.000
REMARK  Name = 
REMARK  8 active torsions:
REMARK  status: ('A' for Active; 'I' for Inactive)
REMARK    1  A    between atoms: C_1  and  O_2
REMARK    2  A    between atoms: O_2  and  C_3
REMARK    3  A    between atoms: C_3  and  C_5
REMARK    4  A    between atoms: C_10  and  N_11
REMARK    5  A    between atoms: C_12  and  C_14
REMARK    6  A    between atoms: C_14  and  S_15
REMARK    7  A    between atoms: S_15  and  C_16
REMARK    8  A    between atoms: C_21  and  O_22
REMARK                            x       y       z     vdW  Elec       q    Type
REMARK                         _______ _______ _______ _____ _____    ______ ____
ROOT
ATOM      1  N   UNL     1       4.205   4.542  18.174  0.00  0.00    +0.000 N 
ATOM      2  C   UNL     1       3.995   4.025  16.904  0.00  0.00    +0.000 C 
ATOM      3  O   UNL     1       3.054   3.295  16.586  0.00  0.00    +0.000 OA
ATOM      4  H   UNL     1       4.868   5.312  18.259  0.00  0.00    +0.000 HD
ENDROOT
BRANCH   1  10
ATOM      5  C   UNL     1       2.651   5.086  20.029  0.00  0.00    +0.000 A 
ATOM      6  C   UNL     1       1.974   4.661  21.195  0.00  0.00    +0.000 A 
ATOM      7  C   UNL     1       2.142   3.378  21.708  0.00  0.00    +0.000 A 
ATOM      8  C   UNL     1       3.006   2.502  21.074  0.00  0.00    +0.000 A 
ATOM      9  C   UNL     1       3.686   2.905  19.923  0.00  0.00    +0.000 A 
ATOM     10  C   UNL     1       3.511   4.183  19.361  0.00  0.00    +0.000 A 
BRANCH   5  11
ATOM     11  C   UNL     1       2.335   6.486  19.612  0.00  0.00    +0.000 C 
ATOM     12  O   UNL     1       2.610   6.922  18.501  0.00  0.00    +0.000 OA
BRANCH  11  14
ATOM     13  C   UNL     1       1.459   8.558  20.203  0.00  0.00    +0.000 C 
ATOM     14  O   UNL     1       1.737   7.209  20.594  0.00  0.00    +0.000 OA
ENDBRANCH  11  14
ENDBRANCH   5  11
ENDBRANCH   1  10
BRANCH   2  15
ATOM     15  C   UNL     1       4.928   4.518  15.811  0.00  0.00    +0.000 C 
BRANCH  15  16
ATOM     16  S   UNL     1       6.654   4.020  15.991  0.00  0.00    +0.000 S 
BRANCH  16  17
ATOM     17  C   UNL     1       7.242   5.247  17.135  0.00  0.00    +0.000 A 
ATOM     18  N   UNL     1       7.360   6.525  16.745  0.00  0.00    +0.000 NA
ATOM     19  C   UNL     1       7.770   7.399  17.681  0.00  0.00    +0.000 A 
ATOM     20  N   UNL     1       7.940   8.727  17.293  0.00  0.00    +0.000 N 
ATOM     21  C   UNL     1       8.075   7.025  18.968  0.00  0.00    +0.000 A 
ATOM     22  C   UNL     1       7.912   5.693  19.250  0.00  0.00    +0.000 A 
ATOM     23  N   UNL     1       7.498   4.788  18.364  0.00  0.00    +0.000 NA
ATOM     24  H   UNL     1       7.626   8.832  16.330  0.00  0.00    +0.000 HD
ATOM     25  H   UNL     1       7.484   9.386  17.914  0.00  0.00    +0.000 HD
BRANCH  22  26
ATOM     26  O   UNL     1       8.164   5.193  20.493  0.00  0.00    +0.000 OA
ATOM     27  H   UNL     1       7.947   4.249  20.500  0.00  0.00    +0.000 HD
ENDBRANCH  22  26
ENDBRANCH  16  17
ENDBRANCH  15  16
ENDBRANCH   2  15
TORSDOF 7
ENDMDL
MODEL 2
REMARK VINA RESULT:      -7.3      1.839      3.203
REMARK  Name = 
REMARK  8 active torsions:
REMARK  status: ('A' for Active; 'I' for Inactive)
REMARK    1  A    between atoms: C_1  and  O_2
REMARK    2  A    between atoms: O_2  and  C_3
REMARK    3  A    between atoms: C_3  and  C_5
REMARK    4  A    between atoms: C_10  and  N_11
REMARK    5  A    between atoms: C_12  and  C_14
REMARK    6  A    between atoms: C_14  and  S_15
REMARK    7  A    between atoms: S_15  and  C_16
REMARK    8  A    between atoms: C_21  and  O_22
REMARK                            x       y       z     vdW  Elec       q    Type
REMARK                         _______ _______ _______ _____ _____    ______ ____
ROOT
ATOM      1  N   UNL     1       4.355   4.577  18.529  0.00  0.00    +0.000 N 
ATOM      2  C   UNL     1       4.174   3.943  17.308  0.00  0.00    +0.000 C 
ATOM      3  O   UNL     1       3.161   4.030  16.611  0.00  0.00    +0.000 OA
ATOM      4  H   UNL     1       5.307   4.624  18.891  0.00  0.00    +0.000 HD
ENDROOT
BRANCH   1  10
ATOM      5  C   UNL     1       2.593   4.617  20.273  0.00  0.00    +0.000 A 
ATOM      6  C   UNL     1       1.639   5.363  21.002  0.00  0.00    +0.000 A 
ATOM      7  C   UNL     1       1.433   6.719  20.760  0.00  0.00    +0.000 A 
ATOM      8  C   UNL     1       2.167   7.348  19.769  0.00  0.00    +0.000 A 
ATOM      9  C   UNL     1       3.112   6.627  19.037  0.00  0.00    +0.000 A 
ATOM     10  C   UNL     1       3.366   5.265  19.282  0.00  0.00    +0.000 A 
BRANCH   5  11
ATOM     11  C   UNL     1       2.693   3.183  20.682  0.00  0.00    +0.000 C 
ATOM     12  O   UNL     1       2.768   2.834  21.853  0.00  0.00    +0.000 OA
BRANCH  11  14
ATOM     13  C   UNL     1       1.408   2.098  19.076  0.00  0.00    +0.000 C 
ATOM     14  O   UNL     1       2.709   2.331  19.625  0.00  0.00    +0.000 OA
ENDBRANCH  11  14
ENDBRANCH   5  11
ENDBRANCH   1  10
BRANCH   2  15
ATOM     15  C   UNL     1       5.377   3.206  16.744  0.00  0.00    +0.000 C 
BRANCH  15  16
ATOM     16  S   UNL     1       6.516   4.221  15.778  0.00  0.00    +0.000 S 
BRANCH  16  17
ATOM     17  C   UNL     1       7.138   5.317  17.032  0.00  0.00    +0.000 A 
ATOM     18  N   UNL     1       7.513   4.827  18.223  0.00  0.00    +0.000 NA
ATOM     19  C   UNL     1       8.013   5.714  19.101  0.00  0.00    +0.000 A 
ATOM     20  N   UNL     1       8.375   5.240  20.362  0.00  0.00    +0.000 N 
ATOM     21  C   UNL     1       8.126   7.057  18.824  0.00  0.00    +0.000 A 
ATOM     22  C   UNL     1       7.714   7.437  17.574  0.00  0.00    +0.000 A 
ATOM     23  N   UNL     1       7.223   6.599  16.662  0.00  0.00    +0.000 NA
ATOM     24  H   UNL     1       8.271   4.228  20.376  0.00  0.00    +0.000 HD
ATOM     25  H   UNL     1       9.303   5.529  20.646  0.00  0.00    +0.000 HD
BRANCH  22  26
ATOM     26  O   UNL     1       7.788   8.736  17.165  0.00  0.00    +0.000 OA
ATOM     27  H   UNL     1       7.426   9.304  17.861  0.00  0.00    +0.000 HD
ENDBRANCH  22  26
ENDBRANCH  16  17
ENDBRANCH  15  16
ENDBRANCH   2  15
TORSDOF 7
ENDMDL
MODEL 3
REMARK VINA RESULT:      -7.3      1.449      2.090
REMARK  Name = 
REMARK  8 active torsions:
REMARK  status: ('A' for Active; 'I' for Inactive)
REMARK    1  A    between atoms: C_1  and  O_2
REMARK    2  A    between atoms: O_2  and  C_3
REMARK    3  A    between atoms: C_3  and  C_5
REMARK    4  A    between atoms: C_10  and  N_11
REMARK    5  A    between atoms: C_12  and  C_14
REMARK    6  A    between atoms: C_14  and  S_15
REMARK    7  A    between atoms: S_15  and  C_16
REMARK    8  A    between atoms: C_21  and  O_22
REMARK                            x       y       z     vdW  Elec       q    Type
REMARK                         _______ _______ _______ _____ _____    ______ ____
ROOT
ATOM      1  N   UNL     1       4.403   3.899  18.490  0.00  0.00    +0.000 N 
ATOM      2  C   UNL     1       4.250   3.680  17.129  0.00  0.00    +0.000 C 
ATOM      3  O   UNL     1       3.172   3.496  16.561  0.00  0.00    +0.000 OA
ATOM      4  H   UNL     1       5.299   4.271  18.803  0.00  0.00    +0.000 HD
ENDROOT
BRANCH   1  10
ATOM      5  C   UNL     1       2.660   4.865  19.967  0.00  0.00    +0.000 A 
ATOM      6  C   UNL     1       1.663   4.656  20.947  0.00  0.00    +0.000 A 
ATOM      7  C   UNL     1       1.402   3.390  21.464  0.00  0.00    +0.000 A 
ATOM      8  C   UNL     1       2.148   2.311  21.021  0.00  0.00    +0.000 A 
ATOM      9  C   UNL     1       3.138   2.498  20.054  0.00  0.00    +0.000 A 
ATOM     10  C   UNL     1       3.402   3.759  19.490  0.00  0.00    +0.000 A 
BRANCH   5  11
ATOM     11  C   UNL     1       2.788   6.283  19.514  0.00  0.00    +0.000 C 
ATOM     12  O   UNL     1       2.123   7.193  19.995  0.00  0.00    +0.000 OA
BRANCH  11  14
ATOM     13  C   UNL     1       3.369   7.519  17.632  0.00  0.00    +0.000 C 
ATOM     14  O   UNL     1       3.694   6.440  18.515  0.00  0.00    +0.000 OA
ENDBRANCH  11  14
ENDBRANCH   5  11
ENDBRANCH   1  10
BRANCH   2  15
ATOM     15  C   UNL     1       5.500   3.820  16.278  0.00  0.00    +0.000 C 
BRANCH  15  16
ATOM     16  S   UNL     1       5.807   5.478  15.630  0.00  0.00    +0.000 S 
BRANCH  16  17
ATOM     17  C   UNL     1       6.768   6.182  16.950  0.00  0.00    +0.000 A 
ATOM     18  N   UNL     1       7.165   5.413  17.974  0.00  0.00    +0.000 NA
ATOM     19  C   UNL     1       7.924   6.010  18.910  0.00  0.00    +0.000 A 
ATOM     20  N   UNL     1       8.318   5.244  20.006  0.00  0.00    +0.000 N 
ATOM     21  C   UNL     1       8.273   7.339  18.851  0.00  0.00    +0.000 A 
ATOM     22  C   UNL     1       7.812   8.021  17.755  0.00  0.00    +0.000 A 
ATOM     23  N   UNL     1       7.067   7.476  16.795  0.00  0.00    +0.000 NA
ATOM     24  H   UNL     1       8.016   4.283  19.862  0.00  0.00    +0.000 HD
ATOM     25  H   UNL     1       9.311   5.304  20.198  0.00  0.00    +0.000 HD
BRANCH  22  26
ATOM     26  O   UNL     1       8.099   9.342  17.567  0.00  0.00    +0.000 OA
ATOM     27  H   UNL     1       7.891   9.579  16.652  0.00  0.00    +0.000 HD
ENDBRANCH  22  26
ENDBRANCH  16  17
ENDBRANCH  15  16
ENDBRANCH   2  15
TORSDOF 7
ENDMDL
MODEL 4
REMARK VINA RESULT:      -7.2      1.505      1.988
REMARK  Name = 
REMARK  8 active torsions:
REMARK  status: ('A' for Active; 'I' for Inactive)
REMARK    1  A    between atoms: C_1  and  O_2
REMARK    2  A    between atoms: O_2  and  C_3
REMARK    3  A    between atoms: C_3  and  C_5
REMARK    4  A    between atoms: C_10  and  N_11
REMARK    5  A    between atoms: C_12  and  C_14
REMARK    6  A    between atoms: C_14  and  S_15
REMARK    7  A    between atoms: S_15  and  C_16
REMARK    8  A    between atoms: C_21  and  O_22
REMARK                            x       y       z     vdW  Elec       q    Type
REMARK                         _______ _______ _______ _____ _____    ______ ____
ROOT
ATOM      1  N   UNL     1       3.206   4.415  17.251  0.00  0.00    +0.000 N 
ATOM      2  C   UNL     1       4.450   3.894  16.927  0.00  0.00    +0.000 C 
ATOM      3  O   UNL     1       5.037   3.019  17.567  0.00  0.00    +0.000 OA
ATOM      4  H   UNL     1       2.724   4.949  16.528  0.00  0.00    +0.000 HD
ENDROOT
BRANCH   1  10
ATOM      5  C   UNL     1       2.171   5.245  19.346  0.00  0.00    +0.000 A 
ATOM      6  C   UNL     1       1.428   4.962  20.515  0.00  0.00    +0.000 A 
ATOM      7  C   UNL     1       1.002   3.670  20.813  0.00  0.00    +0.000 A 
ATOM      8  C   UNL     1       1.330   2.634  19.955  0.00  0.00    +0.000 A 
ATOM      9  C   UNL     1       2.066   2.894  18.798  0.00  0.00    +0.000 A 
ATOM     10  C   UNL     1       2.480   4.193  18.452  0.00  0.00    +0.000 A 
BRANCH   5  11
ATOM     11  C   UNL     1       2.524   6.687  19.177  0.00  0.00    +0.000 C 
ATOM     12  O   UNL     1       3.328   7.077  18.340  0.00  0.00    +0.000 OA
BRANCH  11  14
ATOM     13  C   UNL     1       1.655   8.814  19.540  0.00  0.00    +0.000 C 
ATOM     14  O   UNL     1       1.876   7.496  20.055  0.00  0.00    +0.000 OA
ENDBRANCH  11  14
ENDBRANCH   5  11
ENDBRANCH   1  10
BRANCH   2  15
ATOM     15  C   UNL     1       5.051   4.349  15.608  0.00  0.00    +0.000 C 
BRANCH  15  16
ATOM     16  S   UNL     1       6.853   4.271  15.517  0.00  0.00    +0.000 S 
BRANCH  16  17
ATOM     17  C   UNL     1       7.306   5.356  16.850  0.00  0.00    +0.000 A 
ATOM     18  N   UNL     1       7.637   4.846  18.046  0.00  0.00    +0.000 NA
ATOM     19  C   UNL     1       8.009   5.730  18.989  0.00  0.00    +0.000 A 
ATOM     20  N   UNL     1       8.321   5.232  20.253  0.00  0.00    +0.000 N 
ATOM     21  C   UNL     1       8.037   7.088  18.769  0.00  0.00    +0.000 A 
ATOM     22  C   UNL     1       7.681   7.488  17.508  0.00  0.00    +0.000 A 
ATOM     23  N   UNL     1       7.317   6.655  16.535  0.00  0.00    +0.000 NA
ATOM     24  H   UNL     1       8.293   4.215  20.222  0.00  0.00    +0.000 HD
ATOM     25  H   UNL     1       9.204   5.577  20.611  0.00  0.00    +0.000 HD
BRANCH  22  26
ATOM     26  O   UNL     1       7.682   8.805  17.153  0.00  0.00    +0.000 OA
ATOM     27  H   UNL     1       6.808   9.179  17.337  0.00  0.00    +0.000 HD
ENDBRANCH  22  26
ENDBRANCH  16  17
ENDBRANCH  15  16
ENDBRANCH   2  15
TORSDOF 7
ENDMDL
MODEL 5
REMARK VINA RESULT:      -7.1      1.474      2.683
REMARK  Name = 
REMARK  8 active torsions:
REMARK  status: ('A' for Active; 'I' for Inactive)
REMARK    1  A    between atoms: C_1  and  O_2
REMARK    2  A    between atoms: O_2  and  C_3
REMARK    3  A    between atoms: C_3  and  C_5
REMARK    4  A    between atoms: C_10  and  N_11
REMARK    5  A    between atoms: C_12  and  C_14
REMARK    6  A    between atoms: C_14  and  S_15
REMARK    7  A    between atoms: S_15  and  C_16
REMARK    8  A    between atoms: C_21  and  O_22
REMARK                            x       y       z     vdW  Elec       q    Type
REMARK                         _______ _______ _______ _____ _____    ______ ____
ROOT
ATOM      1  N   UNL     1       4.208   4.677  18.735  0.00  0.00    +0.000 N 
ATOM      2  C   UNL     1       4.075   4.049  17.506  0.00  0.00    +0.000 C 
ATOM      3  O   UNL     1       3.131   4.209  16.730  0.00  0.00    +0.000 OA
ATOM      4  H   UNL     1       5.129   4.652  19.172  0.00  0.00    +0.000 HD
ENDROOT
BRANCH   1  10
ATOM      5  C   UNL     1       2.381   4.892  20.399  0.00  0.00    +0.000 A 
ATOM      6  C   UNL     1       1.432   5.717  21.042  0.00  0.00    +0.000 A 
ATOM      7  C   UNL     1       1.293   7.063  20.713  0.00  0.00    +0.000 A 
ATOM      8  C   UNL     1       2.091   7.603  19.719  0.00  0.00    +0.000 A 
ATOM      9  C   UNL     1       3.033   6.802  19.070  0.00  0.00    +0.000 A 
ATOM     10  C   UNL     1       3.220   5.448  19.405  0.00  0.00    +0.000 A 
BRANCH   5  11
ATOM     11  C   UNL     1       2.405   3.482  20.894  0.00  0.00    +0.000 C 
ATOM     12  O   UNL     1       2.492   3.201  22.082  0.00  0.00    +0.000 OA
BRANCH  11  14
ATOM     13  C   UNL     1       1.069   2.555  19.231  0.00  0.00    +0.000 C 
ATOM     14  O   UNL     1       2.339   2.568  19.892  0.00  0.00    +0.000 OA
ENDBRANCH  11  14
ENDBRANCH   5  11
ENDBRANCH   1  10
BRANCH   2  15
ATOM     15  C   UNL     1       5.257   3.214  17.042  0.00  0.00    +0.000 C 
BRANCH  15  16
ATOM     16  S   UNL     1       6.424   4.070  15.961  0.00  0.00    +0.000 S 
BRANCH  16  17
ATOM     17  C   UNL     1       7.102   5.272  17.082  0.00  0.00    +0.000 A 
ATOM     18  N   UNL     1       7.241   6.548  16.692  0.00  0.00    +0.000 NA
ATOM     19  C   UNL     1       7.720   7.404  17.611  0.00  0.00    +0.000 A 
ATOM     20  N   UNL     1       7.912   8.728  17.221  0.00  0.00    +0.000 N 
ATOM     21  C   UNL     1       8.073   7.013  18.882  0.00  0.00    +0.000 A 
ATOM     22  C   UNL     1       7.882   5.686  19.165  0.00  0.00    +0.000 A 
ATOM     23  N   UNL     1       7.401   4.799  18.296  0.00  0.00    +0.000 NA
ATOM     24  H   UNL     1       7.557   8.848  16.275  0.00  0.00    +0.000 HD
ATOM     25  H   UNL     1       7.506   9.397  17.866  0.00  0.00    +0.000 HD
BRANCH  22  26
ATOM     26  O   UNL     1       8.177   5.171  20.393  0.00  0.00    +0.000 OA
ATOM     27  H   UNL     1       9.059   5.473  20.655  0.00  0.00    +0.000 HD
ENDBRANCH  22  26
ENDBRANCH  16  17
ENDBRANCH  15  16
ENDBRANCH   2  15
TORSDOF 7
ENDMDL
MODEL 6
REMARK VINA RESULT:      -7.1      0.990      1.241
REMARK  Name = 
REMARK  8 active torsions:
REMARK  status: ('A' for Active; 'I' for Inactive)
REMARK    1  A    between atoms: C_1  and  O_2
REMARK    2  A    between atoms: O_2  and  C_3
REMARK    3  A    between atoms: C_3  and  C_5
REMARK    4  A    between atoms: C_10  and  N_11
REMARK    5  A    between atoms: C_12  and  C_14
REMARK    6  A    between atoms: C_14  and  S_15
REMARK    7  A    between atoms: S_15  and  C_16
REMARK    8  A    between atoms: C_21  and  O_22
REMARK                            x       y       z     vdW  Elec       q    Type
REMARK                         _______ _______ _______ _____ _____    ______ ____
ROOT
ATOM      1  N   UNL     1       4.311   4.034  18.424  0.00  0.00    +0.000 N 
ATOM      2  C   UNL     1       4.293   3.676  17.084  0.00  0.00    +0.000 C 
ATOM      3  O   UNL     1       3.295   3.299  16.468  0.00  0.00    +0.000 OA
ATOM      4  H   UNL     1       5.125   4.550  18.757  0.00  0.00    +0.000 HD
ENDROOT
BRANCH   1  10
ATOM      5  C   UNL     1       2.513   4.939  19.874  0.00  0.00    +0.000 A 
ATOM      6  C   UNL     1       1.468   4.688  20.792  0.00  0.00    +0.000 A 
ATOM      7  C   UNL     1       1.165   3.397  21.217  0.00  0.00    +0.000 A 
ATOM      8  C   UNL     1       1.916   2.334  20.744  0.00  0.00    +0.000 A 
ATOM      9  C   UNL     1       2.954   2.563  19.839  0.00  0.00    +0.000 A 
ATOM     10  C   UNL     1       3.261   3.851  19.365  0.00  0.00    +0.000 A 
BRANCH   5  11
ATOM     11  C   UNL     1       2.682   6.379  19.515  0.00  0.00    +0.000 C 
ATOM     12  O   UNL     1       2.195   7.287  20.177  0.00  0.00    +0.000 OA
BRANCH  11  14
ATOM     13  C   UNL     1       3.073   7.769  17.692  0.00  0.00    +0.000 C 
ATOM     14  O   UNL     1       3.408   6.561  18.382  0.00  0.00    +0.000 OA
ENDBRANCH  11  14
ENDBRANCH   5  11
ENDBRANCH   1  10
BRANCH   2  15
ATOM     15  C   UNL     1       5.578   3.907  16.306  0.00  0.00    +0.000 C 
BRANCH  15  16
ATOM     16  S   UNL     1       5.786   5.573  15.642  0.00  0.00    +0.000 S 
BRANCH  16  17
ATOM     17  C   UNL     1       6.803   6.312  16.899  0.00  0.00    +0.000 A 
ATOM     18  N   UNL     1       7.105   7.617  16.836  0.00  0.00    +0.000 NA
ATOM     19  C   UNL     1       7.843   8.108  17.847  0.00  0.00    +0.000 A 
ATOM     20  N   UNL     1       8.205   9.453  17.787  0.00  0.00    +0.000 N 
ATOM     21  C   UNL     1       8.291   7.332  18.890  0.00  0.00    +0.000 A 
ATOM     22  C   UNL     1       7.915   6.014  18.847  0.00  0.00    +0.000 A 
ATOM     23  N   UNL     1       7.177   5.480  17.877  0.00  0.00    +0.000 NA
ATOM     24  H   UNL     1       7.753   9.881  16.982  0.00  0.00    +0.000 HD
ATOM     25  H   UNL     1       8.010   9.958  18.644  0.00  0.00    +0.000 HD
BRANCH  22  26
ATOM     26  O   UNL     1       8.279   5.139  19.828  0.00  0.00    +0.000 OA
ATOM     27  H   UNL     1       7.555   5.068  20.468  0.00  0.00    +0.000 HD
ENDBRANCH  22  26
ENDBRANCH  16  17
ENDBRANCH  15  16
ENDBRANCH   2  15
TORSDOF 7
ENDMDL
MODEL 7
REMARK VINA RESULT:      -7.1      2.066      3.476
REMARK  Name = 
REMARK  8 active torsions:
REMARK  status: ('A' for Active; 'I' for Inactive)
REMARK    1  A    between atoms: C_1  and  O_2
REMARK    2  A    between atoms: O_2  and  C_3
REMARK    3  A    between atoms: C_3  and  C_5
REMARK    4  A    between atoms: C_10  and  N_11
REMARK    5  A    between atoms: C_12  and  C_14
REMARK    6  A    between atoms: C_14  and  S_15
REMARK    7  A    between atoms: S_15  and  C_16
REMARK    8  A    between atoms: C_21  and  O_22
REMARK                            x       y       z     vdW  Elec       q    Type
REMARK                         _______ _______ _______ _____ _____    ______ ____
ROOT
ATOM      1  N   UNL     1       3.384   3.569  17.650  0.00  0.00    +0.000 N 
ATOM      2  C   UNL     1       3.972   4.756  17.239  0.00  0.00    +0.000 C 
ATOM      3  O   UNL     1       4.076   5.769  17.932  0.00  0.00    +0.000 OA
ATOM      4  H   UNL     1       3.568   2.739  17.086  0.00  0.00    +0.000 HD
ENDROOT
BRANCH   1  10
ATOM      5  C   UNL     1       3.229   2.859  20.021  0.00  0.00    +0.000 A 
ATOM      6  C   UNL     1       2.434   2.694  21.178  0.00  0.00    +0.000 A 
ATOM      7  C   UNL     1       1.076   3.001  21.178  0.00  0.00    +0.000 A 
ATOM      8  C   UNL     1       0.485   3.462  20.014  0.00  0.00    +0.000 A 
ATOM      9  C   UNL     1       1.254   3.629  18.861  0.00  0.00    +0.000 A 
ATOM     10  C   UNL     1       2.635   3.360  18.840  0.00  0.00    +0.000 A 
BRANCH   5  11
ATOM     11  C   UNL     1       4.668   2.501  20.210  0.00  0.00    +0.000 C 
ATOM     12  O   UNL     1       5.540   2.826  19.414  0.00  0.00    +0.000 OA
BRANCH  11  14
ATOM     13  C   UNL     1       5.510   0.509  21.067  0.00  0.00    +0.000 C 
ATOM     14  O   UNL     1       4.889   1.771  21.334  0.00  0.00    +0.000 OA
ENDBRANCH  11  14
ENDBRANCH   5  11
ENDBRANCH   1  10
BRANCH   2  15
ATOM     15  C   UNL     1       4.654   4.738  15.881  0.00  0.00    +0.000 C 
BRANCH  15  16
ATOM     16  S   UNL     1       6.377   4.196  15.893  0.00  0.00    +0.000 S 
BRANCH  16  17
ATOM     17  C   UNL     1       7.068   5.300  17.104  0.00  0.00    +0.000 A 
ATOM     18  N   UNL     1       7.507   4.818  18.276  0.00  0.00    +0.000 NA
ATOM     19  C   UNL     1       8.056   5.710  19.119  0.00  0.00    +0.000 A 
ATOM     20  N   UNL     1       8.485   5.245  20.361  0.00  0.00    +0.000 N 
ATOM     21  C   UNL     1       8.155   7.051  18.827  0.00  0.00    +0.000 A 
ATOM     22  C   UNL     1       7.676   7.423  17.598  0.00  0.00    +0.000 A 
ATOM     23  N   UNL     1       7.134   6.579  16.721  0.00  0.00    +0.000 NA
ATOM     24  H   UNL     1       8.381   4.233  20.388  0.00  0.00    +0.000 HD
ATOM     25  H   UNL     1       9.428   5.535  20.592  0.00  0.00    +0.000 HD
BRANCH  22  26
ATOM     26  O   UNL     1       7.728   8.719  17.176  0.00  0.00    +0.000 OA
ATOM     27  H   UNL     1       7.974   8.733  16.240  0.00  0.00    +0.000 HD
ENDBRANCH  22  26
ENDBRANCH  16  17
ENDBRANCH  15  16
ENDBRANCH   2  15
TORSDOF 7
ENDMDL
MODEL 8
REMARK VINA RESULT:      -7.1      1.921      3.041
REMARK  Name = 
REMARK  8 active torsions:
REMARK  status: ('A' for Active; 'I' for Inactive)
REMARK    1  A    between atoms: C_1  and  O_2
REMARK    2  A    between atoms: O_2  and  C_3
REMARK    3  A    between atoms: C_3  and  C_5
REMARK    4  A    between atoms: C_10  and  N_11
REMARK    5  A    between atoms: C_12  and  C_14
REMARK    6  A    between atoms: C_14  and  S_15
REMARK    7  A    between atoms: S_15  and  C_16
REMARK    8  A    between atoms: C_21  and  O_22
REMARK                            x       y       z     vdW  Elec       q    Type
REMARK                         _______ _______ _______ _____ _____    ______ ____
ROOT
ATOM      1  N   UNL     1       3.628   3.465  17.393  0.00  0.00    +0.000 N 
ATOM      2  C   UNL     1       4.094   4.680  16.913  0.00  0.00    +0.000 C 
ATOM      3  O   UNL     1       3.974   5.761  17.493  0.00  0.00    +0.000 OA
ATOM      4  H   UNL     1       3.990   2.621  16.950  0.00  0.00    +0.000 HD
ENDROOT
BRANCH   1  10
ATOM      5  C   UNL     1       3.265   2.791  19.752  0.00  0.00    +0.000 A 
ATOM      6  C   UNL     1       2.368   2.634  20.834  0.00  0.00    +0.000 A 
ATOM      7  C   UNL     1       1.013   2.924  20.705  0.00  0.00    +0.000 A 
ATOM      8  C   UNL     1       0.526   3.359  19.484  0.00  0.00    +0.000 A 
ATOM      9  C   UNL     1       1.396   3.518  18.404  0.00  0.00    +0.000 A 
ATOM     10  C   UNL     1       2.775   3.266  18.513  0.00  0.00    +0.000 A 
BRANCH   5  11
ATOM     11  C   UNL     1       4.684   2.453  20.077  0.00  0.00    +0.000 C 
ATOM     12  O   UNL     1       5.584   3.283  20.046  0.00  0.00    +0.000 OA
BRANCH  11  14
ATOM     13  C   UNL     1       5.638   0.948  21.572  0.00  0.00    +0.000 C 
ATOM     14  O   UNL     1       4.858   1.143  20.387  0.00  0.00    +0.000 OA
ENDBRANCH  11  14
ENDBRANCH   5  11
ENDBRANCH   1  10
BRANCH   2  15
ATOM     15  C   UNL     1       4.931   4.630  15.647  0.00  0.00    +0.000 C 
BRANCH  15  16
ATOM     16  S   UNL     1       6.639   4.088  15.875  0.00  0.00    +0.000 S 
BRANCH  16  17
ATOM     17  C   UNL     1       7.222   5.297  17.042  0.00  0.00    +0.000 A 
ATOM     18  N   UNL     1       7.357   6.578  16.669  0.00  0.00    +0.000 NA
ATOM     19  C   UNL     1       7.762   7.437  17.621  0.00  0.00    +0.000 A 
ATOM     20  N   UNL     1       7.948   8.768  17.251  0.00  0.00    +0.000 N 
ATOM     21  C   UNL     1       8.046   7.044  18.908  0.00  0.00    +0.000 A 
ATOM     22  C   UNL     1       7.868   5.711  19.170  0.00  0.00    +0.000 A 
ATOM     23  N   UNL     1       7.458   4.821  18.269  0.00  0.00    +0.000 NA
ATOM     24  H   UNL     1       7.648   8.888  16.286  0.00  0.00    +0.000 HD
ATOM     25  H   UNL     1       7.490   9.423  17.874  0.00  0.00    +0.000 HD
BRANCH  22  26
ATOM     26  O   UNL     1       8.099   5.193  20.411  0.00  0.00    +0.000 OA
ATOM     27  H   UNL     1       7.851   4.257  20.410  0.00  0.00    +0.000 HD
ENDBRANCH  22  26
ENDBRANCH  16  17
ENDBRANCH  15  16
ENDBRANCH   2  15
TORSDOF 7
ENDMDL
MODEL 9
REMARK VINA RESULT:      -7.0      1.933      3.283
REMARK  Name = 
REMARK  8 active torsions:
REMARK  status: ('A' for Active; 'I' for Inactive)
REMARK    1  A    between atoms: C_1  and  O_2
REMARK    2  A    between atoms: O_2  and  C_3
REMARK    3  A    between atoms: C_3  and  C_5
REMARK    4  A    between atoms: C_10  and  N_11
REMARK    5  A    between atoms: C_12  and  C_14
REMARK    6  A    between atoms: C_14  and  S_15
REMARK    7  A    between atoms: S_15  and  C_16
REMARK    8  A    between atoms: C_21  and  O_22
REMARK                            x       y       z     vdW  Elec       q    Type
REMARK                         _______ _______ _______ _____ _____    ______ ____
ROOT
ATOM      1  N   UNL     1       4.364   4.017  18.601  0.00  0.00    +0.000 N 
ATOM      2  C   UNL     1       4.233   3.728  17.250  0.00  0.00    +0.000 C 
ATOM      3  O   UNL     1       3.203   3.317  16.714  0.00  0.00    +0.000 OA
ATOM      4  H   UNL     1       5.175   4.569  18.881  0.00  0.00    +0.000 HD
ENDROOT
BRANCH   1  10
ATOM      5  C   UNL     1       3.597   2.611  20.494  0.00  0.00    +0.000 A 
ATOM      6  C   UNL     1       2.641   2.378  21.509  0.00  0.00    +0.000 A 
ATOM      7  C   UNL     1       1.530   3.203  21.668  0.00  0.00    +0.000 A 
ATOM      8  C   UNL     1       1.347   4.266  20.801  0.00  0.00    +0.000 A 
ATOM      9  C   UNL     1       2.279   4.511  19.792  0.00  0.00    +0.000 A 
ATOM     10  C   UNL     1       3.429   3.716  19.627  0.00  0.00    +0.000 A 
BRANCH   5  11
ATOM     11  C   UNL     1       4.732   1.640  20.486  0.00  0.00    +0.000 C 
ATOM     12  O   UNL     1       5.049   1.002  19.489  0.00  0.00    +0.000 OA
BRANCH  11  14
ATOM     13  C   UNL     1       5.923   0.242  21.913  0.00  0.00    +0.000 C 
ATOM     14  O   UNL     1       5.348   1.534  21.691  0.00  0.00    +0.000 OA
ENDBRANCH  11  14
ENDBRANCH   5  11
ENDBRANCH   1  10
BRANCH   2  15
ATOM     15  C   UNL     1       5.415   4.084  16.365  0.00  0.00    +0.000 C 
BRANCH  15  16
ATOM     16  S   UNL     1       5.489   5.810  15.839  0.00  0.00    +0.000 S 
BRANCH  16  17
ATOM     17  C   UNL     1       6.653   6.470  17.010  0.00  0.00    +0.000 A 
ATOM     18  N   UNL     1       7.050   7.747  16.914  0.00  0.00    +0.000 NA
ATOM     19  C   UNL     1       7.898   8.182  17.863  0.00  0.00    +0.000 A 
ATOM     20  N   UNL     1       8.358   9.494  17.765  0.00  0.00    +0.000 N 
ATOM     21  C   UNL     1       8.361   7.375  18.876  0.00  0.00    +0.000 A 
ATOM     22  C   UNL     1       7.882   6.091  18.872  0.00  0.00    +0.000 A 
ATOM     23  N   UNL     1       7.033   5.613  17.964  0.00  0.00    +0.000 NA
ATOM     24  H   UNL     1       7.881   9.954  16.992  0.00  0.00    +0.000 HD
ATOM     25  H   UNL     1       8.268  10.014  18.630  0.00  0.00    +0.000 HD
BRANCH  22  26
ATOM     26  O   UNL     1       8.249   5.192  19.830  0.00  0.00    +0.000 OA
ATOM     27  H   UNL     1       8.708   5.663  20.541  0.00  0.00    +0.000 HD
ENDBRANCH  22  26
ENDBRANCH  16  17
ENDBRANCH  15  16
ENDBRANCH   2  15
TORSDOF 7
ENDMDL
