MODEL 1
REMARK VINA RESULT:      -7.3      0.000      0.000
REMARK  Name = 
REMARK  3 active torsions:
REMARK  status: ('A' for Active; 'I' for Inactive)
REMARK    1  A    between atoms: C_1  and  C_2
REMARK    2  A    between atoms: C_8  and  N_9
REMARK    3  A    between atoms: C_10  and  C_12
REMARK                            x       y       z     vdW  Elec       q    Type
REMARK                         _______ _______ _______ _____ _____    ______ ____
ROOT
ATOM      1  N   UNL     1       3.052   7.087  18.823  0.00  0.00    +0.000 N 
ATOM      2  C   UNL     1       2.247   8.176  18.507  0.00  0.00    +0.000 C 
ATOM      3  O   UNL     1       2.102   8.672  17.393  0.00  0.00    +0.000 OA
ATOM      4  H   UNL     1       3.193   6.877  19.802  0.00  0.00    +0.000 HD
ENDROOT
BRANCH   2   5
ATOM      5  C   UNL     1       1.485   8.827  19.608  0.00  0.00    +0.000 A 
ATOM      6  C   UNL     1       1.462   8.162  20.861  0.00  0.00    +0.000 A 
ATOM      7  C   UNL     1       0.895   8.758  21.989  0.00  0.00    +0.000 A 
ATOM      8  C   UNL     1       0.365  10.017  21.836  0.00  0.00    +0.000 A 
ATOM      9  C   UNL     1       0.375  10.666  20.621  0.00  0.00    +0.000 A 
ATOM     10  C   UNL     1       0.924  10.104  19.484  0.00  0.00    +0.000 A 
ATOM     11  O   UNL     1      -0.175  11.909  20.701  0.00  0.00    +0.000 OA
ATOM     12  C   UNL     1      -0.538  11.961  22.099  0.00  0.00    +0.000 C 
ATOM     13  O   UNL     1      -0.187  10.766  22.825  0.00  0.00    +0.000 OA
ENDBRANCH   2   5
BRANCH   1  21
ATOM     14  C   UNL     1       2.144   4.309  18.268  0.00  0.00    +0.000 C 
ATOM     15  C   UNL     1       3.332   4.956  17.608  0.00  0.00    +0.000 A 
ATOM     16  C   UNL     1       4.036   4.185  16.652  0.00  0.00    +0.000 A 
ATOM     17  C   UNL     1       5.149   4.699  15.995  0.00  0.00    +0.000 A 
ATOM     18 CL   UNL     1       5.989   3.746  14.837  0.00  0.00    +0.000 Cl
ATOM     19  C   UNL     1       5.578   5.987  16.263  0.00  0.00    +0.000 A 
ATOM     20  C   UNL     1       4.885   6.761  17.197  0.00  0.00    +0.000 A 
ATOM     21  C   UNL     1       3.761   6.273  17.886  0.00  0.00    +0.000 A 
ENDBRANCH   1  21
TORSDOF 2
ENDMDL
MODEL 2
REMARK VINA RESULT:      -7.3      3.797      7.634
REMARK  Name = 
REMARK  3 active torsions:
REMARK  status: ('A' for Active; 'I' for Inactive)
REMARK    1  A    between atoms: C_1  and  C_2
REMARK    2  A    between atoms: C_8  and  N_9
REMARK    3  A    between atoms: C_10  and  C_12
REMARK                            x       y       z     vdW  Elec       q    Type
REMARK                         _______ _______ _______ _____ _____    ______ ____
ROOT
ATOM      1  N   UNL     1       2.184   7.994  19.619  0.00  0.00    +0.000 N 
ATOM      2  C   UNL     1       2.292   6.608  19.645  0.00  0.00    +0.000 C 
ATOM      3  O   UNL     1       1.736   5.851  20.437  0.00  0.00    +0.000 OA
ATOM      4  H   UNL     1       2.811   8.502  19.009  0.00  0.00    +0.000 HD
ENDROOT
BRANCH   2   5
ATOM      5  C   UNL     1       3.168   5.954  18.633  0.00  0.00    +0.000 A 
ATOM      6  C   UNL     1       3.046   4.549  18.483  0.00  0.00    +0.000 A 
ATOM      7  C   UNL     1       3.719   3.866  17.468  0.00  0.00    +0.000 A 
ATOM      8  C   UNL     1       4.500   4.613  16.618  0.00  0.00    +0.000 A 
ATOM      9  C   UNL     1       4.631   5.976  16.763  0.00  0.00    +0.000 A 
ATOM     10  C   UNL     1       3.982   6.683  17.758  0.00  0.00    +0.000 A 
ATOM     11  O   UNL     1       5.427   6.518  15.800  0.00  0.00    +0.000 OA
ATOM     12  C   UNL     1       5.786   5.340  15.043  0.00  0.00    +0.000 C 
ATOM     13  O   UNL     1       5.191   4.130  15.553  0.00  0.00    +0.000 OA
ENDBRANCH   2   5
BRANCH   1  21
ATOM     14  C   UNL     1       0.312   9.934  18.362  0.00  0.00    +0.000 C 
ATOM     15  C   UNL     1       0.409   9.695  19.845  0.00  0.00    +0.000 A 
ATOM     16  C   UNL     1      -0.465  10.435  20.675  0.00  0.00    +0.000 A 
ATOM     17  C   UNL     1      -0.444  10.283  22.058  0.00  0.00    +0.000 A 
ATOM     18 CL   UNL     1      -1.516  11.192  23.048  0.00  0.00    +0.000 Cl
ATOM     19  C   UNL     1       0.436   9.390  22.642  0.00  0.00    +0.000 A 
ATOM     20  C   UNL     1       1.299   8.646  21.832  0.00  0.00    +0.000 A 
ATOM     21  C   UNL     1       1.310   8.778  20.433  0.00  0.00    +0.000 A 
ENDBRANCH   1  21
TORSDOF 2
ENDMDL
MODEL 3
REMARK VINA RESULT:      -7.3      0.819      1.520
REMARK  Name = 
REMARK  3 active torsions:
REMARK  status: ('A' for Active; 'I' for Inactive)
REMARK    1  A    between atoms: C_1  and  C_2
REMARK    2  A    between atoms: C_8  and  N_9
REMARK    3  A    between atoms: C_10  and  C_12
REMARK                            x       y       z     vdW  Elec       q    Type
REMARK                         _______ _______ _______ _____ _____    ______ ____
ROOT
ATOM      1  N   UNL     1       2.854   7.256  18.793  0.00  0.00    +0.000 N 
ATOM      2  C   UNL     1       2.162   8.384  18.366  0.00  0.00    +0.000 C 
ATOM      3  O   UNL     1       2.153   8.844  17.228  0.00  0.00    +0.000 OA
ATOM      4  H   UNL     1       2.891   7.077  19.787  0.00  0.00    +0.000 HD
ENDROOT
BRANCH   2   5
ATOM      5  C   UNL     1       1.353   9.130  19.370  0.00  0.00    +0.000 A 
ATOM      6  C   UNL     1       0.470  10.126  18.879  0.00  0.00    +0.000 A 
ATOM      7  C   UNL     1      -0.429  10.781  19.724  0.00  0.00    +0.000 A 
ATOM      8  C   UNL     1      -0.425  10.416  21.049  0.00  0.00    +0.000 A 
ATOM      9  C   UNL     1       0.435   9.456  21.536  0.00  0.00    +0.000 A 
ATOM     10  C   UNL     1       1.339   8.792  20.729  0.00  0.00    +0.000 A 
ATOM     11  O   UNL     1       0.250   9.231  22.867  0.00  0.00    +0.000 OA
ATOM     12  C   UNL     1      -0.815  10.164  23.158  0.00  0.00    +0.000 C 
ATOM     13  O   UNL     1      -1.254  10.910  22.005  0.00  0.00    +0.000 OA
ENDBRANCH   2   5
BRANCH   1  21
ATOM     14  C   UNL     1       1.904   4.463  18.409  0.00  0.00    +0.000 C 
ATOM     15  C   UNL     1       3.135   5.033  17.756  0.00  0.00    +0.000 A 
ATOM     16  C   UNL     1       3.861   4.177  16.895  0.00  0.00    +0.000 A 
ATOM     17  C   UNL     1       5.014   4.615  16.252  0.00  0.00    +0.000 A 
ATOM     18 CL   UNL     1       5.881   3.559  15.209  0.00  0.00    +0.000 Cl
ATOM     19  C   UNL     1       5.462   5.910  16.440  0.00  0.00    +0.000 A 
ATOM     20  C   UNL     1       4.748   6.768  17.281  0.00  0.00    +0.000 A 
ATOM     21  C   UNL     1       3.583   6.358  17.953  0.00  0.00    +0.000 A 
ENDBRANCH   1  21
TORSDOF 2
ENDMDL
MODEL 4
REMARK VINA RESULT:      -6.9      3.900      7.739
REMARK  Name = 
REMARK  3 active torsions:
REMARK  status: ('A' for Active; 'I' for Inactive)
REMARK    1  A    between atoms: C_1  and  C_2
REMARK    2  A    between atoms: C_8  and  N_9
REMARK    3  A    between atoms: C_10  and  C_12
REMARK                            x       y       z     vdW  Elec       q    Type
REMARK                         _______ _______ _______ _____ _____    ______ ____
ROOT
ATOM      1  N   UNL     1       2.288   7.749  20.109  0.00  0.00    +0.000 N 
ATOM      2  C   UNL     1       2.177   6.365  20.039  0.00  0.00    +0.000 C 
ATOM      3  O   UNL     1       1.336   5.674  20.608  0.00  0.00    +0.000 OA
ATOM      4  H   UNL     1       3.115   8.174  19.711  0.00  0.00    +0.000 HD
ENDROOT
BRANCH   2   5
ATOM      5  C   UNL     1       3.168   5.623  19.210  0.00  0.00    +0.000 A 
ATOM      6  C   UNL     1       2.685   4.993  18.034  0.00  0.00    +0.000 A 
ATOM      7  C   UNL     1       3.556   4.395  17.121  0.00  0.00    +0.000 A 
ATOM      8  C   UNL     1       4.899   4.447  17.407  0.00  0.00    +0.000 A 
ATOM      9  C   UNL     1       5.376   5.049  18.551  0.00  0.00    +0.000 A 
ATOM     10  C   UNL     1       4.542   5.647  19.477  0.00  0.00    +0.000 A 
ATOM     11  O   UNL     1       6.735   5.010  18.621  0.00  0.00    +0.000 OA
ATOM     12  C   UNL     1       7.055   4.310  17.398  0.00  0.00    +0.000 C 
ATOM     13  O   UNL     1       5.893   3.959  16.619  0.00  0.00    +0.000 OA
ENDBRANCH   2   5
BRANCH   1  21
ATOM     14  C   UNL     1       0.662   9.658  18.508  0.00  0.00    +0.000 C 
ATOM     15  C   UNL     1       0.582   9.531  20.005  0.00  0.00    +0.000 A 
ATOM     16  C   UNL     1      -0.343  10.368  20.674  0.00  0.00    +0.000 A 
ATOM     17  C   UNL     1      -0.482  10.323  22.057  0.00  0.00    +0.000 A 
ATOM     18 CL   UNL     1      -1.613  11.347  22.849  0.00  0.00    +0.000 Cl
ATOM     19  C   UNL     1       0.284   9.444  22.802  0.00  0.00    +0.000 A 
ATOM     20  C   UNL     1       1.194   8.606  22.152  0.00  0.00    +0.000 A 
ATOM     21  C   UNL     1       1.367   8.628  20.758  0.00  0.00    +0.000 A 
ENDBRANCH   1  21
TORSDOF 2
ENDMDL
MODEL 5
REMARK VINA RESULT:      -6.9      3.785      7.817
REMARK  Name = 
REMARK  3 active torsions:
REMARK  status: ('A' for Active; 'I' for Inactive)
REMARK    1  A    between atoms: C_1  and  C_2
REMARK    2  A    between atoms: C_8  and  N_9
REMARK    3  A    between atoms: C_10  and  C_12
REMARK                            x       y       z     vdW  Elec       q    Type
REMARK                         _______ _______ _______ _____ _____    ______ ____
ROOT
ATOM      1  N   UNL     1       2.054   8.306  19.451  0.00  0.00    +0.000 N 
ATOM      2  C   UNL     1       2.314   6.940  19.443  0.00  0.00    +0.000 C 
ATOM      3  O   UNL     1       1.927   6.122  20.273  0.00  0.00    +0.000 OA
ATOM      4  H   UNL     1       2.557   8.883  18.791  0.00  0.00    +0.000 HD
ENDROOT
BRANCH   2   5
ATOM      5  C   UNL     1       3.149   6.393  18.337  0.00  0.00    +0.000 A 
ATOM      6  C   UNL     1       3.837   7.328  17.522  0.00  0.00    +0.000 A 
ATOM      7  C   UNL     1       4.752   6.911  16.552  0.00  0.00    +0.000 A 
ATOM      8  C   UNL     1       4.959   5.558  16.425  0.00  0.00    +0.000 A 
ATOM      9  C   UNL     1       4.288   4.643  17.206  0.00  0.00    +0.000 A 
ATOM     10  C   UNL     1       3.375   5.021  18.172  0.00  0.00    +0.000 A 
ATOM     11  O   UNL     1       4.666   3.363  16.933  0.00  0.00    +0.000 OA
ATOM     12  C   UNL     1       5.640   3.580  15.888  0.00  0.00    +0.000 C 
ATOM     13  O   UNL     1       5.838   4.972  15.570  0.00  0.00    +0.000 OA
ENDBRANCH   2   5
BRANCH   1  21
ATOM     14  C   UNL     1      -0.021  10.175  18.427  0.00  0.00    +0.000 C 
ATOM     15  C   UNL     1       0.190   9.867  19.884  0.00  0.00    +0.000 A 
ATOM     16  C   UNL     1      -0.674  10.500  20.809  0.00  0.00    +0.000 A 
ATOM     17  C   UNL     1      -0.550  10.278  22.176  0.00  0.00    +0.000 A 
ATOM     18 CL   UNL     1      -1.611  11.057  23.282  0.00  0.00    +0.000 Cl
ATOM     19  C   UNL     1       0.424   9.418  22.653  0.00  0.00    +0.000 A 
ATOM     20  C   UNL     1       1.277   8.780  21.749  0.00  0.00    +0.000 A 
ATOM     21  C   UNL     1       1.186   8.985  20.362  0.00  0.00    +0.000 A 
ENDBRANCH   1  21
TORSDOF 2
ENDMDL
MODEL 6
REMARK VINA RESULT:      -6.8      5.628      8.568
REMARK  Name = 
REMARK  3 active torsions:
REMARK  status: ('A' for Active; 'I' for Inactive)
REMARK    1  A    between atoms: C_1  and  C_2
REMARK    2  A    between atoms: C_8  and  N_9
REMARK    3  A    between atoms: C_10  and  C_12
REMARK                            x       y       z     vdW  Elec       q    Type
REMARK                         _______ _______ _______ _____ _____    ______ ____
ROOT
ATOM      1  N   UNL     1       4.105   3.463  17.233  0.00  0.00    +0.000 N 
ATOM      2  C   UNL     1       5.160   4.351  17.058  0.00  0.00    +0.000 C 
ATOM      3  O   UNL     1       5.579   5.154  17.888  0.00  0.00    +0.000 OA
ATOM      4  H   UNL     1       3.771   2.965  16.419  0.00  0.00    +0.000 HD
ENDROOT
BRANCH   2   5
ATOM      5  C   UNL     1       5.859   4.358  15.743  0.00  0.00    +0.000 A 
ATOM      6  C   UNL     1       5.238   3.658  14.677  0.00  0.00    +0.000 A 
ATOM      7  C   UNL     1       5.741   3.723  13.375  0.00  0.00    +0.000 A 
ATOM      8  C   UNL     1       6.859   4.496  13.171  0.00  0.00    +0.000 A 
ATOM      9  C   UNL     1       7.474   5.171  14.203  0.00  0.00    +0.000 A 
ATOM     10  C   UNL     1       7.004   5.127  15.502  0.00  0.00    +0.000 A 
ATOM     11  O   UNL     1       8.544   5.896  13.774  0.00  0.00    +0.000 OA
ATOM     12  C   UNL     1       8.536   5.591  12.362  0.00  0.00    +0.000 C 
ATOM     13  O   UNL     1       7.462   4.711  11.973  0.00  0.00    +0.000 OA
ENDBRANCH   2   5
BRANCH   1  21
ATOM     14  C   UNL     1       1.298   4.403  17.529  0.00  0.00    +0.000 C 
ATOM     15  C   UNL     1       2.060   3.672  18.602  0.00  0.00    +0.000 A 
ATOM     16  C   UNL     1       1.376   3.409  19.812  0.00  0.00    +0.000 A 
ATOM     17  C   UNL     1       2.002   2.743  20.860  0.00  0.00    +0.000 A 
ATOM     18 CL   UNL     1       1.152   2.432  22.322  0.00  0.00    +0.000 Cl
ATOM     19  C   UNL     1       3.312   2.317  20.727  0.00  0.00    +0.000 A 
ATOM     20  C   UNL     1       3.995   2.563  19.533  0.00  0.00    +0.000 A 
ATOM     21  C   UNL     1       3.397   3.239  18.455  0.00  0.00    +0.000 A 
ENDBRANCH   1  21
TORSDOF 2
ENDMDL
MODEL 7
REMARK VINA RESULT:      -6.8      1.216      1.752
REMARK  Name = 
REMARK  3 active torsions:
REMARK  status: ('A' for Active; 'I' for Inactive)
REMARK    1  A    between atoms: C_1  and  C_2
REMARK    2  A    between atoms: C_8  and  N_9
REMARK    3  A    between atoms: C_10  and  C_12
REMARK                            x       y       z     vdW  Elec       q    Type
REMARK                         _______ _______ _______ _____ _____    ______ ____
ROOT
ATOM      1  N   UNL     1       2.490   7.345  18.480  0.00  0.00    +0.000 N 
ATOM      2  C   UNL     1       2.232   7.369  19.845  0.00  0.00    +0.000 C 
ATOM      3  O   UNL     1       2.610   6.543  20.671  0.00  0.00    +0.000 OA
ATOM      4  H   UNL     1       1.995   8.005  17.896  0.00  0.00    +0.000 HD
ENDROOT
BRANCH   2   5
ATOM      5  C   UNL     1       1.410   8.490  20.383  0.00  0.00    +0.000 A 
ATOM      6  C   UNL     1       0.804   9.358  19.439  0.00  0.00    +0.000 A 
ATOM      7  C   UNL     1      -0.095  10.349  19.838  0.00  0.00    +0.000 A 
ATOM      8  C   UNL     1      -0.372  10.444  21.181  0.00  0.00    +0.000 A 
ATOM      9  C   UNL     1       0.219   9.610  22.105  0.00  0.00    +0.000 A 
ATOM     10  C   UNL     1       1.115   8.622  21.745  0.00  0.00    +0.000 A 
ATOM     11  O   UNL     1      -0.218   9.859  23.371  0.00  0.00    +0.000 OA
ATOM     12  C   UNL     1      -1.140  10.946  23.136  0.00  0.00    +0.000 C 
ATOM     13  O   UNL     1      -1.249  11.314  21.746  0.00  0.00    +0.000 OA
ENDBRANCH   2   5
BRANCH   1  21
ATOM     14  C   UNL     1       1.631   4.523  18.096  0.00  0.00    +0.000 C 
ATOM     15  C   UNL     1       2.944   5.078  17.613  0.00  0.00    +0.000 A 
ATOM     16  C   UNL     1       3.802   4.191  16.919  0.00  0.00    +0.000 A 
ATOM     17  C   UNL     1       5.037   4.615  16.440  0.00  0.00    +0.000 A 
ATOM     18 CL   UNL     1       6.063   3.522  15.599  0.00  0.00    +0.000 Cl
ATOM     19  C   UNL     1       5.442   5.925  16.630  0.00  0.00    +0.000 A 
ATOM     20  C   UNL     1       4.599   6.812  17.306  0.00  0.00    +0.000 A 
ATOM     21  C   UNL     1       3.348   6.418  17.809  0.00  0.00    +0.000 A 
ENDBRANCH   1  21
TORSDOF 2
ENDMDL
MODEL 8
REMARK VINA RESULT:      -6.8      6.720      9.125
REMARK  Name = 
REMARK  3 active torsions:
REMARK  status: ('A' for Active; 'I' for Inactive)
REMARK    1  A    between atoms: C_1  and  C_2
REMARK    2  A    between atoms: C_8  and  N_9
REMARK    3  A    between atoms: C_10  and  C_12
REMARK                            x       y       z     vdW  Elec       q    Type
REMARK                         _______ _______ _______ _____ _____    ______ ____
ROOT
ATOM      1  N   UNL     1       9.470   9.736  19.103  0.00  0.00    +0.000 N 
ATOM      2  C   UNL     1       8.457   9.441  18.197  0.00  0.00    +0.000 C 
ATOM      3  O   UNL     1       7.899  10.238  17.446  0.00  0.00    +0.000 OA
ATOM      4  H   UNL     1       9.735   9.016  19.761  0.00  0.00    +0.000 HD
ENDROOT
BRANCH   2   5
ATOM      5  C   UNL     1       7.978   8.033  18.116  0.00  0.00    +0.000 A 
ATOM      6  C   UNL     1       8.431   7.137  19.117  0.00  0.00    +0.000 A 
ATOM      7  C   UNL     1       7.930   5.837  19.209  0.00  0.00    +0.000 A 
ATOM      8  C   UNL     1       6.976   5.464  18.291  0.00  0.00    +0.000 A 
ATOM      9  C   UNL     1       6.537   6.326  17.310  0.00  0.00    +0.000 A 
ATOM     10  C   UNL     1       7.015   7.617  17.189  0.00  0.00    +0.000 A 
ATOM     11  O   UNL     1       5.574   5.763  16.529  0.00  0.00    +0.000 OA
ATOM     12  C   UNL     1       5.466   4.452  17.127  0.00  0.00    +0.000 C 
ATOM     13  O   UNL     1       6.347   4.261  18.252  0.00  0.00    +0.000 OA
ENDBRANCH   2   5
BRANCH   1  21
ATOM     14  C   UNL     1       8.990  11.425  21.504  0.00  0.00    +0.000 C 
ATOM     15  C   UNL     1       9.915  11.803  20.378  0.00  0.00    +0.000 A 
ATOM     16  C   UNL     1      10.604  13.033  20.496  0.00  0.00    +0.000 A 
ATOM     17  C   UNL     1      11.475  13.467  19.502  0.00  0.00    +0.000 A 
ATOM     18 CL   UNL     1      12.303  14.964  19.666  0.00  0.00    +0.000 Cl
ATOM     19  C   UNL     1      11.687  12.687  18.379  0.00  0.00    +0.000 A 
ATOM     20  C   UNL     1      11.020  11.465  18.256  0.00  0.00    +0.000 A 
ATOM     21  C   UNL     1      10.128  10.998  19.236  0.00  0.00    +0.000 A 
ENDBRANCH   1  21
TORSDOF 2
ENDMDL
MODEL 9
REMARK VINA RESULT:      -6.6      4.082      7.252
REMARK  Name = 
REMARK  3 active torsions:
REMARK  status: ('A' for Active; 'I' for Inactive)
REMARK    1  A    between atoms: C_1  and  C_2
REMARK    2  A    between atoms: C_8  and  N_9
REMARK    3  A    between atoms: C_10  and  C_12
REMARK                            x       y       z     vdW  Elec       q    Type
REMARK                         _______ _______ _______ _____ _____    ______ ____
ROOT
ATOM      1  N   UNL     1       1.177   9.658  19.314  0.00  0.00    +0.000 N 
ATOM      2  C   UNL     1       1.902   8.882  18.416  0.00  0.00    +0.000 C 
ATOM      3  O   UNL     1       2.238   9.208  17.281  0.00  0.00    +0.000 OA
ATOM      4  H   UNL     1       0.843   9.211  20.157  0.00  0.00    +0.000 HD
ENDROOT
BRANCH   2   5
ATOM      5  C   UNL     1       2.314   7.516  18.845  0.00  0.00    +0.000 A 
ATOM      6  C   UNL     1       1.841   7.063  20.103  0.00  0.00    +0.000 A 
ATOM      7  C   UNL     1       2.055   5.750  20.529  0.00  0.00    +0.000 A 
ATOM      8  C   UNL     1       2.739   4.916  19.677  0.00  0.00    +0.000 A 
ATOM      9  C   UNL     1       3.210   5.351  18.457  0.00  0.00    +0.000 A 
ATOM     10  C   UNL     1       3.018   6.644  18.006  0.00  0.00    +0.000 A 
ATOM     11  O   UNL     1       3.831   4.356  17.765  0.00  0.00    +0.000 OA
ATOM     12  C   UNL     1       3.705   3.255  18.691  0.00  0.00    +0.000 C 
ATOM     13  O   UNL     1       3.003   3.603  19.901  0.00  0.00    +0.000 OA
ENDBRANCH   2   5
BRANCH   1  21
ATOM     14  C   UNL     1      -1.504  10.322  18.210  0.00  0.00    +0.000 C 
ATOM     15  C   UNL     1      -0.477  11.349  18.606  0.00  0.00    +0.000 A 
ATOM     16  C   UNL     1      -0.835  12.709  18.453  0.00  0.00    +0.000 A 
ATOM     17  C   UNL     1       0.052  13.727  18.789  0.00  0.00    +0.000 A 
ATOM     18 CL   UNL     1      -0.403  15.373  18.597  0.00  0.00    +0.000 Cl
ATOM     19  C   UNL     1       1.304  13.417  19.290  0.00  0.00    +0.000 A 
ATOM     20  C   UNL     1       1.665  12.077  19.454  0.00  0.00    +0.000 A 
ATOM     21  C   UNL     1       0.798  11.023  19.120  0.00  0.00    +0.000 A 
ENDBRANCH   1  21
TORSDOF 2
ENDMDL
