MODEL 1
REMARK VINA RESULT:      -7.4      0.000      0.000
REMARK  Name = 
REMARK  5 active torsions:
REMARK  status: ('A' for Active; 'I' for Inactive)
REMARK    1  A    between atoms: C_2  and  C_17
REMARK    2  A    between atoms: N_3  and  C_4
REMARK    3  A    between atoms: C_4  and  C_5
REMARK    4  A    between atoms: C_5  and  C_6
REMARK    5  A    between atoms: C_5  and  N_11
REMARK                            x       y       z     vdW  Elec       q    Type
REMARK                         _______ _______ _______ _____ _____    ______ ____
ROOT
ATOM      1  C   UNL     1       3.237   7.186  17.669  0.00  0.00    +0.000 C 
ENDROOT
BRANCH   1   4
ATOM      2  O   UNL     1       1.858   9.594  17.527  0.00  0.00    +0.000 OA
ATOM      3  C   UNL     1       1.772   8.938  18.562  0.00  0.00    +0.000 C 
ATOM      4  N   UNL     1       2.418   7.726  18.742  0.00  0.00    +0.000 N 
ATOM      5  H   UNL     1       2.464   7.303  19.661  0.00  0.00    +0.000 HD
BRANCH   3   6
ATOM      6  C   UNL     1       0.974   9.452  19.703  0.00  0.00    +0.000 A 
ATOM      7  C   UNL     1       0.264  10.656  19.629  0.00  0.00    +0.000 A 
ATOM      8  C   UNL     1      -0.471  11.105  20.732  0.00  0.00    +0.000 A 
ATOM      9  C   UNL     1      -0.485  10.357  21.911  0.00  0.00    +0.000 A 
ATOM     10 CL   UNL     1      -1.392  10.917  23.260  0.00  0.00    +0.000 Cl
ATOM     11  C   UNL     1       0.236   9.168  22.003  0.00  0.00    +0.000 A 
ATOM     12  C   UNL     1       0.969   8.719  20.901  0.00  0.00    +0.000 A 
ENDBRANCH   3   6
ENDBRANCH   1   4
BRANCH   1  13
ATOM     13  C   UNL     1       3.949   5.821  17.963  0.00  0.00    +0.000 C 
BRANCH  13  14
ATOM     14  N   UNL     1       4.737   5.363  16.772  0.00  0.00    +0.000 NA
ATOM     15  C   UNL     1       5.661   4.228  17.031  0.00  0.00    +0.000 C 
ATOM     16  C   UNL     1       6.910   4.593  17.856  0.00  0.00    +0.000 C 
ATOM     17  O   UNL     1       7.643   5.677  17.273  0.00  0.00    +0.000 OA
ATOM     18  C   UNL     1       6.803   6.812  17.039  0.00  0.00    +0.000 C 
ATOM     19  C   UNL     1       5.590   6.428  16.174  0.00  0.00    +0.000 C 
ENDBRANCH  13  14
BRANCH  13  20
ATOM     20  C   UNL     1       2.906   4.780  18.411  0.00  0.00    +0.000 A 
ATOM     21  C   UNL     1       1.885   4.169  17.696  0.00  0.00    +0.000 A 
ATOM     22  C   UNL     1       1.177   3.192  18.459  0.00  0.00    +0.000 A 
ATOM     23  C   UNL     1       1.663   3.089  19.742  0.00  0.00    +0.000 A 
ATOM     24  S   UNL     1       2.860   4.263  20.062  0.00  0.00    +0.000 S 
ENDBRANCH  13  20
ENDBRANCH   1  13
TORSDOF 5
ENDMDL
MODEL 2
REMARK VINA RESULT:      -7.4      0.142      1.020
REMARK  Name = 
REMARK  5 active torsions:
REMARK  status: ('A' for Active; 'I' for Inactive)
REMARK    1  A    between atoms: C_2  and  C_17
REMARK    2  A    between atoms: N_3  and  C_4
REMARK    3  A    between atoms: C_4  and  C_5
REMARK    4  A    between atoms: C_5  and  C_6
REMARK    5  A    between atoms: C_5  and  N_11
REMARK                            x       y       z     vdW  Elec       q    Type
REMARK                         _______ _______ _______ _____ _____    ______ ____
ROOT
ATOM      1  C   UNL     1       3.189   7.161  17.699  0.00  0.00    +0.000 C 
ENDROOT
BRANCH   1   4
ATOM      2  O   UNL     1       1.762   9.543  17.584  0.00  0.00    +0.000 OA
ATOM      3  C   UNL     1       1.728   8.897  18.629  0.00  0.00    +0.000 C 
ATOM      4  N   UNL     1       2.401   7.699  18.797  0.00  0.00    +0.000 N 
ATOM      5  H   UNL     1       2.490   7.287  19.718  0.00  0.00    +0.000 HD
BRANCH   3   6
ATOM      6  C   UNL     1       0.964   9.410  19.793  0.00  0.00    +0.000 A 
ATOM      7  C   UNL     1       0.935   8.734  21.019  0.00  0.00    +0.000 A 
ATOM      8  C   UNL     1       0.196   9.254  22.088  0.00  0.00    +0.000 A 
ATOM      9  C   UNL     1      -0.522  10.441  21.927  0.00  0.00    +0.000 A 
ATOM     10 CL   UNL     1      -1.425  11.071  23.248  0.00  0.00    +0.000 Cl
ATOM     11  C   UNL     1      -0.517  11.111  20.706  0.00  0.00    +0.000 A 
ATOM     12  C   UNL     1       0.221  10.593  19.638  0.00  0.00    +0.000 A 
ENDBRANCH   3   6
ENDBRANCH   1   4
BRANCH   1  13
ATOM     13  C   UNL     1       3.938   5.813  17.982  0.00  0.00    +0.000 C 
BRANCH  13  14
ATOM     14  N   UNL     1       4.755   5.398  16.795  0.00  0.00    +0.000 NA
ATOM     15  C   UNL     1       5.718   4.296  17.052  0.00  0.00    +0.000 C 
ATOM     16  C   UNL     1       6.944   4.697  17.895  0.00  0.00    +0.000 C 
ATOM     17  O   UNL     1       7.642   5.815  17.331  0.00  0.00    +0.000 OA
ATOM     18  C   UNL     1       6.763   6.920  17.100  0.00  0.00    +0.000 C 
ATOM     19  C   UNL     1       5.574   6.500  16.217  0.00  0.00    +0.000 C 
ENDBRANCH  13  14
BRANCH  13  20
ATOM     20  C   UNL     1       2.921   4.734  18.401  0.00  0.00    +0.000 A 
ATOM     21  C   UNL     1       1.784   4.274  17.751  0.00  0.00    +0.000 A 
ATOM     22  C   UNL     1       1.145   3.198  18.437  0.00  0.00    +0.000 A 
ATOM     23  C   UNL     1       1.800   2.870  19.602  0.00  0.00    +0.000 A 
ATOM     24  S   UNL     1       3.083   3.947  19.932  0.00  0.00    +0.000 S 
ENDBRANCH  13  20
ENDBRANCH   1  13
TORSDOF 5
ENDMDL
MODEL 3
REMARK VINA RESULT:      -7.2      2.461      4.231
REMARK  Name = 
REMARK  5 active torsions:
REMARK  status: ('A' for Active; 'I' for Inactive)
REMARK    1  A    between atoms: C_2  and  C_17
REMARK    2  A    between atoms: N_3  and  C_4
REMARK    3  A    between atoms: C_4  and  C_5
REMARK    4  A    between atoms: C_5  and  C_6
REMARK    5  A    between atoms: C_5  and  N_11
REMARK                            x       y       z     vdW  Elec       q    Type
REMARK                         _______ _______ _______ _____ _____    ______ ____
ROOT
ATOM      1  C   UNL     1       4.079   5.360  19.594  0.00  0.00    +0.000 C 
ENDROOT
BRANCH   1   4
ATOM      2  O   UNL     1       3.548   7.423  17.812  0.00  0.00    +0.000 OA
ATOM      3  C   UNL     1       2.864   7.347  18.830  0.00  0.00    +0.000 C 
ATOM      4  N   UNL     1       3.043   6.362  19.786  0.00  0.00    +0.000 N 
ATOM      5  H   UNL     1       2.581   6.431  20.685  0.00  0.00    +0.000 HD
BRANCH   3   6
ATOM      6  C   UNL     1       1.811   8.359  19.093  0.00  0.00    +0.000 A 
ATOM      7  C   UNL     1       1.277   8.560  20.372  0.00  0.00    +0.000 A 
ATOM      8  C   UNL     1       0.281   9.522  20.572  0.00  0.00    +0.000 A 
ATOM      9  C   UNL     1      -0.191  10.272  19.493  0.00  0.00    +0.000 A 
ATOM     10 CL   UNL     1      -1.414  11.452  19.750  0.00  0.00    +0.000 Cl
ATOM     11  C   UNL     1       0.317  10.065  18.212  0.00  0.00    +0.000 A 
ATOM     12  C   UNL     1       1.314   9.105  18.012  0.00  0.00    +0.000 A 
ENDBRANCH   3   6
ENDBRANCH   1   4
BRANCH   1  13
ATOM     13  C   UNL     1       3.778   4.249  18.529  0.00  0.00    +0.000 C 
BRANCH  13  14
ATOM     14  N   UNL     1       3.608   2.912  19.186  0.00  0.00    +0.000 NA
ATOM     15  C   UNL     1       2.727   1.963  18.458  0.00  0.00    +0.000 C 
ATOM     16  C   UNL     1       1.225   2.307  18.517  0.00  0.00    +0.000 C 
ATOM     17  O   UNL     1       0.759   2.448  19.865  0.00  0.00    +0.000 OA
ATOM     18  C   UNL     1       1.554   3.383  20.600  0.00  0.00    +0.000 C 
ATOM     19  C   UNL     1       3.041   2.989  20.562  0.00  0.00    +0.000 C 
ENDBRANCH  13  14
BRANCH  13  20
ATOM     20  C   UNL     1       4.888   4.242  17.461  0.00  0.00    +0.000 A 
ATOM     21  C   UNL     1       4.850   3.842  16.132  0.00  0.00    +0.000 A 
ATOM     22  C   UNL     1       6.082   4.066  15.447  0.00  0.00    +0.000 A 
ATOM     23  C   UNL     1       7.036   4.617  16.271  0.00  0.00    +0.000 A 
ATOM     24  S   UNL     1       6.494   4.724  17.886  0.00  0.00    +0.000 S 
ENDBRANCH  13  20
ENDBRANCH   1  13
TORSDOF 5
ENDMDL
MODEL 4
REMARK VINA RESULT:      -7.2      0.902      1.492
REMARK  Name = 
REMARK  5 active torsions:
REMARK  status: ('A' for Active; 'I' for Inactive)
REMARK    1  A    between atoms: C_2  and  C_17
REMARK    2  A    between atoms: N_3  and  C_4
REMARK    3  A    between atoms: C_4  and  C_5
REMARK    4  A    between atoms: C_5  and  C_6
REMARK    5  A    between atoms: C_5  and  N_11
REMARK                            x       y       z     vdW  Elec       q    Type
REMARK                         _______ _______ _______ _____ _____    ______ ____
ROOT
ATOM      1  C   UNL     1       2.905   7.189  18.170  0.00  0.00    +0.000 C 
ENDROOT
BRANCH   1   4
ATOM      2  O   UNL     1       1.490   9.551  17.799  0.00  0.00    +0.000 OA
ATOM      3  C   UNL     1       1.452   9.021  18.907  0.00  0.00    +0.000 C 
ATOM      4  N   UNL     1       2.120   7.845  19.204  0.00  0.00    +0.000 N 
ATOM      5  H   UNL     1       2.206   7.533  20.164  0.00  0.00    +0.000 HD
BRANCH   3   6
ATOM      6  C   UNL     1       0.690   9.660  20.009  0.00  0.00    +0.000 A 
ATOM      7  C   UNL     1       0.777   9.208  21.331  0.00  0.00    +0.000 A 
ATOM      8  C   UNL     1       0.036   9.838  22.337  0.00  0.00    +0.000 A 
ATOM      9  C   UNL     1      -0.801  10.910  22.019  0.00  0.00    +0.000 A 
ATOM     10 CL   UNL     1      -1.706  11.679  23.262  0.00  0.00    +0.000 Cl
ATOM     11  C   UNL     1      -0.912  11.355  20.702  0.00  0.00    +0.000 A 
ATOM     12  C   UNL     1      -0.171  10.726  19.697  0.00  0.00    +0.000 A 
ENDBRANCH   3   6
ENDBRANCH   1   4
BRANCH   1  13
ATOM     13  C   UNL     1       3.680   5.898  18.607  0.00  0.00    +0.000 C 
BRANCH  13  14
ATOM     14  N   UNL     1       4.392   5.283  17.440  0.00  0.00    +0.000 NA
ATOM     15  C   UNL     1       5.466   4.320  17.796  0.00  0.00    +0.000 C 
ATOM     16  C   UNL     1       6.741   4.966  18.374  0.00  0.00    +0.000 C 
ATOM     17  O   UNL     1       7.275   5.972  17.506  0.00  0.00    +0.000 OA
ATOM     18  C   UNL     1       6.286   6.948  17.162  0.00  0.00    +0.000 C 
ATOM     19  C   UNL     1       5.046   6.278  16.545  0.00  0.00    +0.000 C 
ENDBRANCH  13  14
BRANCH  13  20
ATOM     20  C   UNL     1       2.708   4.915  19.286  0.00  0.00    +0.000 A 
ATOM     21  C   UNL     1       2.510   4.634  20.631  0.00  0.00    +0.000 A 
ATOM     22  C   UNL     1       1.449   3.707  20.857  0.00  0.00    +0.000 A 
ATOM     23  C   UNL     1       0.870   3.290  19.681  0.00  0.00    +0.000 A 
ATOM     24  S   UNL     1       1.697   3.898  18.317  0.00  0.00    +0.000 S 
ENDBRANCH  13  20
ENDBRANCH   1  13
TORSDOF 5
ENDMDL
MODEL 5
REMARK VINA RESULT:      -7.1      2.388      4.058
REMARK  Name = 
REMARK  5 active torsions:
REMARK  status: ('A' for Active; 'I' for Inactive)
REMARK    1  A    between atoms: C_2  and  C_17
REMARK    2  A    between atoms: N_3  and  C_4
REMARK    3  A    between atoms: C_4  and  C_5
REMARK    4  A    between atoms: C_5  and  C_6
REMARK    5  A    between atoms: C_5  and  N_11
REMARK                            x       y       z     vdW  Elec       q    Type
REMARK                         _______ _______ _______ _____ _____    ______ ____
ROOT
ATOM      1  C   UNL     1       3.873   5.766  19.590  0.00  0.00    +0.000 C 
ENDROOT
BRANCH   1   4
ATOM      2  O   UNL     1       3.327   7.792  17.769  0.00  0.00    +0.000 OA
ATOM      3  C   UNL     1       2.617   7.705  18.768  0.00  0.00    +0.000 C 
ATOM      4  N   UNL     1       2.800   6.736  19.740  0.00  0.00    +0.000 N 
ATOM      5  H   UNL     1       2.312   6.800  20.625  0.00  0.00    +0.000 HD
BRANCH   3   6
ATOM      6  C   UNL     1       1.525   8.685  18.990  0.00  0.00    +0.000 A 
ATOM      7  C   UNL     1       0.964   9.422  17.941  0.00  0.00    +0.000 A 
ATOM      8  C   UNL     1      -0.060  10.340  18.199  0.00  0.00    +0.000 A 
ATOM      9  C   UNL     1      -0.514  10.529  19.505  0.00  0.00    +0.000 A 
ATOM     10 CL   UNL     1      -1.775  11.657  19.811  0.00  0.00    +0.000 Cl
ATOM     11  C   UNL     1       0.052   9.816  20.561  0.00  0.00    +0.000 A 
ATOM     12  C   UNL     1       1.074   8.898  20.304  0.00  0.00    +0.000 A 
ENDBRANCH   3   6
ENDBRANCH   1   4
BRANCH   1  13
ATOM     13  C   UNL     1       3.565   4.533  18.671  0.00  0.00    +0.000 C 
BRANCH  13  14
ATOM     14  N   UNL     1       3.395   3.288  19.490  0.00  0.00    +0.000 NA
ATOM     15  C   UNL     1       2.758   2.150  18.777  0.00  0.00    +0.000 C 
ATOM     16  C   UNL     1       1.248   2.319  18.519  0.00  0.00    +0.000 C 
ATOM     17  O   UNL     1       0.523   2.588  19.726  0.00  0.00    +0.000 OA
ATOM     18  C   UNL     1       1.076   3.703  20.432  0.00  0.00    +0.000 C 
ATOM     19  C   UNL     1       2.573   3.485  20.717  0.00  0.00    +0.000 C 
ENDBRANCH  13  14
BRANCH  13  20
ATOM     20  C   UNL     1       4.670   4.390  17.608  0.00  0.00    +0.000 A 
ATOM     21  C   UNL     1       4.588   4.010  16.275  0.00  0.00    +0.000 A 
ATOM     22  C   UNL     1       5.842   4.078  15.598  0.00  0.00    +0.000 A 
ATOM     23  C   UNL     1       6.855   4.493  16.431  0.00  0.00    +0.000 A 
ATOM     24  S   UNL     1       6.323   4.655  18.044  0.00  0.00    +0.000 S 
ENDBRANCH  13  20
ENDBRANCH   1  13
TORSDOF 5
ENDMDL
MODEL 6
REMARK VINA RESULT:      -7.1      2.054      3.589
REMARK  Name = 
REMARK  5 active torsions:
REMARK  status: ('A' for Active; 'I' for Inactive)
REMARK    1  A    between atoms: C_2  and  C_17
REMARK    2  A    between atoms: N_3  and  C_4
REMARK    3  A    between atoms: C_4  and  C_5
REMARK    4  A    between atoms: C_5  and  C_6
REMARK    5  A    between atoms: C_5  and  N_11
REMARK                            x       y       z     vdW  Elec       q    Type
REMARK                         _______ _______ _______ _____ _____    ______ ____
ROOT
ATOM      1  C   UNL     1       3.329   6.735  17.714  0.00  0.00    +0.000 C 
ENDROOT
BRANCH   1   4
ATOM      2  O   UNL     1       2.052   9.195  17.519  0.00  0.00    +0.000 OA
ATOM      3  C   UNL     1       1.928   8.560  18.564  0.00  0.00    +0.000 C 
ATOM      4  N   UNL     1       2.522   7.326  18.770  0.00  0.00    +0.000 N 
ATOM      5  H   UNL     1       2.540   6.915  19.696  0.00  0.00    +0.000 HD
BRANCH   3   6
ATOM      6  C   UNL     1       1.140   9.125  19.687  0.00  0.00    +0.000 A 
ATOM      7  C   UNL     1       0.317  10.246  19.526  0.00  0.00    +0.000 A 
ATOM      8  C   UNL     1      -0.403  10.748  20.616  0.00  0.00    +0.000 A 
ATOM      9  C   UNL     1      -0.291  10.137  21.867  0.00  0.00    +0.000 A 
ATOM     10 CL   UNL     1      -1.182  10.761  23.199  0.00  0.00    +0.000 Cl
ATOM     11  C   UNL     1       0.543   9.034  22.044  0.00  0.00    +0.000 A 
ATOM     12  C   UNL     1       1.262   8.532  20.955  0.00  0.00    +0.000 A 
ENDBRANCH   3   6
ENDBRANCH   1   4
BRANCH   1  13
ATOM     13  C   UNL     1       3.785   5.252  17.942  0.00  0.00    +0.000 C 
BRANCH  13  14
ATOM     14  N   UNL     1       3.182   4.695  19.196  0.00  0.00    +0.000 NA
ATOM     15  C   UNL     1       3.865   3.493  19.741  0.00  0.00    +0.000 C 
ATOM     16  C   UNL     1       3.640   2.203  18.928  0.00  0.00    +0.000 C 
ATOM     17  O   UNL     1       2.247   1.917  18.748  0.00  0.00    +0.000 OA
ATOM     18  C   UNL     1       1.549   3.033  18.189  0.00  0.00    +0.000 C 
ATOM     19  C   UNL     1       1.754   4.294  19.047  0.00  0.00    +0.000 C 
ENDBRANCH  13  14
BRANCH  13  20
ATOM     20  C   UNL     1       5.324   5.180  17.949  0.00  0.00    +0.000 A 
ATOM     21  C   UNL     1       6.244   5.749  18.819  0.00  0.00    +0.000 A 
ATOM     22  C   UNL     1       7.591   5.377  18.528  0.00  0.00    +0.000 A 
ATOM     23  C   UNL     1       7.670   4.546  17.435  0.00  0.00    +0.000 A 
ATOM     24  S   UNL     1       6.152   4.339  16.684  0.00  0.00    +0.000 S 
ENDBRANCH  13  20
ENDBRANCH   1  13
TORSDOF 5
ENDMDL
MODEL 7
REMARK VINA RESULT:      -7.1      2.046      3.719
REMARK  Name = 
REMARK  5 active torsions:
REMARK  status: ('A' for Active; 'I' for Inactive)
REMARK    1  A    between atoms: C_2  and  C_17
REMARK    2  A    between atoms: N_3  and  C_4
REMARK    3  A    between atoms: C_4  and  C_5
REMARK    4  A    between atoms: C_5  and  C_6
REMARK    5  A    between atoms: C_5  and  N_11
REMARK                            x       y       z     vdW  Elec       q    Type
REMARK                         _______ _______ _______ _____ _____    ______ ____
ROOT
ATOM      1  C   UNL     1       3.346   6.778  17.740  0.00  0.00    +0.000 C 
ENDROOT
BRANCH   1   4
ATOM      2  O   UNL     1       1.962   9.180  17.558  0.00  0.00    +0.000 OA
ATOM      3  C   UNL     1       1.912   8.562  18.619  0.00  0.00    +0.000 C 
ATOM      4  N   UNL     1       2.564   7.357  18.821  0.00  0.00    +0.000 N 
ATOM      5  H   UNL     1       2.642   6.967  19.752  0.00  0.00    +0.000 HD
BRANCH   3   6
ATOM      6  C   UNL     1       1.154   9.119  19.767  0.00  0.00    +0.000 A 
ATOM      7  C   UNL     1       1.193   8.532  21.037  0.00  0.00    +0.000 A 
ATOM      8  C   UNL     1       0.456   9.088  22.089  0.00  0.00    +0.000 A 
ATOM      9  C   UNL     1      -0.326  10.223  21.867  0.00  0.00    +0.000 A 
ATOM     10 CL   UNL     1      -1.226  10.901  23.166  0.00  0.00    +0.000 Cl
ATOM     11  C   UNL     1      -0.389  10.804  20.601  0.00  0.00    +0.000 A 
ATOM     12  C   UNL     1       0.347  10.248  19.551  0.00  0.00    +0.000 A 
ENDBRANCH   3   6
ENDBRANCH   1   4
BRANCH   1  13
ATOM     13  C   UNL     1       3.786   5.284  17.929  0.00  0.00    +0.000 C 
BRANCH  13  14
ATOM     14  N   UNL     1       3.186   4.707  19.176  0.00  0.00    +0.000 NA
ATOM     15  C   UNL     1       3.869   3.494  19.696  0.00  0.00    +0.000 C 
ATOM     16  C   UNL     1       3.637   2.219  18.862  0.00  0.00    +0.000 C 
ATOM     17  O   UNL     1       2.243   1.939  18.684  0.00  0.00    +0.000 OA
ATOM     18  C   UNL     1       1.545   3.067  18.147  0.00  0.00    +0.000 C 
ATOM     19  C   UNL     1       1.757   4.312  19.027  0.00  0.00    +0.000 C 
ENDBRANCH  13  14
BRANCH  13  20
ATOM     20  C   UNL     1       5.324   5.193  17.921  0.00  0.00    +0.000 A 
ATOM     21  C   UNL     1       6.258   5.736  18.792  0.00  0.00    +0.000 A 
ATOM     22  C   UNL     1       7.598   5.353  18.482  0.00  0.00    +0.000 A 
ATOM     23  C   UNL     1       7.657   4.539  17.374  0.00  0.00    +0.000 A 
ATOM     24  S   UNL     1       6.129   4.363  16.635  0.00  0.00    +0.000 S 
ENDBRANCH  13  20
ENDBRANCH   1  13
TORSDOF 5
ENDMDL
MODEL 8
REMARK VINA RESULT:      -7.0      2.817      4.377
REMARK  Name = 
REMARK  5 active torsions:
REMARK  status: ('A' for Active; 'I' for Inactive)
REMARK    1  A    between atoms: C_2  and  C_17
REMARK    2  A    between atoms: N_3  and  C_4
REMARK    3  A    between atoms: C_4  and  C_5
REMARK    4  A    between atoms: C_5  and  C_6
REMARK    5  A    between atoms: C_5  and  N_11
REMARK                            x       y       z     vdW  Elec       q    Type
REMARK                         _______ _______ _______ _____ _____    ______ ____
ROOT
ATOM      1  C   UNL     1       4.343   5.251  19.553  0.00  0.00    +0.000 C 
ENDROOT
BRANCH   1   4
ATOM      2  O   UNL     1       1.858   5.933  20.590  0.00  0.00    +0.000 OA
ATOM      3  C   UNL     1       2.449   6.767  19.908  0.00  0.00    +0.000 C 
ATOM      4  N   UNL     1       3.691   6.533  19.341  0.00  0.00    +0.000 N 
ATOM      5  H   UNL     1       4.066   7.171  18.649  0.00  0.00    +0.000 HD
BRANCH   3   6
ATOM      6  C   UNL     1       1.820   8.082  19.633  0.00  0.00    +0.000 A 
ATOM      7  C   UNL     1       1.078   8.768  20.603  0.00  0.00    +0.000 A 
ATOM      8  C   UNL     1       0.498  10.004  20.297  0.00  0.00    +0.000 A 
ATOM      9  C   UNL     1       0.649  10.547  19.019  0.00  0.00    +0.000 A 
ATOM     10 CL   UNL     1      -0.067  12.067  18.654  0.00  0.00    +0.000 Cl
ATOM     11  C   UNL     1       1.366   9.864  18.040  0.00  0.00    +0.000 A 
ATOM     12  C   UNL     1       1.947   8.630  18.345  0.00  0.00    +0.000 A 
ENDBRANCH   3   6
ENDBRANCH   1   4
BRANCH   1  13
ATOM     13  C   UNL     1       4.104   4.163  18.449  0.00  0.00    +0.000 C 
BRANCH  13  14
ATOM     14  N   UNL     1       4.152   2.785  19.039  0.00  0.00    +0.000 NA
ATOM     15  C   UNL     1       3.540   1.723  18.200  0.00  0.00    +0.000 C 
ATOM     16  C   UNL     1       2.001   1.761  18.137  0.00  0.00    +0.000 C 
ATOM     17  O   UNL     1       1.407   1.737  19.441  0.00  0.00    +0.000 OA
ATOM     18  C   UNL     1       1.937   2.769  20.278  0.00  0.00    +0.000 C 
ATOM     19  C   UNL     1       3.471   2.676  20.360  0.00  0.00    +0.000 C 
ENDBRANCH  13  14
BRANCH  13  20
ATOM     20  C   UNL     1       5.124   4.349  17.309  0.00  0.00    +0.000 A 
ATOM     21  C   UNL     1       4.963   4.231  15.935  0.00  0.00    +0.000 A 
ATOM     22  C   UNL     1       6.144   4.563  15.206  0.00  0.00    +0.000 A 
ATOM     23  C   UNL     1       7.183   4.911  16.038  0.00  0.00    +0.000 A 
ATOM     24  S   UNL     1       6.777   4.696  17.682  0.00  0.00    +0.000 S 
ENDBRANCH  13  20
ENDBRANCH   1  13
TORSDOF 5
ENDMDL
MODEL 9
REMARK VINA RESULT:      -6.9      2.086      3.421
REMARK  Name = 
REMARK  5 active torsions:
REMARK  status: ('A' for Active; 'I' for Inactive)
REMARK    1  A    between atoms: C_2  and  C_17
REMARK    2  A    between atoms: N_3  and  C_4
REMARK    3  A    between atoms: C_4  and  C_5
REMARK    4  A    between atoms: C_5  and  C_6
REMARK    5  A    between atoms: C_5  and  N_11
REMARK                            x       y       z     vdW  Elec       q    Type
REMARK                         _______ _______ _______ _____ _____    ______ ____
ROOT
ATOM      1  C   UNL     1       3.459   6.951  17.766  0.00  0.00    +0.000 C 
ENDROOT
BRANCH   1   4
ATOM      2  O   UNL     1       1.955   9.269  17.481  0.00  0.00    +0.000 OA
ATOM      3  C   UNL     1       1.918   8.685  18.562  0.00  0.00    +0.000 C 
ATOM      4  N   UNL     1       2.629   7.523  18.814  0.00  0.00    +0.000 N 
ATOM      5  H   UNL     1       2.711   7.169  19.759  0.00  0.00    +0.000 HD
BRANCH   3   6
ATOM      6  C   UNL     1       1.112   9.237  19.677  0.00  0.00    +0.000 A 
ATOM      7  C   UNL     1       0.385  10.427  19.550  0.00  0.00    +0.000 A 
ATOM      8  C   UNL     1      -0.357  10.914  20.632  0.00  0.00    +0.000 A 
ATOM      9  C   UNL     1      -0.363  10.218  21.842  0.00  0.00    +0.000 A 
ATOM     10 CL   UNL     1      -1.280  10.824  23.165  0.00  0.00    +0.000 Cl
ATOM     11  C   UNL     1       0.374   9.044  21.988  0.00  0.00    +0.000 A 
ATOM     12  C   UNL     1       1.115   8.557  20.907  0.00  0.00    +0.000 A 
ENDBRANCH   3   6
ENDBRANCH   1   4
BRANCH   1  13
ATOM     13  C   UNL     1       3.700   5.403  17.844  0.00  0.00    +0.000 C 
BRANCH  13  14
ATOM     14  N   UNL     1       3.970   4.976  19.256  0.00  0.00    +0.000 NA
ATOM     15  C   UNL     1       4.634   3.655  19.395  0.00  0.00    +0.000 C 
ATOM     16  C   UNL     1       3.730   2.446  19.085  0.00  0.00    +0.000 C 
ATOM     17  O   UNL     1       2.529   2.457  19.867  0.00  0.00    +0.000 OA
ATOM     18  C   UNL     1       1.830   3.699  19.736  0.00  0.00    +0.000 C 
ATOM     19  C   UNL     1       2.744   4.884  20.098  0.00  0.00    +0.000 C 
ENDBRANCH  13  14
BRANCH  13  20
ATOM     20  C   UNL     1       4.838   5.008  16.884  0.00  0.00    +0.000 A 
ATOM     21  C   UNL     1       4.887   4.019  15.911  0.00  0.00    +0.000 A 
ATOM     22  C   UNL     1       6.108   4.022  15.173  0.00  0.00    +0.000 A 
ATOM     23  C   UNL     1       6.970   5.002  15.608  0.00  0.00    +0.000 A 
ATOM     24  S   UNL     1       6.368   5.809  16.987  0.00  0.00    +0.000 S 
ENDBRANCH  13  20
ENDBRANCH   1  13
TORSDOF 5
ENDMDL
