MODEL 1
REMARK VINA RESULT:      -8.5      0.000      0.000
REMARK  Name = 
REMARK  5 active torsions:
REMARK  status: ('A' for Active; 'I' for Inactive)
REMARK    1  A    between atoms: C_4  and  O_5
REMARK    2  A    between atoms: O_5  and  C_6
REMARK    3  A    between atoms: C_6  and  C_7
REMARK    4  A    between atoms: C_10  and  C_11
REMARK    5  A    between atoms: N_19  and  C_20
REMARK                            x       y       z     vdW  Elec       q    Type
REMARK                         _______ _______ _______ _____ _____    ______ ____
ROOT
ATOM      1  O   UNL     1       2.535   9.020  17.926  0.00  0.00    +0.000 OA
ATOM      2  C   UNL     1       2.434   7.945  18.523  0.00  0.00    +0.000 A 
ATOM      3  C   UNL     1       2.989   6.766  17.821  0.00  0.00    +0.000 A 
ATOM      4  C   UNL     1       3.029   5.558  18.411  0.00  0.00    +0.000 A 
ATOM      5  C   UNL     1       2.514   5.427  19.752  0.00  0.00    +0.000 A 
ATOM      6  C   UNL     1       1.964   6.473  20.395  0.00  0.00    +0.000 A 
ATOM      7  N   UNL     1       1.865   7.730  19.795  0.00  0.00    +0.000 N 
ENDROOT
BRANCH   7   8
ATOM      8  C   UNL     1       1.157   8.749  20.472  0.00  0.00    +0.000 A 
ATOM      9  C   UNL     1       0.068   9.421  19.721  0.00  0.00    +0.000 A 
ATOM     10  C   UNL     1      -0.303  10.679  20.033  0.00  0.00    +0.000 A 
ATOM     11  N   UNL     1       0.112  11.182  21.280  0.00  0.00    +0.000 N 
ATOM     12  C   UNL     1      -0.470  12.148  22.057  0.00  0.00    +0.000 A 
ATOM     13  C   UNL     1      -1.203  11.354  22.894  0.00  0.00    +0.000 A 
ATOM     14  N   UNL     1      -0.481  10.207  23.155  0.00  0.00    +0.000 NA
ATOM     15  C   UNL     1       0.489  10.221  22.232  0.00  0.00    +0.000 A 
ATOM     16  C   UNL     1       1.361   9.191  21.742  0.00  0.00    +0.000 A 
ATOM     17  C   UNL     1      -2.514  11.821  23.384  0.00  0.00    +0.000 C 
ATOM     18  C   UNL     1      -2.834  13.201  22.713  0.00  0.00    +0.000 C 
ATOM     19  N   UNL     1      -1.726  14.177  22.569  0.00  0.00    +0.000 NA
ATOM     20  C   UNL     1      -0.431  13.608  22.136  0.00  0.00    +0.000 C 
ATOM     21  H   UNL     1      -1.588  14.645  23.465  0.00  0.00    +0.000 HD
ENDBRANCH   7   8
BRANCH   4  22
ATOM     22  O   UNL     1       3.509   4.388  17.849  0.00  0.00    +0.000 OA
BRANCH  22  23
ATOM     23  C   UNL     1       4.933   4.228  17.876  0.00  0.00    +0.000 C 
BRANCH  23  24
ATOM     24  C   UNL     1       5.608   4.594  16.580  0.00  0.00    +0.000 A 
ATOM     25  C   UNL     1       4.943   4.406  15.367  0.00  0.00    +0.000 A 
ATOM     26  C   UNL     1       5.619   4.584  14.159  0.00  0.00    +0.000 A 
ATOM     27  C   UNL     1       6.964   4.958  14.175  0.00  0.00    +0.000 A 
ATOM     28  N   UNL     1       7.624   5.163  15.352  0.00  0.00    +0.000 NA
ATOM     29  C   UNL     1       6.941   4.976  16.512  0.00  0.00    +0.000 A 
BRANCH  27  30
ATOM     30  C   UNL     1       7.721   5.101  12.855  0.00  0.00    +0.000 C 
ATOM     31  F   UNL     1       7.642   3.985  12.065  0.00  0.00    +0.000 F 
ATOM     32  F   UNL     1       7.265   6.122  12.076  0.00  0.00    +0.000 F 
ATOM     33  F   UNL     1       9.059   5.320  13.022  0.00  0.00    +0.000 F 
ENDBRANCH  27  30
ENDBRANCH  23  24
ENDBRANCH  22  23
ENDBRANCH   4  22
TORSDOF 5
ENDMDL
MODEL 2
REMARK VINA RESULT:      -8.4      1.545      2.297
REMARK  Name = 
REMARK  5 active torsions:
REMARK  status: ('A' for Active; 'I' for Inactive)
REMARK    1  A    between atoms: C_4  and  O_5
REMARK    2  A    between atoms: O_5  and  C_6
REMARK    3  A    between atoms: C_6  and  C_7
REMARK    4  A    between atoms: C_10  and  C_11
REMARK    5  A    between atoms: N_19  and  C_20
REMARK                            x       y       z     vdW  Elec       q    Type
REMARK                         _______ _______ _______ _____ _____    ______ ____
ROOT
ATOM      1  O   UNL     1       1.990   9.792  17.461  0.00  0.00    +0.000 OA
ATOM      2  C   UNL     1       1.966   8.895  18.306  0.00  0.00    +0.000 A 
ATOM      3  C   UNL     1       2.705   7.662  17.955  0.00  0.00    +0.000 A 
ATOM      4  C   UNL     1       2.837   6.652  18.834  0.00  0.00    +0.000 A 
ATOM      5  C   UNL     1       2.235   6.789  20.138  0.00  0.00    +0.000 A 
ATOM      6  C   UNL     1       1.520   7.881  20.466  0.00  0.00    +0.000 A 
ATOM      7  N   UNL     1       1.326   8.927  19.563  0.00  0.00    +0.000 N 
ENDROOT
BRANCH   7   8
ATOM      8  C   UNL     1       0.454   9.980  19.923  0.00  0.00    +0.000 A 
ATOM      9  C   UNL     1       0.769  10.712  21.174  0.00  0.00    +0.000 A 
ATOM     10  C   UNL     1      -0.205  11.337  21.865  0.00  0.00    +0.000 A 
ATOM     11  N   UNL     1      -1.422  11.568  21.197  0.00  0.00    +0.000 N 
ATOM     12  C   UNL     1      -2.356  12.545  21.419  0.00  0.00    +0.000 A 
ATOM     13  C   UNL     1      -1.951  13.461  20.489  0.00  0.00    +0.000 A 
ATOM     14  N   UNL     1      -1.505  12.784  19.372  0.00  0.00    +0.000 NA
ATOM     15  C   UNL     1      -1.368  11.521  19.794  0.00  0.00    +0.000 A 
ATOM     16  C   UNL     1      -0.651  10.401  19.252  0.00  0.00    +0.000 A 
ATOM     17  C   UNL     1      -2.082  14.902  20.776  0.00  0.00    +0.000 C 
ATOM     18  C   UNL     1      -2.626  15.072  22.237  0.00  0.00    +0.000 C 
ATOM     19  N   UNL     1      -3.689  14.143  22.695  0.00  0.00    +0.000 NA
ATOM     20  C   UNL     1      -3.505  12.727  22.305  0.00  0.00    +0.000 C 
ATOM     21  H   UNL     1      -4.583  14.465  22.325  0.00  0.00    +0.000 HD
ENDBRANCH   7   8
BRANCH   4  22
ATOM     22  O   UNL     1       3.491   5.453  18.612  0.00  0.00    +0.000 OA
BRANCH  22  23
ATOM     23  C   UNL     1       4.904   5.550  18.394  0.00  0.00    +0.000 C 
BRANCH  23  24
ATOM     24  C   UNL     1       5.336   5.112  17.019  0.00  0.00    +0.000 A 
ATOM     25  C   UNL     1       5.370   6.032  15.970  0.00  0.00    +0.000 A 
ATOM     26  C   UNL     1       5.606   5.601  14.663  0.00  0.00    +0.000 A 
ATOM     27  C   UNL     1       5.814   4.243  14.417  0.00  0.00    +0.000 A 
ATOM     28  N   UNL     1       5.802   3.334  15.433  0.00  0.00    +0.000 NA
ATOM     29  C   UNL     1       5.564   3.782  16.694  0.00  0.00    +0.000 A 
BRANCH  27  30
ATOM     30  C   UNL     1       6.019   3.762  12.980  0.00  0.00    +0.000 C 
ATOM     31  F   UNL     1       4.890   3.866  12.211  0.00  0.00    +0.000 F 
ATOM     32  F   UNL     1       6.976   4.461  12.306  0.00  0.00    +0.000 F 
ATOM     33  F   UNL     1       6.381   2.448  12.899  0.00  0.00    +0.000 F 
ENDBRANCH  27  30
ENDBRANCH  23  24
ENDBRANCH  22  23
ENDBRANCH   4  22
TORSDOF 5
ENDMDL
MODEL 3
REMARK VINA RESULT:      -8.3      0.706      1.462
REMARK  Name = 
REMARK  5 active torsions:
REMARK  status: ('A' for Active; 'I' for Inactive)
REMARK    1  A    between atoms: C_4  and  O_5
REMARK    2  A    between atoms: O_5  and  C_6
REMARK    3  A    between atoms: C_6  and  C_7
REMARK    4  A    between atoms: C_10  and  C_11
REMARK    5  A    between atoms: N_19  and  C_20
REMARK                            x       y       z     vdW  Elec       q    Type
REMARK                         _______ _______ _______ _____ _____    ______ ____
ROOT
ATOM      1  O   UNL     1       2.460   9.204  17.477  0.00  0.00    +0.000 OA
ATOM      2  C   UNL     1       2.429   8.204  18.197  0.00  0.00    +0.000 A 
ATOM      3  C   UNL     1       2.993   6.970  17.606  0.00  0.00    +0.000 A 
ATOM      4  C   UNL     1       3.107   5.840  18.327  0.00  0.00    +0.000 A 
ATOM      5  C   UNL     1       2.663   5.849  19.700  0.00  0.00    +0.000 A 
ATOM      6  C   UNL     1       2.106   6.945  20.247  0.00  0.00    +0.000 A 
ATOM      7  N   UNL     1       1.930   8.120  19.514  0.00  0.00    +0.000 N 
ENDROOT
BRANCH   7   8
ATOM      8  C   UNL     1       1.218   9.187  20.106  0.00  0.00    +0.000 A 
ATOM      9  C   UNL     1       1.254   9.278  21.585  0.00  0.00    +0.000 A 
ATOM     10  C   UNL     1       0.256   9.883  22.259  0.00  0.00    +0.000 A 
ATOM     11  N   UNL     1      -0.610  10.710  21.520  0.00  0.00    +0.000 N 
ATOM     12  C   UNL     1      -1.351  11.782  21.945  0.00  0.00    +0.000 A 
ATOM     13  C   UNL     1      -0.495  12.794  21.616  0.00  0.00    +0.000 A 
ATOM     14  N   UNL     1       0.141  12.464  20.436  0.00  0.00    +0.000 NA
ATOM     15  C   UNL     1      -0.119  11.160  20.284  0.00  0.00    +0.000 A 
ATOM     16  C   UNL     1       0.494  10.148  19.470  0.00  0.00    +0.000 A 
ATOM     17  C   UNL     1      -0.420  13.996  22.467  0.00  0.00    +0.000 C 
ATOM     18  C   UNL     1      -1.359  13.788  23.706  0.00  0.00    +0.000 C 
ATOM     19  N   UNL     1      -2.675  13.142  23.479  0.00  0.00    +0.000 NA
ATOM     20  C   UNL     1      -2.663  11.983  22.559  0.00  0.00    +0.000 C 
ATOM     21  H   UNL     1      -3.320  13.840  23.109  0.00  0.00    +0.000 HD
ENDBRANCH   7   8
BRANCH   4  22
ATOM     22  O   UNL     1       3.603   4.629  17.878  0.00  0.00    +0.000 OA
BRANCH  22  23
ATOM     23  C   UNL     1       5.031   4.501  17.891  0.00  0.00    +0.000 C 
BRANCH  23  24
ATOM     24  C   UNL     1       5.677   4.792  16.563  0.00  0.00    +0.000 A 
ATOM     25  C   UNL     1       5.174   4.209  15.398  0.00  0.00    +0.000 A 
ATOM     26  C   UNL     1       5.864   4.339  14.192  0.00  0.00    +0.000 A 
ATOM     27  C   UNL     1       7.058   5.062  14.160  0.00  0.00    +0.000 A 
ATOM     28  N   UNL     1       7.554   5.652  15.285  0.00  0.00    +0.000 NA
ATOM     29  C   UNL     1       6.863   5.504  16.446  0.00  0.00    +0.000 A 
BRANCH  27  30
ATOM     30  C   UNL     1       7.844   5.159  12.852  0.00  0.00    +0.000 C 
ATOM     31  F   UNL     1       7.597   4.119  11.996  0.00  0.00    +0.000 F 
ATOM     32  F   UNL     1       7.565   6.285  12.135  0.00  0.00    +0.000 F 
ATOM     33  F   UNL     1       9.197   5.152  13.035  0.00  0.00    +0.000 F 
ENDBRANCH  27  30
ENDBRANCH  23  24
ENDBRANCH  22  23
ENDBRANCH   4  22
TORSDOF 5
ENDMDL
MODEL 4
REMARK VINA RESULT:      -8.3      1.443      1.714
REMARK  Name = 
REMARK  5 active torsions:
REMARK  status: ('A' for Active; 'I' for Inactive)
REMARK    1  A    between atoms: C_4  and  O_5
REMARK    2  A    between atoms: O_5  and  C_6
REMARK    3  A    between atoms: C_6  and  C_7
REMARK    4  A    between atoms: C_10  and  C_11
REMARK    5  A    between atoms: N_19  and  C_20
REMARK                            x       y       z     vdW  Elec       q    Type
REMARK                         _______ _______ _______ _____ _____    ______ ____
ROOT
ATOM      1  O   UNL     1       1.949   9.808  17.556  0.00  0.00    +0.000 OA
ATOM      2  C   UNL     1       1.972   8.866  18.352  0.00  0.00    +0.000 A 
ATOM      3  C   UNL     1       2.686   7.654  17.892  0.00  0.00    +0.000 A 
ATOM      4  C   UNL     1       2.867   6.599  18.706  0.00  0.00    +0.000 A 
ATOM      5  C   UNL     1       2.342   6.666  20.049  0.00  0.00    +0.000 A 
ATOM      6  C   UNL     1       1.651   7.738  20.477  0.00  0.00    +0.000 A 
ATOM      7  N   UNL     1       1.407   8.831  19.643  0.00  0.00    +0.000 N 
ENDROOT
BRANCH   7   8
ATOM      8  C   UNL     1       0.561   9.862  20.110  0.00  0.00    +0.000 A 
ATOM      9  C   UNL     1      -0.701  10.084  19.364  0.00  0.00    +0.000 A 
ATOM     10  C   UNL     1      -1.299  11.292  19.372  0.00  0.00    +0.000 A 
ATOM     11  N   UNL     1      -0.896  12.202  20.365  0.00  0.00    +0.000 N 
ATOM     12  C   UNL     1      -1.599  13.236  20.925  0.00  0.00    +0.000 A 
ATOM     13  C   UNL     1      -2.079  12.606  22.039  0.00  0.00    +0.000 A 
ATOM     14  N   UNL     1      -1.116  11.732  22.498  0.00  0.00    +0.000 NA
ATOM     15  C   UNL     1      -0.250  11.644  21.481  0.00  0.00    +0.000 A 
ATOM     16  C   UNL     1       0.774  10.686  21.172  0.00  0.00    +0.000 A 
ATOM     17  C   UNL     1      -3.413  12.958  22.561  0.00  0.00    +0.000 C 
ATOM     18  C   UNL     1      -4.068  14.003  21.592  0.00  0.00    +0.000 C 
ATOM     19  N   UNL     1      -3.202  15.073  21.038  0.00  0.00    +0.000 NA
ATOM     20  C   UNL     1      -1.858  14.638  20.599  0.00  0.00    +0.000 C 
ATOM     21  H   UNL     1      -3.091  15.799  21.745  0.00  0.00    +0.000 HD
ENDBRANCH   7   8
BRANCH   4  22
ATOM     22  O   UNL     1       3.503   5.414  18.382  0.00  0.00    +0.000 OA
BRANCH  22  23
ATOM     23  C   UNL     1       4.917   5.508  18.171  0.00  0.00    +0.000 C 
BRANCH  23  24
ATOM     24  C   UNL     1       5.354   5.077  16.796  0.00  0.00    +0.000 A 
ATOM     25  C   UNL     1       5.304   5.978  15.731  0.00  0.00    +0.000 A 
ATOM     26  C   UNL     1       5.547   5.541  14.428  0.00  0.00    +0.000 A 
ATOM     27  C   UNL     1       5.845   4.196  14.200  0.00  0.00    +0.000 A 
ATOM     28  N   UNL     1       5.915   3.307  15.231  0.00  0.00    +0.000 NA
ATOM     29  C   UNL     1       5.668   3.760  16.489  0.00  0.00    +0.000 A 
BRANCH  27  30
ATOM     30  C   UNL     1       6.057   3.705  12.768  0.00  0.00    +0.000 C 
ATOM     31  F   UNL     1       6.460   2.398  12.701  0.00  0.00    +0.000 F 
ATOM     32  F   UNL     1       4.932   3.772  12.000  0.00  0.00    +0.000 F 
ATOM     33  F   UNL     1       7.017   4.405  12.095  0.00  0.00    +0.000 F 
ENDBRANCH  27  30
ENDBRANCH  23  24
ENDBRANCH  22  23
ENDBRANCH   4  22
TORSDOF 5
ENDMDL
MODEL 5
REMARK VINA RESULT:      -8.3      1.553      1.881
REMARK  Name = 
REMARK  5 active torsions:
REMARK  status: ('A' for Active; 'I' for Inactive)
REMARK    1  A    between atoms: C_4  and  O_5
REMARK    2  A    between atoms: O_5  and  C_6
REMARK    3  A    between atoms: C_6  and  C_7
REMARK    4  A    between atoms: C_10  and  C_11
REMARK    5  A    between atoms: N_19  and  C_20
REMARK                            x       y       z     vdW  Elec       q    Type
REMARK                         _______ _______ _______ _____ _____    ______ ____
ROOT
ATOM      1  O   UNL     1       1.229   5.715  20.828  0.00  0.00    +0.000 OA
ATOM      2  C   UNL     1       2.134   5.987  20.036  0.00  0.00    +0.000 A 
ATOM      3  C   UNL     1       3.046   4.872  19.697  0.00  0.00    +0.000 A 
ATOM      4  C   UNL     1       4.010   5.015  18.769  0.00  0.00    +0.000 A 
ATOM      5  C   UNL     1       4.144   6.289  18.105  0.00  0.00    +0.000 A 
ATOM      6  C   UNL     1       3.356   7.332  18.427  0.00  0.00    +0.000 A 
ATOM      7  N   UNL     1       2.377   7.230  19.417  0.00  0.00    +0.000 N 
ENDROOT
BRANCH   7   8
ATOM      8  C   UNL     1       1.677   8.397  19.799  0.00  0.00    +0.000 A 
ATOM      9  C   UNL     1       1.172   9.264  18.706  0.00  0.00    +0.000 A 
ATOM     10  C   UNL     1       0.973  10.581  18.913  0.00  0.00    +0.000 A 
ATOM     11  N   UNL     1       0.917  11.021  20.249  0.00  0.00    +0.000 N 
ATOM     12  C   UNL     1       0.275  12.112  20.772  0.00  0.00    +0.000 A 
ATOM     13  C   UNL     1      -0.890  11.519  21.173  0.00  0.00    +0.000 A 
ATOM     14  N   UNL     1      -0.599  10.253  21.638  0.00  0.00    +0.000 NA
ATOM     15  C   UNL     1       0.649  10.030  21.208  0.00  0.00    +0.000 A 
ATOM     16  C   UNL     1       1.412   8.823  21.063  0.00  0.00    +0.000 A 
ATOM     17  C   UNL     1      -2.157  12.270  21.097  0.00  0.00    +0.000 C 
ATOM     18  C   UNL     1      -1.871  13.666  20.444  0.00  0.00    +0.000 C 
ATOM     19  N   UNL     1      -0.630  14.378  20.840  0.00  0.00    +0.000 NA
ATOM     20  C   UNL     1       0.578  13.531  20.952  0.00  0.00    +0.000 C 
ATOM     21  H   UNL     1      -0.790  14.832  21.739  0.00  0.00    +0.000 HD
ENDBRANCH   7   8
BRANCH   4  22
ATOM     22  O   UNL     1       4.925   4.052  18.383  0.00  0.00    +0.000 OA
BRANCH  22  23
ATOM     23  C   UNL     1       6.161   4.550  17.854  0.00  0.00    +0.000 C 
BRANCH  23  24
ATOM     24  C   UNL     1       6.232   4.516  16.350  0.00  0.00    +0.000 A 
ATOM     25  C   UNL     1       5.325   3.743  15.623  0.00  0.00    +0.000 A 
ATOM     26  C   UNL     1       5.489   3.573  14.248  0.00  0.00    +0.000 A 
ATOM     27  C   UNL     1       6.564   4.189  13.604  0.00  0.00    +0.000 A 
ATOM     28  N   UNL     1       7.449   4.962  14.297  0.00  0.00    +0.000 NA
ATOM     29  C   UNL     1       7.268   5.104  15.636  0.00  0.00    +0.000 A 
BRANCH  27  30
ATOM     30  C   UNL     1       6.776   3.961  12.107  0.00  0.00    +0.000 C 
ATOM     31  F   UNL     1       5.603   3.849  11.408  0.00  0.00    +0.000 F 
ATOM     32  F   UNL     1       7.460   4.970  11.498  0.00  0.00    +0.000 F 
ATOM     33  F   UNL     1       7.463   2.814  11.830  0.00  0.00    +0.000 F 
ENDBRANCH  27  30
ENDBRANCH  23  24
ENDBRANCH  22  23
ENDBRANCH   4  22
TORSDOF 5
ENDMDL
MODEL 6
REMARK VINA RESULT:      -8.2      1.305      1.601
REMARK  Name = 
REMARK  5 active torsions:
REMARK  status: ('A' for Active; 'I' for Inactive)
REMARK    1  A    between atoms: C_4  and  O_5
REMARK    2  A    between atoms: O_5  and  C_6
REMARK    3  A    between atoms: C_6  and  C_7
REMARK    4  A    between atoms: C_10  and  C_11
REMARK    5  A    between atoms: N_19  and  C_20
REMARK                            x       y       z     vdW  Elec       q    Type
REMARK                         _______ _______ _______ _____ _____    ______ ____
ROOT
ATOM      1  O   UNL     1       2.442   9.585  17.388  0.00  0.00    +0.000 OA
ATOM      2  C   UNL     1       2.392   8.638  18.177  0.00  0.00    +0.000 A 
ATOM      3  C   UNL     1       3.141   7.427  17.772  0.00  0.00    +0.000 A 
ATOM      4  C   UNL     1       3.247   6.366  18.592  0.00  0.00    +0.000 A 
ATOM      5  C   UNL     1       2.607   6.425  19.884  0.00  0.00    +0.000 A 
ATOM      6  C   UNL     1       1.884   7.496  20.257  0.00  0.00    +0.000 A 
ATOM      7  N   UNL     1       1.716   8.596  19.413  0.00  0.00    +0.000 N 
ENDROOT
BRANCH   7   8
ATOM      8  C   UNL     1       0.835   9.627  19.812  0.00  0.00    +0.000 A 
ATOM      9  C   UNL     1      -0.267   9.965  18.879  0.00  0.00    +0.000 A 
ATOM     10  C   UNL     1      -0.817  11.195  18.885  0.00  0.00    +0.000 A 
ATOM     11  N   UNL     1      -0.566  12.006  20.007  0.00  0.00    +0.000 N 
ATOM     12  C   UNL     1      -1.323  13.026  20.521  0.00  0.00    +0.000 A 
ATOM     13  C   UNL     1      -2.013  12.335  21.477  0.00  0.00    +0.000 A 
ATOM     14  N   UNL     1      -1.175  11.382  22.021  0.00  0.00    +0.000 NA
ATOM     15  C   UNL     1      -0.146  11.334  21.166  0.00  0.00    +0.000 A 
ATOM     16  C   UNL     1       0.884  10.354  20.960  0.00  0.00    +0.000 A 
ATOM     17  C   UNL     1      -3.406  12.707  21.787  0.00  0.00    +0.000 C 
ATOM     18  C   UNL     1      -3.844  13.854  20.812  0.00  0.00    +0.000 C 
ATOM     19  N   UNL     1      -2.860  14.922  20.508  0.00  0.00    +0.000 NA
ATOM     20  C   UNL     1      -1.474  14.459  20.275  0.00  0.00    +0.000 C 
ATOM     21  H   UNL     1      -2.852  15.585  21.283  0.00  0.00    +0.000 HD
ENDBRANCH   7   8
BRANCH   4  22
ATOM     22  O   UNL     1       3.906   5.181  18.316  0.00  0.00    +0.000 OA
BRANCH  22  23
ATOM     23  C   UNL     1       5.303   5.304  18.019  0.00  0.00    +0.000 C 
BRANCH  23  24
ATOM     24  C   UNL     1       5.632   5.105  16.563  0.00  0.00    +0.000 A 
ATOM     25  C   UNL     1       4.755   4.397  15.738  0.00  0.00    +0.000 A 
ATOM     26  C   UNL     1       5.130   4.065  14.436  0.00  0.00    +0.000 A 
ATOM     27  C   UNL     1       6.385   4.450  13.964  0.00  0.00    +0.000 A 
ATOM     28  N   UNL     1       7.246   5.157  14.751  0.00  0.00    +0.000 NA
ATOM     29  C   UNL     1       6.857   5.461  16.017  0.00  0.00    +0.000 A 
BRANCH  27  30
ATOM     30  C   UNL     1       6.819   4.040  12.556  0.00  0.00    +0.000 C 
ATOM     31  F   UNL     1       7.703   4.917  11.987  0.00  0.00    +0.000 F 
ATOM     32  F   UNL     1       7.441   2.828  12.513  0.00  0.00    +0.000 F 
ATOM     33  F   UNL     1       5.779   3.964  11.674  0.00  0.00    +0.000 F 
ENDBRANCH  27  30
ENDBRANCH  23  24
ENDBRANCH  22  23
ENDBRANCH   4  22
TORSDOF 5
ENDMDL
MODEL 7
REMARK VINA RESULT:      -8.2      6.885     11.955
REMARK  Name = 
REMARK  5 active torsions:
REMARK  status: ('A' for Active; 'I' for Inactive)
REMARK    1  A    between atoms: C_4  and  O_5
REMARK    2  A    between atoms: O_5  and  C_6
REMARK    3  A    between atoms: C_6  and  C_7
REMARK    4  A    between atoms: C_10  and  C_11
REMARK    5  A    between atoms: N_19  and  C_20
REMARK                            x       y       z     vdW  Elec       q    Type
REMARK                         _______ _______ _______ _____ _____    ______ ____
ROOT
ATOM      1  O   UNL     1       1.196  10.114  19.096  0.00  0.00    +0.000 OA
ATOM      2  C   UNL     1       0.834   9.889  20.253  0.00  0.00    +0.000 A 
ATOM      3  C   UNL     1       0.339  11.060  21.009  0.00  0.00    +0.000 A 
ATOM      4  C   UNL     1      -0.178  10.926  22.244  0.00  0.00    +0.000 A 
ATOM      5  C   UNL     1      -0.237   9.608  22.828  0.00  0.00    +0.000 A 
ATOM      6  C   UNL     1       0.248   8.533  22.179  0.00  0.00    +0.000 A 
ATOM      7  N   UNL     1       0.831   8.644  20.916  0.00  0.00    +0.000 N 
ENDROOT
BRANCH   7   8
ATOM      8  C   UNL     1       1.440   7.501  20.349  0.00  0.00    +0.000 A 
ATOM      9  C   UNL     1       0.971   6.181  20.835  0.00  0.00    +0.000 A 
ATOM     10  C   UNL     1       1.779   5.103  20.778  0.00  0.00    +0.000 A 
ATOM     11  N   UNL     1       2.907   5.190  19.942  0.00  0.00    +0.000 N 
ATOM     12  C   UNL     1       3.595   4.185  19.314  0.00  0.00    +0.000 A 
ATOM     13  C   UNL     1       2.987   4.226  18.090  0.00  0.00    +0.000 A 
ATOM     14  N   UNL     1       2.703   5.542  17.785  0.00  0.00    +0.000 NA
ATOM     15  C   UNL     1       2.860   6.183  18.950  0.00  0.00    +0.000 A 
ATOM     16  C   UNL     1       2.417   7.472  19.403  0.00  0.00    +0.000 A 
ATOM     17  C   UNL     1       2.786   2.978  17.330  0.00  0.00    +0.000 C 
ATOM     18  C   UNL     1       3.283   1.776  18.206  0.00  0.00    +0.000 C 
ATOM     19  N   UNL     1       4.531   1.955  18.987  0.00  0.00    +0.000 NA
ATOM     20  C   UNL     1       4.675   3.263  19.663  0.00  0.00    +0.000 C 
ATOM     21  H   UNL     1       5.327   1.827  18.362  0.00  0.00    +0.000 HD
ENDBRANCH   7   8
BRANCH   4  22
ATOM     22  O   UNL     1      -0.655  11.946  23.047  0.00  0.00    +0.000 OA
BRANCH  22  23
ATOM     23  C   UNL     1      -1.470  12.924  22.387  0.00  0.00    +0.000 C 
BRANCH  23  24
ATOM     24  C   UNL     1      -2.941  12.784  22.679  0.00  0.00    +0.000 A 
ATOM     25  C   UNL     1      -3.859  12.717  21.629  0.00  0.00    +0.000 A 
ATOM     26  C   UNL     1      -5.230  12.756  21.890  0.00  0.00    +0.000 A 
ATOM     27  C   UNL     1      -5.673  12.857  23.210  0.00  0.00    +0.000 A 
ATOM     28  N   UNL     1      -4.789  12.906  24.247  0.00  0.00    +0.000 NA
ATOM     29  C   UNL     1      -3.461  12.871  23.963  0.00  0.00    +0.000 A 
BRANCH  27  30
ATOM     30  C   UNL     1      -7.172  12.955  23.494  0.00  0.00    +0.000 C 
ATOM     31  F   UNL     1      -7.826  11.759  23.358  0.00  0.00    +0.000 F 
ATOM     32  F   UNL     1      -7.457  13.375  24.759  0.00  0.00    +0.000 F 
ATOM     33  F   UNL     1      -7.824  13.811  22.654  0.00  0.00    +0.000 F 
ENDBRANCH  27  30
ENDBRANCH  23  24
ENDBRANCH  22  23
ENDBRANCH   4  22
TORSDOF 5
ENDMDL
MODEL 8
REMARK VINA RESULT:      -8.1      2.310      4.029
REMARK  Name = 
REMARK  5 active torsions:
REMARK  status: ('A' for Active; 'I' for Inactive)
REMARK    1  A    between atoms: C_4  and  O_5
REMARK    2  A    between atoms: O_5  and  C_6
REMARK    3  A    between atoms: C_6  and  C_7
REMARK    4  A    between atoms: C_10  and  C_11
REMARK    5  A    between atoms: N_19  and  C_20
REMARK                            x       y       z     vdW  Elec       q    Type
REMARK                         _______ _______ _______ _____ _____    ______ ____
ROOT
ATOM      1  O   UNL     1       0.048   9.225  22.914  0.00  0.00    +0.000 OA
ATOM      2  C   UNL     1       0.166   9.564  21.734  0.00  0.00    +0.000 A 
ATOM      3  C   UNL     1       1.151   8.796  20.941  0.00  0.00    +0.000 A 
ATOM      4  C   UNL     1       1.298   9.003  19.620  0.00  0.00    +0.000 A 
ATOM      5  C   UNL     1       0.473  10.000  18.982  0.00  0.00    +0.000 A 
ATOM      6  C   UNL     1      -0.399  10.742  19.689  0.00  0.00    +0.000 A 
ATOM      7  N   UNL     1      -0.544  10.585  21.068  0.00  0.00    +0.000 N 
ENDROOT
BRANCH   7   8
ATOM      8  C   UNL     1      -1.376  11.486  21.769  0.00  0.00    +0.000 A 
ATOM      9  C   UNL     1      -1.807  12.705  21.041  0.00  0.00    +0.000 A 
ATOM     10  C   UNL     1      -2.135  13.825  21.715  0.00  0.00    +0.000 A 
ATOM     11  N   UNL     1      -2.393  13.695  23.092  0.00  0.00    +0.000 N 
ATOM     12  C   UNL     1      -3.181  14.472  23.900  0.00  0.00    +0.000 A 
ATOM     13  C   UNL     1      -4.335  13.742  23.861  0.00  0.00    +0.000 A 
ATOM     14  N   UNL     1      -4.006  12.402  23.831  0.00  0.00    +0.000 NA
ATOM     15  C   UNL     1      -2.700  12.398  23.538  0.00  0.00    +0.000 A 
ATOM     16  C   UNL     1      -1.831  11.367  23.046  0.00  0.00    +0.000 A 
ATOM     17  C   UNL     1      -5.638  14.431  23.901  0.00  0.00    +0.000 C 
ATOM     18  C   UNL     1      -5.385  15.979  23.895  0.00  0.00    +0.000 C 
ATOM     19  N   UNL     1      -4.264  16.502  24.715  0.00  0.00    +0.000 NA
ATOM     20  C   UNL     1      -3.016  15.708  24.664  0.00  0.00    +0.000 C 
ATOM     21  H   UNL     1      -4.571  16.556  25.686  0.00  0.00    +0.000 HD
ENDBRANCH   7   8
BRANCH   4  22
ATOM     22  O   UNL     1       2.192   8.358  18.785  0.00  0.00    +0.000 OA
BRANCH  22  23
ATOM     23  C   UNL     1       2.506   7.005  19.140  0.00  0.00    +0.000 C 
BRANCH  23  24
ATOM     24  C   UNL     1       3.471   6.339  18.195  0.00  0.00    +0.000 A 
ATOM     25  C   UNL     1       4.233   7.110  17.315  0.00  0.00    +0.000 A 
ATOM     26  C   UNL     1       5.003   6.495  16.326  0.00  0.00    +0.000 A 
ATOM     27  C   UNL     1       5.007   5.103  16.228  0.00  0.00    +0.000 A 
ATOM     28  N   UNL     1       4.282   4.335  17.091  0.00  0.00    +0.000 NA
ATOM     29  C   UNL     1       3.538   4.961  18.040  0.00  0.00    +0.000 A 
BRANCH  27  30
ATOM     30  C   UNL     1       5.806   4.430  15.111  0.00  0.00    +0.000 C 
ATOM     31  F   UNL     1       6.981   5.073  14.826  0.00  0.00    +0.000 F 
ATOM     32  F   UNL     1       6.162   3.146  15.398  0.00  0.00    +0.000 F 
ATOM     33  F   UNL     1       5.133   4.380  13.924  0.00  0.00    +0.000 F 
ENDBRANCH  27  30
ENDBRANCH  23  24
ENDBRANCH  22  23
ENDBRANCH   4  22
TORSDOF 5
ENDMDL
MODEL 9
REMARK VINA RESULT:      -8.1      1.863      2.641
REMARK  Name = 
REMARK  5 active torsions:
REMARK  status: ('A' for Active; 'I' for Inactive)
REMARK    1  A    between atoms: C_4  and  O_5
REMARK    2  A    between atoms: O_5  and  C_6
REMARK    3  A    between atoms: C_6  and  C_7
REMARK    4  A    between atoms: C_10  and  C_11
REMARK    5  A    between atoms: N_19  and  C_20
REMARK                            x       y       z     vdW  Elec       q    Type
REMARK                         _______ _______ _______ _____ _____    ______ ____
ROOT
ATOM      1  O   UNL     1       1.347   6.900  20.979  0.00  0.00    +0.000 OA
ATOM      2  C   UNL     1       2.071   7.008  19.986  0.00  0.00    +0.000 A 
ATOM      3  C   UNL     1       3.068   5.930  19.799  0.00  0.00    +0.000 A 
ATOM      4  C   UNL     1       3.846   5.882  18.702  0.00  0.00    +0.000 A 
ATOM      5  C   UNL     1       3.695   6.912  17.703  0.00  0.00    +0.000 A 
ATOM      6  C   UNL     1       2.828   7.927  17.871  0.00  0.00    +0.000 A 
ATOM      7  N   UNL     1       2.038   8.032  19.017  0.00  0.00    +0.000 N 
ENDROOT
BRANCH   7   8
ATOM      8  C   UNL     1       1.248   9.191  19.191  0.00  0.00    +0.000 A 
ATOM      9  C   UNL     1       0.819   9.508  20.575  0.00  0.00    +0.000 A 
ATOM     10  C   UNL     1      -0.299  10.228  20.797  0.00  0.00    +0.000 A 
ATOM     11  N   UNL     1      -0.828  10.947  19.710  0.00  0.00    +0.000 N 
ATOM     12  C   UNL     1      -1.592  12.085  19.718  0.00  0.00    +0.000 A 
ATOM     13  C   UNL     1      -0.609  13.019  19.545  0.00  0.00    +0.000 A 
ATOM     14  N   UNL     1       0.345  12.499  18.693  0.00  0.00    +0.000 NA
ATOM     15  C   UNL     1       0.059  11.192  18.648  0.00  0.00    +0.000 A 
ATOM     16  C   UNL     1       0.829  10.056  18.228  0.00  0.00    +0.000 A 
ATOM     17  C   UNL     1      -0.728  14.336  20.197  0.00  0.00    +0.000 C 
ATOM     18  C   UNL     1      -2.022  14.339  21.082  0.00  0.00    +0.000 C 
ATOM     19  N   UNL     1      -3.239  13.689  20.534  0.00  0.00    +0.000 NA
ATOM     20  C   UNL     1      -3.014  12.403  19.840  0.00  0.00    +0.000 C 
ATOM     21  H   UNL     1      -3.685  14.334  19.881  0.00  0.00    +0.000 HD
ENDBRANCH   7   8
BRANCH   4  22
ATOM     22  O   UNL     1       4.817   4.935  18.428  0.00  0.00    +0.000 OA
BRANCH  22  23
ATOM     23  C   UNL     1       5.969   5.417  17.724  0.00  0.00    +0.000 C 
BRANCH  23  24
ATOM     24  C   UNL     1       6.125   4.832  16.345  0.00  0.00    +0.000 A 
ATOM     25  C   UNL     1       7.262   5.119  15.588  0.00  0.00    +0.000 A 
ATOM     26  C   UNL     1       7.337   4.720  14.252  0.00  0.00    +0.000 A 
ATOM     27  C   UNL     1       6.267   4.028  13.683  0.00  0.00    +0.000 A 
ATOM     28  N   UNL     1       5.156   3.725  14.414  0.00  0.00    +0.000 NA
ATOM     29  C   UNL     1       5.109   4.131  15.711  0.00  0.00    +0.000 A 
BRANCH  27  30
ATOM     30  C   UNL     1       6.324   3.639  12.205  0.00  0.00    +0.000 C 
ATOM     31  F   UNL     1       6.893   2.411  11.993  0.00  0.00    +0.000 F 
ATOM     32  F   UNL     1       5.097   3.569  11.616  0.00  0.00    +0.000 F 
ATOM     33  F   UNL     1       7.060   4.505  11.449  0.00  0.00    +0.000 F 
ENDBRANCH  27  30
ENDBRANCH  23  24
ENDBRANCH  22  23
ENDBRANCH   4  22
TORSDOF 5
ENDMDL
