MODEL 1
REMARK VINA RESULT:      -7.0      0.000      0.000
REMARK  Name = 
REMARK  6 active torsions:
REMARK  status: ('A' for Active; 'I' for Inactive)
REMARK    1  A    between atoms: C_1  and  N_2
REMARK    2  A    between atoms: N_2  and  C_3
REMARK    3  A    between atoms: N_2  and  C_4
REMARK    4  A    between atoms: C_7  and  C_8
REMARK    5  A    between atoms: C_9  and  C_10
REMARK    6  A    between atoms: N_13  and  C_14
REMARK                            x       y       z     vdW  Elec       q    Type
REMARK                         _______ _______ _______ _____ _____    ______ ____
ROOT
ATOM      1  C   UNL     1       5.827   5.223  17.992  0.00  0.00    +0.000 A 
ATOM      2  C   UNL     1       5.483   6.301  17.167  0.00  0.00    +0.000 A 
ATOM      3  C   UNL     1       6.279   7.442  17.063  0.00  0.00    +0.000 A 
ATOM      4  C   UNL     1       7.467   7.560  17.798  0.00  0.00    +0.000 A 
ATOM      5  C   UNL     1       7.856   6.473  18.581  0.00  0.00    +0.000 A 
ATOM      6  C   UNL     1       7.049   5.333  18.675  0.00  0.00    +0.000 A 
ENDROOT
BRANCH   1   8
ATOM      7  C   UNL     1       4.259   3.613  16.974  0.00  0.00    +0.000 C 
ATOM      8  N   UNL     1       5.010   4.111  18.120  0.00  0.00    +0.000 N 
ATOM      9  C   UNL     1       4.658   3.622  19.447  0.00  0.00    +0.000 C 
ENDBRANCH   1   8
BRANCH   4  10
ATOM     10  C   UNL     1       8.234   8.809  17.702  0.00  0.00    +0.000 C 
ATOM     11  C   UNL     1       8.717   9.512  18.746  0.00  0.00    +0.000 C 
BRANCH  11  12
ATOM     12  C   UNL     1       9.376  10.815  18.595  0.00  0.00    +0.000 A 
ATOM     13  C   UNL     1       8.813  11.836  17.829  0.00  0.00    +0.000 A 
ATOM     14  C   UNL     1       9.473  13.048  17.700  0.00  0.00    +0.000 A 
ATOM     15  N   UNL     1      10.657  13.257  18.320  0.00  0.00    +0.000 N 
ATOM     16  C   UNL     1      11.395  14.510  18.097  0.00  0.00    +0.000 C 
ATOM     17  C   UNL     1      11.190  12.307  19.120  0.00  0.00    +0.000 A 
ATOM     18  C   UNL     1      10.563  11.077  19.277  0.00  0.00    +0.000 A 
ENDBRANCH  11  12
ENDBRANCH   4  10
TORSDOF 3
ENDMDL
MODEL 2
REMARK VINA RESULT:      -6.9      0.720      1.403
REMARK  Name = 
REMARK  6 active torsions:
REMARK  status: ('A' for Active; 'I' for Inactive)
REMARK    1  A    between atoms: C_1  and  N_2
REMARK    2  A    between atoms: N_2  and  C_3
REMARK    3  A    between atoms: N_2  and  C_4
REMARK    4  A    between atoms: C_7  and  C_8
REMARK    5  A    between atoms: C_9  and  C_10
REMARK    6  A    between atoms: N_13  and  C_14
REMARK                            x       y       z     vdW  Elec       q    Type
REMARK                         _______ _______ _______ _____ _____    ______ ____
ROOT
ATOM      1  C   UNL     1       5.972   5.434  17.915  0.00  0.00    +0.000 A 
ATOM      2  C   UNL     1       5.709   6.564  17.129  0.00  0.00    +0.000 A 
ATOM      3  C   UNL     1       6.531   7.690  17.147  0.00  0.00    +0.000 A 
ATOM      4  C   UNL     1       7.664   7.742  17.970  0.00  0.00    +0.000 A 
ATOM      5  C   UNL     1       7.975   6.604  18.716  0.00  0.00    +0.000 A 
ATOM      6  C   UNL     1       7.143   5.479  18.688  0.00  0.00    +0.000 A 
ENDROOT
BRANCH   1   8
ATOM      7  C   UNL     1       4.779   3.682  19.177  0.00  0.00    +0.000 C 
ATOM      8  N   UNL     1       5.128   4.336  17.921  0.00  0.00    +0.000 N 
ATOM      9  C   UNL     1       4.831   3.645  16.673  0.00  0.00    +0.000 C 
ENDBRANCH   1   8
BRANCH   4  10
ATOM     10  C   UNL     1       8.460   8.976  18.000  0.00  0.00    +0.000 C 
ATOM     11  C   UNL     1       9.012   9.524  19.101  0.00  0.00    +0.000 C 
BRANCH  11  12
ATOM     12  C   UNL     1       9.698  10.821  19.089  0.00  0.00    +0.000 A 
ATOM     13  C   UNL     1      10.056  11.471  20.270  0.00  0.00    +0.000 A 
ATOM     14  C   UNL     1      10.691  12.703  20.216  0.00  0.00    +0.000 A 
ATOM     15  N   UNL     1      10.978  13.278  19.027  0.00  0.00    +0.000 N 
ATOM     16  C   UNL     1      11.563  14.627  18.983  0.00  0.00    +0.000 C 
ATOM     17  C   UNL     1      10.700  12.639  17.869  0.00  0.00    +0.000 A 
ATOM     18  C   UNL     1      10.063  11.404  17.876  0.00  0.00    +0.000 A 
ENDBRANCH  11  12
ENDBRANCH   4  10
TORSDOF 3
ENDMDL
MODEL 3
REMARK VINA RESULT:      -6.9      0.787      1.385
REMARK  Name = 
REMARK  6 active torsions:
REMARK  status: ('A' for Active; 'I' for Inactive)
REMARK    1  A    between atoms: C_1  and  N_2
REMARK    2  A    between atoms: N_2  and  C_3
REMARK    3  A    between atoms: N_2  and  C_4
REMARK    4  A    between atoms: C_7  and  C_8
REMARK    5  A    between atoms: C_9  and  C_10
REMARK    6  A    between atoms: N_13  and  C_14
REMARK                            x       y       z     vdW  Elec       q    Type
REMARK                         _______ _______ _______ _____ _____    ______ ____
ROOT
ATOM      1  C   UNL     1       6.081   5.408  17.879  0.00  0.00    +0.000 A 
ATOM      2  C   UNL     1       7.214   5.525  18.693  0.00  0.00    +0.000 A 
ATOM      3  C   UNL     1       7.983   6.688  18.734  0.00  0.00    +0.000 A 
ATOM      4  C   UNL     1       7.653   7.798  17.945  0.00  0.00    +0.000 A 
ATOM      5  C   UNL     1       6.495   7.721  17.171  0.00  0.00    +0.000 A 
ATOM      6  C   UNL     1       5.730   6.550  17.139  0.00  0.00    +0.000 A 
ENDROOT
BRANCH   1   8
ATOM      7  C   UNL     1       4.826   3.761  16.535  0.00  0.00    +0.000 C 
ATOM      8  N   UNL     1       5.346   4.235  17.813  0.00  0.00    +0.000 N 
ATOM      9  C   UNL     1       4.830   3.636  19.037  0.00  0.00    +0.000 C 
ENDBRANCH   1   8
BRANCH   4  10
ATOM     10  C   UNL     1       8.533   8.974  17.977  0.00  0.00    +0.000 C 
ATOM     11  C   UNL     1       8.986   9.580  19.093  0.00  0.00    +0.000 C 
BRANCH  11  12
ATOM     12  C   UNL     1       9.767  10.822  19.065  0.00  0.00    +0.000 A 
ATOM     13  C   UNL     1      10.146  11.423  17.864  0.00  0.00    +0.000 A 
ATOM     14  C   UNL     1      10.895  12.589  17.880  0.00  0.00    +0.000 A 
ATOM     15  N   UNL     1      11.257  13.159  19.052  0.00  0.00    +0.000 N 
ATOM     16  C   UNL     1      12.133  14.340  19.057  0.00  0.00    +0.000 C 
ATOM     17  C   UNL     1      10.847  12.633  20.227  0.00  0.00    +0.000 A 
ATOM     18  C   UNL     1      10.095  11.465  20.258  0.00  0.00    +0.000 A 
ENDBRANCH  11  12
ENDBRANCH   4  10
TORSDOF 3
ENDMDL
MODEL 4
REMARK VINA RESULT:      -6.8      0.762      1.629
REMARK  Name = 
REMARK  6 active torsions:
REMARK  status: ('A' for Active; 'I' for Inactive)
REMARK    1  A    between atoms: C_1  and  N_2
REMARK    2  A    between atoms: N_2  and  C_3
REMARK    3  A    between atoms: N_2  and  C_4
REMARK    4  A    between atoms: C_7  and  C_8
REMARK    5  A    between atoms: C_9  and  C_10
REMARK    6  A    between atoms: N_13  and  C_14
REMARK                            x       y       z     vdW  Elec       q    Type
REMARK                         _______ _______ _______ _____ _____    ______ ____
ROOT
ATOM      1  C   UNL     1       6.075   5.423  17.923  0.00  0.00    +0.000 A 
ATOM      2  C   UNL     1       7.216   5.533  18.728  0.00  0.00    +0.000 A 
ATOM      3  C   UNL     1       7.987   6.694  18.771  0.00  0.00    +0.000 A 
ATOM      4  C   UNL     1       7.651   7.811  17.993  0.00  0.00    +0.000 A 
ATOM      5  C   UNL     1       6.486   7.742  17.230  0.00  0.00    +0.000 A 
ATOM      6  C   UNL     1       5.719   6.571  17.196  0.00  0.00    +0.000 A 
ENDROOT
BRANCH   1   8
ATOM      7  C   UNL     1       4.927   3.714  16.564  0.00  0.00    +0.000 C 
ATOM      8  N   UNL     1       5.338   4.252  17.856  0.00  0.00    +0.000 N 
ATOM      9  C   UNL     1       4.713   3.721  19.060  0.00  0.00    +0.000 C 
ENDBRANCH   1   8
BRANCH   4  10
ATOM     10  C   UNL     1       8.533   8.985  18.027  0.00  0.00    +0.000 C 
ATOM     11  C   UNL     1       8.961   9.610  19.142  0.00  0.00    +0.000 C 
BRANCH  11  12
ATOM     12  C   UNL     1       9.746  10.850  19.111  0.00  0.00    +0.000 A 
ATOM     13  C   UNL     1      10.194  11.462  20.282  0.00  0.00    +0.000 A 
ATOM     14  C   UNL     1      10.922  12.640  20.211  0.00  0.00    +0.000 A 
ATOM     15  N   UNL     1      11.212  13.199  19.015  0.00  0.00    +0.000 N 
ATOM     16  C   UNL     1      11.900  14.498  18.956  0.00  0.00    +0.000 C 
ATOM     17  C   UNL     1      10.846  12.591  17.865  0.00  0.00    +0.000 A 
ATOM     18  C   UNL     1      10.114  11.410  17.888  0.00  0.00    +0.000 A 
ENDBRANCH  11  12
ENDBRANCH   4  10
TORSDOF 3
ENDMDL
MODEL 5
REMARK VINA RESULT:      -6.6      1.164      1.495
REMARK  Name = 
REMARK  6 active torsions:
REMARK  status: ('A' for Active; 'I' for Inactive)
REMARK    1  A    between atoms: C_1  and  N_2
REMARK    2  A    between atoms: N_2  and  C_3
REMARK    3  A    between atoms: N_2  and  C_4
REMARK    4  A    between atoms: C_7  and  C_8
REMARK    5  A    between atoms: C_9  and  C_10
REMARK    6  A    between atoms: N_13  and  C_14
REMARK                            x       y       z     vdW  Elec       q    Type
REMARK                         _______ _______ _______ _____ _____    ______ ____
ROOT
ATOM      1  C   UNL     1       6.223   5.112  17.239  0.00  0.00    +0.000 A 
ATOM      2  C   UNL     1       6.541   6.231  16.459  0.00  0.00    +0.000 A 
ATOM      3  C   UNL     1       7.352   7.262  16.933  0.00  0.00    +0.000 A 
ATOM      4  C   UNL     1       7.881   7.224  18.230  0.00  0.00    +0.000 A 
ATOM      5  C   UNL     1       7.623   6.091  19.002  0.00  0.00    +0.000 A 
ATOM      6  C   UNL     1       6.810   5.061  18.514  0.00  0.00    +0.000 A 
ENDROOT
BRANCH   1   8
ATOM      7  C   UNL     1       5.348   3.780  15.356  0.00  0.00    +0.000 C 
ATOM      8  N   UNL     1       5.383   4.112  16.775  0.00  0.00    +0.000 N 
ATOM      9  C   UNL     1       4.322   3.603  17.634  0.00  0.00    +0.000 C 
ENDBRANCH   1   8
BRANCH   4  10
ATOM     10  C   UNL     1       8.676   8.366  18.702  0.00  0.00    +0.000 C 
ATOM     11  C   UNL     1       8.514   9.645  18.310  0.00  0.00    +0.000 C 
BRANCH  11  12
ATOM     12  C   UNL     1       9.414  10.727  18.726  0.00  0.00    +0.000 A 
ATOM     13  C   UNL     1       9.631  11.023  20.072  0.00  0.00    +0.000 A 
ATOM     14  C   UNL     1      10.479  12.062  20.425  0.00  0.00    +0.000 A 
ATOM     15  N   UNL     1      11.109  12.788  19.474  0.00  0.00    +0.000 N 
ATOM     16  C   UNL     1      11.928  13.948  19.857  0.00  0.00    +0.000 C 
ATOM     17  C   UNL     1      10.967  12.480  18.166  0.00  0.00    +0.000 A 
ATOM     18  C   UNL     1      10.126  11.448  17.768  0.00  0.00    +0.000 A 
ENDBRANCH  11  12
ENDBRANCH   4  10
TORSDOF 3
ENDMDL
MODEL 6
REMARK VINA RESULT:      -6.5      6.854      8.058
REMARK  Name = 
REMARK  6 active torsions:
REMARK  status: ('A' for Active; 'I' for Inactive)
REMARK    1  A    between atoms: C_1  and  N_2
REMARK    2  A    between atoms: N_2  and  C_3
REMARK    3  A    between atoms: N_2  and  C_4
REMARK    4  A    between atoms: C_7  and  C_8
REMARK    5  A    between atoms: C_9  and  C_10
REMARK    6  A    between atoms: N_13  and  C_14
REMARK                            x       y       z     vdW  Elec       q    Type
REMARK                         _______ _______ _______ _____ _____    ______ ____
ROOT
ATOM      1  C   UNL     1       3.219   3.922  19.419  0.00  0.00    +0.000 A 
ATOM      2  C   UNL     1       2.306   4.159  20.454  0.00  0.00    +0.000 A 
ATOM      3  C   UNL     1       1.806   5.431  20.729  0.00  0.00    +0.000 A 
ATOM      4  C   UNL     1       2.210   6.542  19.975  0.00  0.00    +0.000 A 
ATOM      5  C   UNL     1       3.073   6.318  18.902  0.00  0.00    +0.000 A 
ATOM      6  C   UNL     1       3.567   5.035  18.635  0.00  0.00    +0.000 A 
ENDROOT
BRANCH   1   8
ATOM      7  C   UNL     1       3.281   1.878  18.038  0.00  0.00    +0.000 C 
ATOM      8  N   UNL     1       3.742   2.662  19.178  0.00  0.00    +0.000 N 
ATOM      9  C   UNL     1       4.515   1.991  20.215  0.00  0.00    +0.000 C 
ENDBRANCH   1   8
BRANCH   4  10
ATOM     10  C   UNL     1       1.703   7.869  20.347  0.00  0.00    +0.000 C 
ATOM     11  C   UNL     1       1.058   8.167  21.493  0.00  0.00    +0.000 C 
BRANCH  11  12
ATOM     12  C   UNL     1       0.471   9.485  21.759  0.00  0.00    +0.000 A 
ATOM     13  C   UNL     1       0.785  10.598  20.980  0.00  0.00    +0.000 A 
ATOM     14  C   UNL     1       0.219  11.830  21.272  0.00  0.00    +0.000 A 
ATOM     15  N   UNL     1      -0.647  11.962  22.302  0.00  0.00    +0.000 N 
ATOM     16  C   UNL     1      -1.166  13.290  22.663  0.00  0.00    +0.000 C 
ATOM     17  C   UNL     1      -1.019  10.886  23.030  0.00  0.00    +0.000 A 
ATOM     18  C   UNL     1      -0.475   9.633  22.773  0.00  0.00    +0.000 A 
ENDBRANCH  11  12
ENDBRANCH   4  10
TORSDOF 3
ENDMDL
MODEL 7
REMARK VINA RESULT:      -6.4      0.988      8.409
REMARK  Name = 
REMARK  6 active torsions:
REMARK  status: ('A' for Active; 'I' for Inactive)
REMARK    1  A    between atoms: C_1  and  N_2
REMARK    2  A    between atoms: N_2  and  C_3
REMARK    3  A    between atoms: N_2  and  C_4
REMARK    4  A    between atoms: C_7  and  C_8
REMARK    5  A    between atoms: C_9  and  C_10
REMARK    6  A    between atoms: N_13  and  C_14
REMARK                            x       y       z     vdW  Elec       q    Type
REMARK                         _______ _______ _______ _____ _____    ______ ____
ROOT
ATOM      1  C   UNL     1      10.384  12.978  19.224  0.00  0.00    +0.000 A 
ATOM      2  C   UNL     1      10.560  11.930  20.137  0.00  0.00    +0.000 A 
ATOM      3  C   UNL     1       9.986  10.674  19.947  0.00  0.00    +0.000 A 
ATOM      4  C   UNL     1       9.190  10.408  18.825  0.00  0.00    +0.000 A 
ATOM      5  C   UNL     1       9.050  11.420  17.875  0.00  0.00    +0.000 A 
ATOM      6  C   UNL     1       9.633  12.677  18.076  0.00  0.00    +0.000 A 
ENDROOT
BRANCH   1   8
ATOM      7  C   UNL     1      10.053  15.385  19.653  0.00  0.00    +0.000 C 
ATOM      8  N   UNL     1      10.924  14.235  19.441  0.00  0.00    +0.000 N 
ATOM      9  C   UNL     1      12.333  14.474  19.157  0.00  0.00    +0.000 C 
ENDBRANCH   1   8
BRANCH   4  10
ATOM     10  C   UNL     1       8.556   9.088  18.706  0.00  0.00    +0.000 C 
ATOM     11  C   UNL     1       7.887   8.637  17.626  0.00  0.00    +0.000 C 
BRANCH  11  12
ATOM     12  C   UNL     1       7.174   7.355  17.607  0.00  0.00    +0.000 A 
ATOM     13  C   UNL     1       7.672   6.229  18.262  0.00  0.00    +0.000 A 
ATOM     14  C   UNL     1       6.975   5.032  18.210  0.00  0.00    +0.000 A 
ATOM     15  N   UNL     1       5.806   4.946  17.536  0.00  0.00    +0.000 N 
ATOM     16  C   UNL     1       5.124   3.649  17.405  0.00  0.00    +0.000 C 
ATOM     17  C   UNL     1       5.269   6.038  16.949  0.00  0.00    +0.000 A 
ATOM     18  C   UNL     1       5.934   7.257  16.975  0.00  0.00    +0.000 A 
ENDBRANCH  11  12
ENDBRANCH   4  10
TORSDOF 3
ENDMDL
MODEL 8
REMARK VINA RESULT:      -6.4      0.999      8.207
REMARK  Name = 
REMARK  6 active torsions:
REMARK  status: ('A' for Active; 'I' for Inactive)
REMARK    1  A    between atoms: C_1  and  N_2
REMARK    2  A    between atoms: N_2  and  C_3
REMARK    3  A    between atoms: N_2  and  C_4
REMARK    4  A    between atoms: C_7  and  C_8
REMARK    5  A    between atoms: C_9  and  C_10
REMARK    6  A    between atoms: N_13  and  C_14
REMARK                            x       y       z     vdW  Elec       q    Type
REMARK                         _______ _______ _______ _____ _____    ______ ____
ROOT
ATOM      1  C   UNL     1      10.255  12.656  18.841  0.00  0.00    +0.000 A 
ATOM      2  C   UNL     1       9.317  12.346  17.848  0.00  0.00    +0.000 A 
ATOM      3  C   UNL     1       8.704  11.096  17.768  0.00  0.00    +0.000 A 
ATOM      4  C   UNL     1       9.015  10.082  18.684  0.00  0.00    +0.000 A 
ATOM      5  C   UNL     1       9.904  10.389  19.715  0.00  0.00    +0.000 A 
ATOM      6  C   UNL     1      10.510  11.648  19.786  0.00  0.00    +0.000 A 
ENDROOT
BRANCH   1   8
ATOM      7  C   UNL     1      10.190  15.093  18.459  0.00  0.00    +0.000 C 
ATOM      8  N   UNL     1      10.889  13.887  18.889  0.00  0.00    +0.000 N 
ATOM      9  C   UNL     1      12.333  13.950  19.072  0.00  0.00    +0.000 C 
ENDBRANCH   1   8
BRANCH   4  10
ATOM     10  C   UNL     1       8.390   8.763  18.516  0.00  0.00    +0.000 C 
ATOM     11  C   UNL     1       7.598   8.399  17.488  0.00  0.00    +0.000 C 
BRANCH  11  12
ATOM     12  C   UNL     1       6.906   7.106  17.432  0.00  0.00    +0.000 A 
ATOM     13  C   UNL     1       5.702   6.948  16.746  0.00  0.00    +0.000 A 
ATOM     14  C   UNL     1       5.072   5.713  16.728  0.00  0.00    +0.000 A 
ATOM     15  N   UNL     1       5.621   4.652  17.361  0.00  0.00    +0.000 N 
ATOM     16  C   UNL     1       4.897   3.373  17.417  0.00  0.00    +0.000 C 
ATOM     17  C   UNL     1       6.819   4.763  17.976  0.00  0.00    +0.000 A 
ATOM     18  C   UNL     1       7.484   5.981  18.021  0.00  0.00    +0.000 A 
ENDBRANCH  11  12
ENDBRANCH   4  10
TORSDOF 3
ENDMDL
MODEL 9
REMARK VINA RESULT:      -6.4      5.803      8.553
REMARK  Name = 
REMARK  6 active torsions:
REMARK  status: ('A' for Active; 'I' for Inactive)
REMARK    1  A    between atoms: C_1  and  N_2
REMARK    2  A    between atoms: N_2  and  C_3
REMARK    3  A    between atoms: N_2  and  C_4
REMARK    4  A    between atoms: C_7  and  C_8
REMARK    5  A    between atoms: C_9  and  C_10
REMARK    6  A    between atoms: N_13  and  C_14
REMARK                            x       y       z     vdW  Elec       q    Type
REMARK                         _______ _______ _______ _____ _____    ______ ____
ROOT
ATOM      1  C   UNL     1       0.059  10.099  21.013  0.00  0.00    +0.000 A 
ATOM      2  C   UNL     1       0.183  10.428  19.658  0.00  0.00    +0.000 A 
ATOM      3  C   UNL     1       0.949   9.668  18.774  0.00  0.00    +0.000 A 
ATOM      4  C   UNL     1       1.644   8.534  19.216  0.00  0.00    +0.000 A 
ATOM      5  C   UNL     1       1.487   8.156  20.550  0.00  0.00    +0.000 A 
ATOM      6  C   UNL     1       0.713   8.926  21.426  0.00  0.00    +0.000 A 
ENDROOT
BRANCH   1   8
ATOM      7  C   UNL     1      -0.914  12.290  21.598  0.00  0.00    +0.000 C 
ATOM      8  N   UNL     1      -0.671  10.882  21.892  0.00  0.00    +0.000 N 
ATOM      9  C   UNL     1      -0.937  10.398  23.241  0.00  0.00    +0.000 C 
ENDBRANCH   1   8
BRANCH   4  10
ATOM     10  C   UNL     1       2.489   7.807  18.259  0.00  0.00    +0.000 C 
ATOM     11  C   UNL     1       2.894   6.528  18.388  0.00  0.00    +0.000 C 
BRANCH  11  12
ATOM     12  C   UNL     1       3.833   5.890  17.459  0.00  0.00    +0.000 A 
ATOM     13  C   UNL     1       4.749   6.635  16.716  0.00  0.00    +0.000 A 
ATOM     14  C   UNL     1       5.611   5.996  15.839  0.00  0.00    +0.000 A 
ATOM     15  N   UNL     1       5.582   4.651  15.702  0.00  0.00    +0.000 N 
ATOM     16  C   UNL     1       6.432   3.994  14.698  0.00  0.00    +0.000 C 
ATOM     17  C   UNL     1       4.750   3.901  16.458  0.00  0.00    +0.000 A 
ATOM     18  C   UNL     1       3.868   4.500  17.349  0.00  0.00    +0.000 A 
ENDBRANCH  11  12
ENDBRANCH   4  10
TORSDOF 3
ENDMDL
