MODEL 1
REMARK VINA RESULT:      -8.4      0.000      0.000
REMARK  Name = 
REMARK  4 active torsions:
REMARK  status: ('A' for Active; 'I' for Inactive)
REMARK    1  A    between atoms: C_11  and  O_12
REMARK    2  A    between atoms: O_12  and  C_13
REMARK    3  A    between atoms: N_21  and  C_22
REMARK    4  A    between atoms: C_22  and  C_23
REMARK                            x       y       z     vdW  Elec       q    Type
REMARK                         _______ _______ _______ _____ _____    ______ ____
ROOT
ATOM      1  O   UNL     1       4.438   2.736  19.328  0.00  0.00    +0.000 OA
ATOM      2  C   UNL     1       4.118   3.853  18.932  0.00  0.00    +0.000 A 
ATOM      3  C   UNL     1       4.626   4.402  17.699  0.00  0.00    +0.000 A 
ATOM      4  C   UNL     1       5.455   3.870  16.740  0.00  0.00    +0.000 A 
ATOM      5  N   UNL     1       5.580   4.839  15.787  0.00  0.00    +0.000 N 
ATOM      6  N   UNL     1       4.891   5.963  16.069  0.00  0.00    +0.000 NA
ATOM      7  C   UNL     1       4.316   5.689  17.246  0.00  0.00    +0.000 A 
ATOM      8  C   UNL     1       3.461   6.560  18.019  0.00  0.00    +0.000 A 
ATOM      9  C   UNL     1       3.216   7.875  17.613  0.00  0.00    +0.000 A 
ATOM     10  C   UNL     1       2.394   8.693  18.381  0.00  0.00    +0.000 A 
ATOM     11  C   UNL     1       1.769   8.179  19.519  0.00  0.00    +0.000 A 
ATOM     12  C   UNL     1       2.055   6.875  19.953  0.00  0.00    +0.000 A 
ATOM     13  C   UNL     1       2.901   6.036  19.211  0.00  0.00    +0.000 A 
ATOM     14  N   UNL     1       3.202   4.679  19.622  0.00  0.00    +0.000 N 
ATOM     15  H   UNL     1       6.111   4.805  14.922  0.00  0.00    +0.000 HD
ENDROOT
BRANCH  11  16
ATOM     16  O   UNL     1       0.892   8.893  20.310  0.00  0.00    +0.000 OA
BRANCH  16  17
ATOM     17  C   UNL     1       0.336  10.050  19.825  0.00  0.00    +0.000 A 
ATOM     18  C   UNL     1      -0.718  10.104  18.914  0.00  0.00    +0.000 A 
ATOM     19  C   UNL     1      -1.144  11.338  18.432  0.00  0.00    +0.000 A 
ATOM     20  C   UNL     1      -0.541  12.483  18.929  0.00  0.00    +0.000 A 
ATOM     21  N   UNL     1       0.425  12.471  19.874  0.00  0.00    +0.000 NA
ATOM     22  C   UNL     1       0.838  11.254  20.304  0.00  0.00    +0.000 A 
ENDBRANCH  16  17
ENDBRANCH  11  16
BRANCH  14  23
ATOM     23  C   UNL     1       2.642   4.108  20.854  0.00  0.00    +0.000 C 
BRANCH  23  24
ATOM     24  C   UNL     1       1.323   3.351  20.683  0.00  0.00    +0.000 C 
ATOM     25  F   UNL     1       1.386   2.393  19.733  0.00  0.00    +0.000 F 
ATOM     26  F   UNL     1       0.990   2.736  21.846  0.00  0.00    +0.000 F 
ATOM     27  F   UNL     1       0.306   4.182  20.368  0.00  0.00    +0.000 F 
ENDBRANCH  23  24
ENDBRANCH  14  23
TORSDOF 4
ENDMDL
MODEL 2
REMARK VINA RESULT:      -8.2      3.077      6.698
REMARK  Name = 
REMARK  4 active torsions:
REMARK  status: ('A' for Active; 'I' for Inactive)
REMARK    1  A    between atoms: C_11  and  O_12
REMARK    2  A    between atoms: O_12  and  C_13
REMARK    3  A    between atoms: N_21  and  C_22
REMARK    4  A    between atoms: C_22  and  C_23
REMARK                            x       y       z     vdW  Elec       q    Type
REMARK                         _______ _______ _______ _____ _____    ______ ____
ROOT
ATOM      1  O   UNL     1       1.817   3.975  20.999  0.00  0.00    +0.000 OA
ATOM      2  C   UNL     1       2.446   4.663  20.202  0.00  0.00    +0.000 A 
ATOM      3  C   UNL     1       2.158   6.062  20.005  0.00  0.00    +0.000 A 
ATOM      4  C   UNL     1       1.254   6.900  20.615  0.00  0.00    +0.000 A 
ATOM      5  N   UNL     1       1.438   8.121  20.035  0.00  0.00    +0.000 N 
ATOM      6  N   UNL     1       2.396   8.128  19.088  0.00  0.00    +0.000 NA
ATOM      7  C   UNL     1       2.827   6.861  19.070  0.00  0.00    +0.000 A 
ATOM      8  C   UNL     1       3.856   6.305  18.223  0.00  0.00    +0.000 A 
ATOM      9  C   UNL     1       4.467   7.076  17.231  0.00  0.00    +0.000 A 
ATOM     10  C   UNL     1       5.450   6.512  16.425  0.00  0.00    +0.000 A 
ATOM     11  C   UNL     1       5.865   5.197  16.651  0.00  0.00    +0.000 A 
ATOM     12  C   UNL     1       5.216   4.409  17.614  0.00  0.00    +0.000 A 
ATOM     13  C   UNL     1       4.203   4.944  18.423  0.00  0.00    +0.000 A 
ATOM     14  N   UNL     1       3.526   4.162  19.439  0.00  0.00    +0.000 N 
ATOM     15  H   UNL     1       0.952   8.990  20.235  0.00  0.00    +0.000 HD
ENDROOT
BRANCH  11  16
ATOM     16  O   UNL     1       6.872   4.570  15.945  0.00  0.00    +0.000 OA
BRANCH  16  17
ATOM     17  C   UNL     1       6.741   4.402  14.589  0.00  0.00    +0.000 A 
ATOM     18  C   UNL     1       5.754   3.630  13.977  0.00  0.00    +0.000 A 
ATOM     19  C   UNL     1       5.771   3.468  12.595  0.00  0.00    +0.000 A 
ATOM     20  C   UNL     1       6.739   4.140  11.866  0.00  0.00    +0.000 A 
ATOM     21  N   UNL     1       7.658   4.962  12.418  0.00  0.00    +0.000 NA
ATOM     22  C   UNL     1       7.633   5.078  13.768  0.00  0.00    +0.000 A 
ENDBRANCH  16  17
ENDBRANCH  11  16
BRANCH  14  23
ATOM     23  C   UNL     1       3.858   2.751  19.668  0.00  0.00    +0.000 C 
BRANCH  23  24
ATOM     24  C   UNL     1       3.131   1.753  18.762  0.00  0.00    +0.000 C 
ATOM     25  F   UNL     1       3.841   0.625  18.548  0.00  0.00    +0.000 F 
ATOM     26  F   UNL     1       1.957   1.383  19.333  0.00  0.00    +0.000 F 
ATOM     27  F   UNL     1       2.835   2.292  17.560  0.00  0.00    +0.000 F 
ENDBRANCH  23  24
ENDBRANCH  14  23
TORSDOF 4
ENDMDL
MODEL 3
REMARK VINA RESULT:      -8.1      0.593      1.263
REMARK  Name = 
REMARK  4 active torsions:
REMARK  status: ('A' for Active; 'I' for Inactive)
REMARK    1  A    between atoms: C_11  and  O_12
REMARK    2  A    between atoms: O_12  and  C_13
REMARK    3  A    between atoms: N_21  and  C_22
REMARK    4  A    between atoms: C_22  and  C_23
REMARK                            x       y       z     vdW  Elec       q    Type
REMARK                         _______ _______ _______ _____ _____    ______ ____
ROOT
ATOM      1  O   UNL     1       4.569   2.975  19.460  0.00  0.00    +0.000 OA
ATOM      2  C   UNL     1       4.170   4.071  19.078  0.00  0.00    +0.000 A 
ATOM      3  C   UNL     1       4.638   4.671  17.854  0.00  0.00    +0.000 A 
ATOM      4  C   UNL     1       5.505   4.214  16.889  0.00  0.00    +0.000 A 
ATOM      5  N   UNL     1       5.560   5.202  15.950  0.00  0.00    +0.000 N 
ATOM      6  N   UNL     1       4.791   6.269  16.244  0.00  0.00    +0.000 NA
ATOM      7  C   UNL     1       4.236   5.939  17.417  0.00  0.00    +0.000 A 
ATOM      8  C   UNL     1       3.320   6.735  18.199  0.00  0.00    +0.000 A 
ATOM      9  C   UNL     1       2.981   8.035  17.810  0.00  0.00    +0.000 A 
ATOM     10  C   UNL     1       2.102   8.781  18.587  0.00  0.00    +0.000 A 
ATOM     11  C   UNL     1       1.514   8.208  19.717  0.00  0.00    +0.000 A 
ATOM     12  C   UNL     1       1.892   6.923  20.134  0.00  0.00    +0.000 A 
ATOM     13  C   UNL     1       2.797   6.157  19.383  0.00  0.00    +0.000 A 
ATOM     14  N   UNL     1       3.195   4.819  19.776  0.00  0.00    +0.000 N 
ATOM     15  H   UNL     1       6.093   5.217  15.085  0.00  0.00    +0.000 HD
ENDROOT
BRANCH  11  16
ATOM     16  O   UNL     1       0.587   8.846  20.515  0.00  0.00    +0.000 OA
BRANCH  16  17
ATOM     17  C   UNL     1       0.271  10.159  20.265  0.00  0.00    +0.000 A 
ATOM     18  C   UNL     1       0.970  11.254  20.774  0.00  0.00    +0.000 A 
ATOM     19  C   UNL     1       0.506  12.540  20.517  0.00  0.00    +0.000 A 
ATOM     20  C   UNL     1      -0.606  12.689  19.704  0.00  0.00    +0.000 A 
ATOM     21  N   UNL     1      -1.257  11.655  19.127  0.00  0.00    +0.000 NA
ATOM     22  C   UNL     1      -0.798  10.413  19.417  0.00  0.00    +0.000 A 
ENDBRANCH  16  17
ENDBRANCH  11  16
BRANCH  14  23
ATOM     23  C   UNL     1       2.677   4.194  20.999  0.00  0.00    +0.000 C 
BRANCH  23  24
ATOM     24  C   UNL     1       1.435   3.319  20.810  0.00  0.00    +0.000 C 
ATOM     25  F   UNL     1       1.048   2.703  21.949  0.00  0.00    +0.000 F 
ATOM     26  F   UNL     1       0.392   4.082  20.396  0.00  0.00    +0.000 F 
ATOM     27  F   UNL     1       1.630   2.369  19.870  0.00  0.00    +0.000 F 
ENDBRANCH  23  24
ENDBRANCH  14  23
TORSDOF 4
ENDMDL
MODEL 4
REMARK VINA RESULT:      -7.9      3.245      4.280
REMARK  Name = 
REMARK  4 active torsions:
REMARK  status: ('A' for Active; 'I' for Inactive)
REMARK    1  A    between atoms: C_11  and  O_12
REMARK    2  A    between atoms: O_12  and  C_13
REMARK    3  A    between atoms: N_21  and  C_22
REMARK    4  A    between atoms: C_22  and  C_23
REMARK                            x       y       z     vdW  Elec       q    Type
REMARK                         _______ _______ _______ _____ _____    ______ ____
ROOT
ATOM      1  O   UNL     1       5.172   3.714  16.289  0.00  0.00    +0.000 OA
ATOM      2  C   UNL     1       4.419   4.045  17.199  0.00  0.00    +0.000 A 
ATOM      3  C   UNL     1       3.694   3.076  17.983  0.00  0.00    +0.000 A 
ATOM      4  C   UNL     1       3.692   1.702  17.956  0.00  0.00    +0.000 A 
ATOM      5  N   UNL     1       2.824   1.318  18.936  0.00  0.00    +0.000 N 
ATOM      6  N   UNL     1       2.261   2.352  19.592  0.00  0.00    +0.000 NA
ATOM      7  C   UNL     1       2.793   3.426  18.996  0.00  0.00    +0.000 A 
ATOM      8  C   UNL     1       2.527   4.811  19.304  0.00  0.00    +0.000 A 
ATOM      9  C   UNL     1       1.567   5.167  20.256  0.00  0.00    +0.000 A 
ATOM     10  C   UNL     1       1.327   6.510  20.527  0.00  0.00    +0.000 A 
ATOM     11  C   UNL     1       2.089   7.494  19.893  0.00  0.00    +0.000 A 
ATOM     12  C   UNL     1       3.016   7.139  18.902  0.00  0.00    +0.000 A 
ATOM     13  C   UNL     1       3.260   5.793  18.589  0.00  0.00    +0.000 A 
ATOM     14  N   UNL     1       4.225   5.391  17.584  0.00  0.00    +0.000 N 
ATOM     15  H   UNL     1       2.570   0.375  19.216  0.00  0.00    +0.000 HD
ENDROOT
BRANCH  11  16
ATOM     16  O   UNL     1       1.966   8.846  20.139  0.00  0.00    +0.000 OA
BRANCH  16  17
ATOM     17  C   UNL     1       1.062   9.282  21.076  0.00  0.00    +0.000 A 
ATOM     18  C   UNL     1      -0.175   9.855  20.780  0.00  0.00    +0.000 A 
ATOM     19  C   UNL     1      -0.973  10.334  21.815  0.00  0.00    +0.000 A 
ATOM     20  C   UNL     1      -0.532  10.163  23.118  0.00  0.00    +0.000 A 
ATOM     21  N   UNL     1       0.620   9.538  23.444  0.00  0.00    +0.000 NA
ATOM     22  C   UNL     1       1.388   9.107  22.414  0.00  0.00    +0.000 A 
ENDBRANCH  16  17
ENDBRANCH  11  16
BRANCH  14  23
ATOM     23  C   UNL     1       4.996   6.382  16.823  0.00  0.00    +0.000 C 
BRANCH  23  24
ATOM     24  C   UNL     1       6.414   6.642  17.337  0.00  0.00    +0.000 C 
ATOM     25  F   UNL     1       6.625   6.140  18.573  0.00  0.00    +0.000 F 
ATOM     26  F   UNL     1       7.319   6.060  16.510  0.00  0.00    +0.000 F 
ATOM     27  F   UNL     1       6.700   7.962  17.371  0.00  0.00    +0.000 F 
ENDBRANCH  23  24
ENDBRANCH  14  23
TORSDOF 4
ENDMDL
MODEL 5
REMARK VINA RESULT:      -7.9      2.966      3.980
REMARK  Name = 
REMARK  4 active torsions:
REMARK  status: ('A' for Active; 'I' for Inactive)
REMARK    1  A    between atoms: C_11  and  O_12
REMARK    2  A    between atoms: O_12  and  C_13
REMARK    3  A    between atoms: N_21  and  C_22
REMARK    4  A    between atoms: C_22  and  C_23
REMARK                            x       y       z     vdW  Elec       q    Type
REMARK                         _______ _______ _______ _____ _____    ______ ____
ROOT
ATOM      1  O   UNL     1       4.900   3.799  16.202  0.00  0.00    +0.000 OA
ATOM      2  C   UNL     1       4.187   4.113  17.150  0.00  0.00    +0.000 A 
ATOM      3  C   UNL     1       3.475   3.131  17.929  0.00  0.00    +0.000 A 
ATOM      4  C   UNL     1       3.448   1.758  17.859  0.00  0.00    +0.000 A 
ATOM      5  N   UNL     1       2.610   1.357  18.859  0.00  0.00    +0.000 N 
ATOM      6  N   UNL     1       2.090   2.379  19.567  0.00  0.00    +0.000 NA
ATOM      7  C   UNL     1       2.618   3.462  18.986  0.00  0.00    +0.000 A 
ATOM      8  C   UNL     1       2.388   4.841  19.348  0.00  0.00    +0.000 A 
ATOM      9  C   UNL     1       1.470   5.181  20.346  0.00  0.00    +0.000 A 
ATOM     10  C   UNL     1       1.264   6.518  20.668  0.00  0.00    +0.000 A 
ATOM     11  C   UNL     1       2.018   7.510  20.037  0.00  0.00    +0.000 A 
ATOM     12  C   UNL     1       2.903   7.172  19.001  0.00  0.00    +0.000 A 
ATOM     13  C   UNL     1       3.111   5.833  18.637  0.00  0.00    +0.000 A 
ATOM     14  N   UNL     1       4.031   5.449  17.585  0.00  0.00    +0.000 N 
ATOM     15  H   UNL     1       2.351   0.410  19.118  0.00  0.00    +0.000 HD
ENDROOT
BRANCH  11  16
ATOM     16  O   UNL     1       1.928   8.856  20.330  0.00  0.00    +0.000 OA
BRANCH  16  17
ATOM     17  C   UNL     1       0.842   9.570  19.891  0.00  0.00    +0.000 A 
ATOM     18  C   UNL     1       0.421   9.639  18.563  0.00  0.00    +0.000 A 
ATOM     19  C   UNL     1      -0.649  10.463  18.226  0.00  0.00    +0.000 A 
ATOM     20  C   UNL     1      -1.303  11.141  19.242  0.00  0.00    +0.000 A 
ATOM     21  N   UNL     1      -0.975  11.033  20.549  0.00  0.00    +0.000 NA
ATOM     22  C   UNL     1       0.088  10.244  20.843  0.00  0.00    +0.000 A 
ENDBRANCH  16  17
ENDBRANCH  11  16
BRANCH  14  23
ATOM     23  C   UNL     1       4.791   6.451  16.827  0.00  0.00    +0.000 C 
BRANCH  23  24
ATOM     24  C   UNL     1       6.244   6.642  17.269  0.00  0.00    +0.000 C 
ATOM     25  F   UNL     1       7.129   6.061  16.431  0.00  0.00    +0.000 F 
ATOM     26  F   UNL     1       6.543   7.965  17.310  0.00  0.00    +0.000 F 
ATOM     27  F   UNL     1       6.459   6.148  18.508  0.00  0.00    +0.000 F 
ENDBRANCH  23  24
ENDBRANCH  14  23
TORSDOF 4
ENDMDL
MODEL 6
REMARK VINA RESULT:      -7.8      3.157      4.281
REMARK  Name = 
REMARK  4 active torsions:
REMARK  status: ('A' for Active; 'I' for Inactive)
REMARK    1  A    between atoms: C_11  and  O_12
REMARK    2  A    between atoms: O_12  and  C_13
REMARK    3  A    between atoms: N_21  and  C_22
REMARK    4  A    between atoms: C_22  and  C_23
REMARK                            x       y       z     vdW  Elec       q    Type
REMARK                         _______ _______ _______ _____ _____    ______ ____
ROOT
ATOM      1  O   UNL     1       4.997   3.683  16.299  0.00  0.00    +0.000 OA
ATOM      2  C   UNL     1       4.260   4.037  17.213  0.00  0.00    +0.000 A 
ATOM      3  C   UNL     1       3.539   3.088  18.026  0.00  0.00    +0.000 A 
ATOM      4  C   UNL     1       3.527   1.713  18.025  0.00  0.00    +0.000 A 
ATOM      5  N   UNL     1       2.670   1.354  19.024  0.00  0.00    +0.000 N 
ATOM      6  N   UNL     1       2.124   2.405  19.668  0.00  0.00    +0.000 NA
ATOM      7  C   UNL     1       2.656   3.463  19.045  0.00  0.00    +0.000 A 
ATOM      8  C   UNL     1       2.404   4.856  19.331  0.00  0.00    +0.000 A 
ATOM      9  C   UNL     1       1.461   5.236  20.289  0.00  0.00    +0.000 A 
ATOM     10  C   UNL     1       1.234   6.586  20.538  0.00  0.00    +0.000 A 
ATOM     11  C   UNL     1       1.994   7.552  19.875  0.00  0.00    +0.000 A 
ATOM     12  C   UNL     1       2.904   7.172  18.878  0.00  0.00    +0.000 A 
ATOM     13  C   UNL     1       3.134   5.818  18.587  0.00  0.00    +0.000 A 
ATOM     14  N   UNL     1       4.081   5.391  17.576  0.00  0.00    +0.000 N 
ATOM     15  H   UNL     1       2.414   0.419  19.326  0.00  0.00    +0.000 HD
ENDROOT
BRANCH  11  16
ATOM     16  O   UNL     1       1.884   8.910  20.097  0.00  0.00    +0.000 OA
BRANCH  16  17
ATOM     17  C   UNL     1       1.034   9.367  21.073  0.00  0.00    +0.000 A 
ATOM     18  C   UNL     1       1.114   9.022  22.422  0.00  0.00    +0.000 A 
ATOM     19  C   UNL     1       0.145   9.485  23.306  0.00  0.00    +0.000 A 
ATOM     20  C   UNL     1      -0.838  10.332  22.820  0.00  0.00    +0.000 A 
ATOM     21  N   UNL     1      -0.898  10.754  21.537  0.00  0.00    +0.000 NA
ATOM     22  C   UNL     1       0.044  10.265  20.695  0.00  0.00    +0.000 A 
ENDBRANCH  16  17
ENDBRANCH  11  16
BRANCH  14  23
ATOM     23  C   UNL     1       4.849   6.362  16.785  0.00  0.00    +0.000 C 
BRANCH  23  24
ATOM     24  C   UNL     1       6.270   6.633  17.284  0.00  0.00    +0.000 C 
ATOM     25  F   UNL     1       6.554   7.950  17.371  0.00  0.00    +0.000 F 
ATOM     26  F   UNL     1       6.432   6.108  18.524  0.00  0.00    +0.000 F 
ATOM     27  F   UNL     1       7.198   6.060  16.486  0.00  0.00    +0.000 F 
ENDBRANCH  23  24
ENDBRANCH  14  23
TORSDOF 4
ENDMDL
MODEL 7
REMARK VINA RESULT:      -7.8      3.035      6.764
REMARK  Name = 
REMARK  4 active torsions:
REMARK  status: ('A' for Active; 'I' for Inactive)
REMARK    1  A    between atoms: C_11  and  O_12
REMARK    2  A    between atoms: O_12  and  C_13
REMARK    3  A    between atoms: N_21  and  C_22
REMARK    4  A    between atoms: C_22  and  C_23
REMARK                            x       y       z     vdW  Elec       q    Type
REMARK                         _______ _______ _______ _____ _____    ______ ____
ROOT
ATOM      1  O   UNL     1       1.917   4.012  20.922  0.00  0.00    +0.000 OA
ATOM      2  C   UNL     1       2.543   4.697  20.120  0.00  0.00    +0.000 A 
ATOM      3  C   UNL     1       2.243   6.091  19.907  0.00  0.00    +0.000 A 
ATOM      4  C   UNL     1       1.327   6.926  20.503  0.00  0.00    +0.000 A 
ATOM      5  N   UNL     1       1.503   8.143  19.910  0.00  0.00    +0.000 N 
ATOM      6  N   UNL     1       2.467   8.149  18.968  0.00  0.00    +0.000 NA
ATOM      7  C   UNL     1       2.909   6.886  18.967  0.00  0.00    +0.000 A 
ATOM      8  C   UNL     1       3.948   6.331  18.132  0.00  0.00    +0.000 A 
ATOM      9  C   UNL     1       4.558   7.098  17.135  0.00  0.00    +0.000 A 
ATOM     10  C   UNL     1       5.551   6.534  16.340  0.00  0.00    +0.000 A 
ATOM     11  C   UNL     1       5.977   5.226  16.583  0.00  0.00    +0.000 A 
ATOM     12  C   UNL     1       5.330   4.441  17.550  0.00  0.00    +0.000 A 
ATOM     13  C   UNL     1       4.307   4.976  18.348  0.00  0.00    +0.000 A 
ATOM     14  N   UNL     1       3.632   4.199  19.369  0.00  0.00    +0.000 N 
ATOM     15  H   UNL     1       1.008   9.010  20.099  0.00  0.00    +0.000 HD
ENDROOT
BRANCH  11  16
ATOM     16  O   UNL     1       6.993   4.601  15.890  0.00  0.00    +0.000 OA
BRANCH  16  17
ATOM     17  C   UNL     1       6.894   4.462  14.528  0.00  0.00    +0.000 A 
ATOM     18  C   UNL     1       7.711   5.111  13.602  0.00  0.00    +0.000 A 
ATOM     19  C   UNL     1       7.462   4.954  12.241  0.00  0.00    +0.000 A 
ATOM     20  C   UNL     1       6.442   4.099  11.853  0.00  0.00    +0.000 A 
ATOM     21  N   UNL     1       5.686   3.391  12.721  0.00  0.00    +0.000 NA
ATOM     22  C   UNL     1       5.935   3.585  14.039  0.00  0.00    +0.000 A 
ENDBRANCH  16  17
ENDBRANCH  11  16
BRANCH  14  23
ATOM     23  C   UNL     1       3.976   2.793  19.615  0.00  0.00    +0.000 C 
BRANCH  23  24
ATOM     24  C   UNL     1       3.209   1.774  18.768  0.00  0.00    +0.000 C 
ATOM     25  F   UNL     1       2.896   2.241  17.540  0.00  0.00    +0.000 F 
ATOM     26  F   UNL     1       3.963   0.660  18.591  0.00  0.00    +0.000 F 
ATOM     27  F   UNL     1       2.063   1.386  19.369  0.00  0.00    +0.000 F 
ENDBRANCH  23  24
ENDBRANCH  14  23
TORSDOF 4
ENDMDL
MODEL 8
REMARK VINA RESULT:      -7.7      3.029      4.066
REMARK  Name = 
REMARK  4 active torsions:
REMARK  status: ('A' for Active; 'I' for Inactive)
REMARK    1  A    between atoms: C_11  and  O_12
REMARK    2  A    between atoms: O_12  and  C_13
REMARK    3  A    between atoms: N_21  and  C_22
REMARK    4  A    between atoms: C_22  and  C_23
REMARK                            x       y       z     vdW  Elec       q    Type
REMARK                         _______ _______ _______ _____ _____    ______ ____
ROOT
ATOM      1  O   UNL     1       5.108   3.705  16.209  0.00  0.00    +0.000 OA
ATOM      2  C   UNL     1       4.373   4.029  17.136  0.00  0.00    +0.000 A 
ATOM      3  C   UNL     1       3.646   3.054  17.912  0.00  0.00    +0.000 A 
ATOM      4  C   UNL     1       3.626   1.681  17.859  0.00  0.00    +0.000 A 
ATOM      5  N   UNL     1       2.767   1.289  18.845  0.00  0.00    +0.000 N 
ATOM      6  N   UNL     1       2.227   2.318  19.528  0.00  0.00    +0.000 NA
ATOM      7  C   UNL     1       2.765   3.396  18.944  0.00  0.00    +0.000 A 
ATOM      8  C   UNL     1       2.522   4.779  19.282  0.00  0.00    +0.000 A 
ATOM      9  C   UNL     1       1.580   5.128  20.255  0.00  0.00    +0.000 A 
ATOM     10  C   UNL     1       1.362   6.469  20.554  0.00  0.00    +0.000 A 
ATOM     11  C   UNL     1       2.127   7.455  19.928  0.00  0.00    +0.000 A 
ATOM     12  C   UNL     1       3.036   7.107  18.917  0.00  0.00    +0.000 A 
ATOM     13  C   UNL     1       3.257   5.764  18.576  0.00  0.00    +0.000 A 
ATOM     14  N   UNL     1       4.202   5.369  17.549  0.00  0.00    +0.000 N 
ATOM     15  H   UNL     1       2.505   0.345  19.111  0.00  0.00    +0.000 HD
ENDROOT
BRANCH  11  16
ATOM     16  O   UNL     1       2.025   8.804  20.201  0.00  0.00    +0.000 OA
BRANCH  16  17
ATOM     17  C   UNL     1       0.903   9.489  19.807  0.00  0.00    +0.000 A 
ATOM     18  C   UNL     1       0.019  10.131  20.674  0.00  0.00    +0.000 A 
ATOM     19  C   UNL     1      -1.130  10.726  20.163  0.00  0.00    +0.000 A 
ATOM     20  C   UNL     1      -1.324  10.713  18.791  0.00  0.00    +0.000 A 
ATOM     21  N   UNL     1      -0.447  10.174  17.915  0.00  0.00    +0.000 NA
ATOM     22  C   UNL     1       0.650   9.579  18.445  0.00  0.00    +0.000 A 
ENDBRANCH  16  17
ENDBRANCH  11  16
BRANCH  14  23
ATOM     23  C   UNL     1       4.975   6.365  16.796  0.00  0.00    +0.000 C 
BRANCH  23  24
ATOM     24  C   UNL     1       6.377   6.652  17.340  0.00  0.00    +0.000 C 
ATOM     25  F   UNL     1       6.646   7.973  17.426  0.00  0.00    +0.000 F 
ATOM     26  F   UNL     1       6.502   6.138  18.589  0.00  0.00    +0.000 F 
ATOM     27  F   UNL     1       7.336   6.082  16.578  0.00  0.00    +0.000 F 
ENDBRANCH  23  24
ENDBRANCH  14  23
TORSDOF 4
ENDMDL
MODEL 9
REMARK VINA RESULT:      -7.7      2.586      3.954
REMARK  Name = 
REMARK  4 active torsions:
REMARK  status: ('A' for Active; 'I' for Inactive)
REMARK    1  A    between atoms: C_11  and  O_12
REMARK    2  A    between atoms: O_12  and  C_13
REMARK    3  A    between atoms: N_21  and  C_22
REMARK    4  A    between atoms: C_22  and  C_23
REMARK                            x       y       z     vdW  Elec       q    Type
REMARK                         _______ _______ _______ _____ _____    ______ ____
ROOT
ATOM      1  O   UNL     1       4.055   2.387  17.958  0.00  0.00    +0.000 OA
ATOM      2  C   UNL     1       3.595   3.338  18.583  0.00  0.00    +0.000 A 
ATOM      3  C   UNL     1       3.103   3.200  19.931  0.00  0.00    +0.000 A 
ATOM      4  C   UNL     1       3.068   2.121  20.782  0.00  0.00    +0.000 A 
ATOM      5  N   UNL     1       2.504   2.582  21.936  0.00  0.00    +0.000 N 
ATOM      6  N   UNL     1       2.168   3.887  21.886  0.00  0.00    +0.000 NA
ATOM      7  C   UNL     1       2.531   4.255  20.652  0.00  0.00    +0.000 A 
ATOM      8  C   UNL     1       2.388   5.565  20.060  0.00  0.00    +0.000 A 
ATOM      9  C   UNL     1       1.742   6.599  20.744  0.00  0.00    +0.000 A 
ATOM     10  C   UNL     1       1.614   7.848  20.145  0.00  0.00    +0.000 A 
ATOM     11  C   UNL     1       2.184   8.080  18.891  0.00  0.00    +0.000 A 
ATOM     12  C   UNL     1       2.788   7.029  18.185  0.00  0.00    +0.000 A 
ATOM     13  C   UNL     1       2.908   5.752  18.754  0.00  0.00    +0.000 A 
ATOM     14  N   UNL     1       3.543   4.649  18.058  0.00  0.00    +0.000 N 
ATOM     15  H   UNL     1       2.322   2.071  22.794  0.00  0.00    +0.000 HD
ENDROOT
BRANCH  11  16
ATOM     16  O   UNL     1       2.160   9.299  18.244  0.00  0.00    +0.000 OA
BRANCH  16  17
ATOM     17  C   UNL     1       1.055  10.105  18.363  0.00  0.00    +0.000 A 
ATOM     18  C   UNL     1      -0.222   9.771  17.913  0.00  0.00    +0.000 A 
ATOM     19  C   UNL     1      -1.249  10.705  18.017  0.00  0.00    +0.000 A 
ATOM     20  C   UNL     1      -0.976  11.919  18.627  0.00  0.00    +0.000 A 
ATOM     21  N   UNL     1       0.228  12.242  19.148  0.00  0.00    +0.000 NA
ATOM     22  C   UNL     1       1.215  11.324  19.008  0.00  0.00    +0.000 A 
ENDBRANCH  16  17
ENDBRANCH  11  16
BRANCH  14  23
ATOM     23  C   UNL     1       4.087   4.808  16.704  0.00  0.00    +0.000 C 
BRANCH  23  24
ATOM     24  C   UNL     1       5.559   5.220  16.635  0.00  0.00    +0.000 C 
ATOM     25  F   UNL     1       5.751   6.374  15.959  0.00  0.00    +0.000 F 
ATOM     26  F   UNL     1       6.046   5.407  17.888  0.00  0.00    +0.000 F 
ATOM     27  F   UNL     1       6.319   4.267  16.053  0.00  0.00    +0.000 F 
ENDBRANCH  23  24
ENDBRANCH  14  23
TORSDOF 4
ENDMDL
