MODEL 1
REMARK VINA RESULT:      -8.1      0.000      0.000
REMARK  Name = 
REMARK  8 active torsions:
REMARK  status: ('A' for Active; 'I' for Inactive)
REMARK    1  A    between atoms: C_1  and  N_2
REMARK    2  A    between atoms: N_9  and  C_10
REMARK    3  A    between atoms: C_10  and  C_11
REMARK    4  A    between atoms: C_11  and  O_13
REMARK    5  A    between atoms: O_13  and  C_14
REMARK    6  A    between atoms: C_14  and  C_15
REMARK    7  A    between atoms: N_17  and  C_18
REMARK    8  A    between atoms: N_25  and  C_26
REMARK                            x       y       z     vdW  Elec       q    Type
REMARK                         _______ _______ _______ _____ _____    ______ ____
ROOT
ATOM      1  C   UNL     1       6.700   6.634  16.726  0.00  0.00    +0.000 C 
ATOM      2  O   UNL     1       7.443   5.672  16.875  0.00  0.00    +0.000 OA
ENDROOT
BRANCH   1   3
ATOM      3  C   UNL     1       5.242   6.575  16.284  0.00  0.00    +0.000 C 
BRANCH   3  12
ATOM      4  C   UNL     1       3.715   1.460  18.192  0.00  0.00    +0.000 C 
ATOM      5  N   UNL     1       3.466   2.877  18.374  0.00  0.00    +0.000 N 
ATOM      6  C   UNL     1       4.166   3.801  17.579  0.00  0.00    +0.000 A 
ATOM      7  O   UNL     1       4.990   3.488  16.726  0.00  0.00    +0.000 OA
ATOM      8  C   UNL     1       3.821   5.158  17.863  0.00  0.00    +0.000 A 
ATOM      9  C   UNL     1       2.899   5.485  18.813  0.00  0.00    +0.000 A 
ATOM     10  N   UNL     1       2.718   6.820  18.916  0.00  0.00    +0.000 NA
ATOM     11  C   UNL     1       3.534   7.333  18.019  0.00  0.00    +0.000 A 
ATOM     12  N   UNL     1       4.252   6.369  17.351  0.00  0.00    +0.000 N 
ATOM     13  N   UNL     1       2.239   4.544  19.565  0.00  0.00    +0.000 N 
ATOM     14  C   UNL     1       1.262   4.924  20.566  0.00  0.00    +0.000 C 
ATOM     15  C   UNL     1       2.512   3.198  19.361  0.00  0.00    +0.000 A 
ATOM     16  O   UNL     1       1.941   2.320  20.017  0.00  0.00    +0.000 OA
ENDBRANCH   3  12
ENDBRANCH   1   3
BRANCH   1  17
ATOM     17  O   UNL     1       7.095   7.923  16.982  0.00  0.00    +0.000 OA
BRANCH  17  18
ATOM     18  C   UNL     1       8.166   7.991  17.948  0.00  0.00    +0.000 C 
BRANCH  18  19
ATOM     19  C   UNL     1       8.413   9.435  18.376  0.00  0.00    +0.000 C 
ATOM     20  O   UNL     1       7.868  10.382  17.779  0.00  0.00    +0.000 OA
ATOM     21  N   UNL     1       9.306   9.598  19.420  0.00  0.00    +0.000 N 
ATOM     22  H   UNL     1      10.010   8.873  19.529  0.00  0.00    +0.000 HD
BRANCH  21  23
ATOM     23  C   UNL     1       9.646  10.899  19.879  0.00  0.00    +0.000 A 
ATOM     24  C   UNL     1       9.090  11.349  21.085  0.00  0.00    +0.000 A 
ATOM     25  C   UNL     1       9.469  12.583  21.622  0.00  0.00    +0.000 A 
ATOM     26  C   UNL     1      10.396  13.384  20.957  0.00  0.00    +0.000 A 
ATOM     27  C   UNL     1      10.922  12.964  19.736  0.00  0.00    +0.000 A 
ATOM     28  C   UNL     1      10.543  11.732  19.193  0.00  0.00    +0.000 A 
ATOM     29 CL   UNL     1      11.087  11.374  17.592  0.00  0.00    +0.000 Cl
ENDBRANCH  21  23
ENDBRANCH  18  19
ENDBRANCH  17  18
ENDBRANCH   1  17
TORSDOF 6
ENDMDL
MODEL 2
REMARK VINA RESULT:      -8.0      4.270      7.161
REMARK  Name = 
REMARK  8 active torsions:
REMARK  status: ('A' for Active; 'I' for Inactive)
REMARK    1  A    between atoms: C_1  and  N_2
REMARK    2  A    between atoms: N_9  and  C_10
REMARK    3  A    between atoms: C_10  and  C_11
REMARK    4  A    between atoms: C_11  and  O_13
REMARK    5  A    between atoms: O_13  and  C_14
REMARK    6  A    between atoms: C_14  and  C_15
REMARK    7  A    between atoms: N_17  and  C_18
REMARK    8  A    between atoms: N_25  and  C_26
REMARK                            x       y       z     vdW  Elec       q    Type
REMARK                         _______ _______ _______ _____ _____    ______ ____
ROOT
ATOM      1  C   UNL     1       1.790   2.437  19.811  0.00  0.00    +0.000 C 
ATOM      2  O   UNL     1       0.936   2.090  19.004  0.00  0.00    +0.000 OA
ENDROOT
BRANCH   1   3
ATOM      3  C   UNL     1       3.290   2.506  19.548  0.00  0.00    +0.000 C 
BRANCH   3  12
ATOM      4  C   UNL     1       7.749   5.982  19.158  0.00  0.00    +0.000 C 
ATOM      5  N   UNL     1       6.675   5.398  18.378  0.00  0.00    +0.000 N 
ATOM      6  C   UNL     1       5.767   4.531  19.011  0.00  0.00    +0.000 A 
ATOM      7  O   UNL     1       5.820   4.227  20.197  0.00  0.00    +0.000 OA
ATOM      8  C   UNL     1       4.761   4.033  18.126  0.00  0.00    +0.000 A 
ATOM      9  C   UNL     1       4.717   4.387  16.810  0.00  0.00    +0.000 A 
ATOM     10  N   UNL     1       3.686   3.808  16.156  0.00  0.00    +0.000 NA
ATOM     11  C   UNL     1       3.076   3.087  17.074  0.00  0.00    +0.000 A 
ATOM     12  N   UNL     1       3.696   3.167  18.300  0.00  0.00    +0.000 N 
ATOM     13  N   UNL     1       5.629   5.240  16.238  0.00  0.00    +0.000 N 
ATOM     14  C   UNL     1       5.553   5.599  14.836  0.00  0.00    +0.000 C 
ATOM     15  C   UNL     1       6.645   5.773  17.020  0.00  0.00    +0.000 A 
ATOM     16  O   UNL     1       7.485   6.543  16.544  0.00  0.00    +0.000 OA
ENDBRANCH   3  12
ENDBRANCH   1   3
BRANCH   1  17
ATOM     17  O   UNL     1       1.483   2.853  21.082  0.00  0.00    +0.000 OA
BRANCH  17  18
ATOM     18  C   UNL     1       2.203   4.046  21.462  0.00  0.00    +0.000 C 
BRANCH  18  19
ATOM     19  C   UNL     1       1.670   5.260  20.707  0.00  0.00    +0.000 C 
ATOM     20  O   UNL     1       0.483   5.310  20.332  0.00  0.00    +0.000 OA
ATOM     21  N   UNL     1       2.602   6.246  20.440  0.00  0.00    +0.000 N 
ATOM     22  H   UNL     1       3.570   5.945  20.366  0.00  0.00    +0.000 HD
BRANCH  21  23
ATOM     23  C   UNL     1       2.232   7.406  19.708  0.00  0.00    +0.000 A 
ATOM     24  C   UNL     1       2.573   7.477  18.350  0.00  0.00    +0.000 A 
ATOM     25  C   UNL     1       2.147   8.556  17.568  0.00  0.00    +0.000 A 
ATOM     26  C   UNL     1       1.389   9.578  18.135  0.00  0.00    +0.000 A 
ATOM     27  C   UNL     1       1.081   9.538  19.494  0.00  0.00    +0.000 A 
ATOM     28  C   UNL     1       1.507   8.463  20.281  0.00  0.00    +0.000 A 
ATOM     29 CL   UNL     1       1.254   8.583  21.987  0.00  0.00    +0.000 Cl
ENDBRANCH  21  23
ENDBRANCH  18  19
ENDBRANCH  17  18
ENDBRANCH   1  17
TORSDOF 6
ENDMDL
MODEL 3
REMARK VINA RESULT:      -7.9      1.053      1.420
REMARK  Name = 
REMARK  8 active torsions:
REMARK  status: ('A' for Active; 'I' for Inactive)
REMARK    1  A    between atoms: C_1  and  N_2
REMARK    2  A    between atoms: N_9  and  C_10
REMARK    3  A    between atoms: C_10  and  C_11
REMARK    4  A    between atoms: C_11  and  O_13
REMARK    5  A    between atoms: O_13  and  C_14
REMARK    6  A    between atoms: C_14  and  C_15
REMARK    7  A    between atoms: N_17  and  C_18
REMARK    8  A    between atoms: N_25  and  C_26
REMARK                            x       y       z     vdW  Elec       q    Type
REMARK                         _______ _______ _______ _____ _____    ______ ____
ROOT
ATOM      1  C   UNL     1       7.022   6.217  16.704  0.00  0.00    +0.000 C 
ATOM      2  O   UNL     1       7.612   5.185  16.999  0.00  0.00    +0.000 OA
ENDROOT
BRANCH   1   3
ATOM      3  C   UNL     1       5.571   6.313  16.246  0.00  0.00    +0.000 C 
BRANCH   3  12
ATOM      4  C   UNL     1       3.561   1.417  18.274  0.00  0.00    +0.000 C 
ATOM      5  N   UNL     1       3.439   2.855  18.413  0.00  0.00    +0.000 N 
ATOM      6  C   UNL     1       4.231   3.688  17.602  0.00  0.00    +0.000 A 
ATOM      7  O   UNL     1       5.034   3.276  16.771  0.00  0.00    +0.000 OA
ATOM      8  C   UNL     1       4.007   5.078  17.842  0.00  0.00    +0.000 A 
ATOM      9  C   UNL     1       3.107   5.516  18.768  0.00  0.00    +0.000 A 
ATOM     10  N   UNL     1       3.047   6.864  18.831  0.00  0.00    +0.000 NA
ATOM     11  C   UNL     1       3.917   7.274  17.932  0.00  0.00    +0.000 A 
ATOM     12  N   UNL     1       4.553   6.229  17.303  0.00  0.00    +0.000 N 
ATOM     13  N   UNL     1       2.354   4.661  19.537  0.00  0.00    +0.000 N 
ATOM     14  C   UNL     1       1.403   5.157  20.511  0.00  0.00    +0.000 C 
ATOM     15  C   UNL     1       2.506   3.290  19.375  0.00  0.00    +0.000 A 
ATOM     16  O   UNL     1       1.850   2.488  20.047  0.00  0.00    +0.000 OA
ENDBRANCH   3  12
ENDBRANCH   1   3
BRANCH   1  17
ATOM     17  O   UNL     1       7.606   7.455  16.787  0.00  0.00    +0.000 OA
BRANCH  17  18
ATOM     18  C   UNL     1       7.973   7.804  18.139  0.00  0.00    +0.000 C 
BRANCH  18  19
ATOM     19  C   UNL     1       8.368   9.275  18.227  0.00  0.00    +0.000 C 
ATOM     20  O   UNL     1       7.843  10.125  17.483  0.00  0.00    +0.000 OA
ATOM     21  N   UNL     1       9.364   9.566  19.141  0.00  0.00    +0.000 N 
ATOM     22  H   UNL     1      10.018   8.817  19.351  0.00  0.00    +0.000 HD
BRANCH  21  23
ATOM     23  C   UNL     1       9.844  10.896  19.284  0.00  0.00    +0.000 A 
ATOM     24  C   UNL     1      10.688  11.413  18.291  0.00  0.00    +0.000 A 
ATOM     25  C   UNL     1      11.108  12.746  18.341  0.00  0.00    +0.000 A 
ATOM     26  C   UNL     1      10.699  13.572  19.386  0.00  0.00    +0.000 A 
ATOM     27  C   UNL     1       9.894  13.056  20.401  0.00  0.00    +0.000 A 
ATOM     28  C   UNL     1       9.475  11.722  20.357  0.00  0.00    +0.000 A 
ATOM     29 CL   UNL     1       8.645  11.109  21.744  0.00  0.00    +0.000 Cl
ENDBRANCH  21  23
ENDBRANCH  18  19
ENDBRANCH  17  18
ENDBRANCH   1  17
TORSDOF 6
ENDMDL
MODEL 4
REMARK VINA RESULT:      -7.6      1.536      2.654
REMARK  Name = 
REMARK  8 active torsions:
REMARK  status: ('A' for Active; 'I' for Inactive)
REMARK    1  A    between atoms: C_1  and  N_2
REMARK    2  A    between atoms: N_9  and  C_10
REMARK    3  A    between atoms: C_10  and  C_11
REMARK    4  A    between atoms: C_11  and  O_13
REMARK    5  A    between atoms: O_13  and  C_14
REMARK    6  A    between atoms: C_14  and  C_15
REMARK    7  A    between atoms: N_17  and  C_18
REMARK    8  A    between atoms: N_25  and  C_26
REMARK                            x       y       z     vdW  Elec       q    Type
REMARK                         _______ _______ _______ _____ _____    ______ ____
ROOT
ATOM      1  C   UNL     1       6.981   6.296  16.828  0.00  0.00    +0.000 C 
ATOM      2  O   UNL     1       7.741   5.411  17.202  0.00  0.00    +0.000 OA
ENDROOT
BRANCH   1   3
ATOM      3  C   UNL     1       5.599   6.086  16.220  0.00  0.00    +0.000 C 
BRANCH   3  12
ATOM      4  C   UNL     1       1.790   7.095  20.294  0.00  0.00    +0.000 C 
ATOM      5  N   UNL     1       2.364   6.029  19.495  0.00  0.00    +0.000 N 
ATOM      6  C   UNL     1       3.357   6.344  18.551  0.00  0.00    +0.000 A 
ATOM      7  O   UNL     1       3.780   7.478  18.350  0.00  0.00    +0.000 OA
ATOM      8  C   UNL     1       3.835   5.201  17.839  0.00  0.00    +0.000 A 
ATOM      9  C   UNL     1       3.355   3.948  18.080  0.00  0.00    +0.000 A 
ATOM     10  N   UNL     1       3.944   3.013  17.303  0.00  0.00    +0.000 NA
ATOM     11  C   UNL     1       4.805   3.688  16.571  0.00  0.00    +0.000 A 
ATOM     12  N   UNL     1       4.775   5.038  16.838  0.00  0.00    +0.000 N 
ATOM     13  N   UNL     1       2.382   3.690  19.015  0.00  0.00    +0.000 N 
ATOM     14  C   UNL     1       1.894   2.346  19.250  0.00  0.00    +0.000 C 
ATOM     15  C   UNL     1       1.855   4.741  19.755  0.00  0.00    +0.000 A 
ATOM     16  O   UNL     1       0.979   4.552  20.605  0.00  0.00    +0.000 OA
ENDBRANCH   3  12
ENDBRANCH   1   3
BRANCH   1  17
ATOM     17  O   UNL     1       7.280   7.630  16.948  0.00  0.00    +0.000 OA
BRANCH  17  18
ATOM     18  C   UNL     1       7.986   7.930  18.170  0.00  0.00    +0.000 C 
BRANCH  18  19
ATOM     19  C   UNL     1       8.397   9.400  18.207  0.00  0.00    +0.000 C 
ATOM     20  O   UNL     1       7.864  10.233  17.451  0.00  0.00    +0.000 OA
ATOM     21  N   UNL     1       9.416   9.707  19.091  0.00  0.00    +0.000 N 
ATOM     22  H   UNL     1      10.067   8.957  19.308  0.00  0.00    +0.000 HD
BRANCH  21  23
ATOM     23  C   UNL     1       9.911  11.035  19.184  0.00  0.00    +0.000 A 
ATOM     24  C   UNL     1      10.788  11.494  18.191  0.00  0.00    +0.000 A 
ATOM     25  C   UNL     1      11.225  12.822  18.191  0.00  0.00    +0.000 A 
ATOM     26  C   UNL     1      10.802  13.701  19.185  0.00  0.00    +0.000 A 
ATOM     27  C   UNL     1       9.964  13.244  20.201  0.00  0.00    +0.000 A 
ATOM     28  C   UNL     1       9.526  11.915  20.208  0.00  0.00    +0.000 A 
ATOM     29 CL   UNL     1       8.653  11.378  21.600  0.00  0.00    +0.000 Cl
ENDBRANCH  21  23
ENDBRANCH  18  19
ENDBRANCH  17  18
ENDBRANCH   1  17
TORSDOF 6
ENDMDL
MODEL 5
REMARK VINA RESULT:      -7.6      4.213      7.099
REMARK  Name = 
REMARK  8 active torsions:
REMARK  status: ('A' for Active; 'I' for Inactive)
REMARK    1  A    between atoms: C_1  and  N_2
REMARK    2  A    between atoms: N_9  and  C_10
REMARK    3  A    between atoms: C_10  and  C_11
REMARK    4  A    between atoms: C_11  and  O_13
REMARK    5  A    between atoms: O_13  and  C_14
REMARK    6  A    between atoms: C_14  and  C_15
REMARK    7  A    between atoms: N_17  and  C_18
REMARK    8  A    between atoms: N_25  and  C_26
REMARK                            x       y       z     vdW  Elec       q    Type
REMARK                         _______ _______ _______ _____ _____    ______ ____
ROOT
ATOM      1  C   UNL     1       3.558   2.378  20.491  0.00  0.00    +0.000 C 
ATOM      2  O   UNL     1       4.352   1.914  21.301  0.00  0.00    +0.000 OA
ENDROOT
BRANCH   1   3
ATOM      3  C   UNL     1       3.866   2.722  19.038  0.00  0.00    +0.000 C 
BRANCH   3  12
ATOM      4  C   UNL     1       6.309   3.857  14.051  0.00  0.00    +0.000 C 
ATOM      5  N   UNL     1       6.229   4.319  15.423  0.00  0.00    +0.000 N 
ATOM      6  C   UNL     1       5.411   3.622  16.330  0.00  0.00    +0.000 A 
ATOM      7  O   UNL     1       4.747   2.634  16.038  0.00  0.00    +0.000 OA
ATOM      8  C   UNL     1       5.429   4.183  17.644  0.00  0.00    +0.000 A 
ATOM      9  C   UNL     1       6.177   5.281  17.951  0.00  0.00    +0.000 A 
ATOM     10  N   UNL     1       6.054   5.642  19.247  0.00  0.00    +0.000 NA
ATOM     11  C   UNL     1       5.222   4.759  19.758  0.00  0.00    +0.000 A 
ATOM     12  N   UNL     1       4.787   3.848  18.823  0.00  0.00    +0.000 N 
ATOM     13  N   UNL     1       6.963   5.928  17.028  0.00  0.00    +0.000 N 
ATOM     14  C   UNL     1       7.750   7.091  17.385  0.00  0.00    +0.000 C 
ATOM     15  C   UNL     1       7.006   5.455  15.722  0.00  0.00    +0.000 A 
ATOM     16  O   UNL     1       7.699   6.008  14.862  0.00  0.00    +0.000 OA
ENDBRANCH   3  12
ENDBRANCH   1   3
BRANCH   1  17
ATOM     17  O   UNL     1       2.242   2.618  20.796  0.00  0.00    +0.000 OA
BRANCH  17  18
ATOM     18  C   UNL     1       2.055   3.870  21.490  0.00  0.00    +0.000 C 
BRANCH  18  19
ATOM     19  C   UNL     1       1.727   4.988  20.504  0.00  0.00    +0.000 C 
ATOM     20  O   UNL     1       1.005   4.775  19.512  0.00  0.00    +0.000 OA
ATOM     21  N   UNL     1       2.322   6.207  20.773  0.00  0.00    +0.000 N 
ATOM     22  H   UNL     1       3.199   6.178  21.286  0.00  0.00    +0.000 HD
BRANCH  21  23
ATOM     23  C   UNL     1       2.122   7.312  19.902  0.00  0.00    +0.000 A 
ATOM     24  C   UNL     1       2.692   7.267  18.623  0.00  0.00    +0.000 A 
ATOM     25  C   UNL     1       2.444   8.289  17.700  0.00  0.00    +0.000 A 
ATOM     26  C   UNL     1       1.635   9.368  18.049  0.00  0.00    +0.000 A 
ATOM     27  C   UNL     1       1.098   9.444  19.333  0.00  0.00    +0.000 A 
ATOM     28  C   UNL     1       1.347   8.426  20.260  0.00  0.00    +0.000 A 
ATOM     29 CL   UNL     1       0.810   8.687  21.883  0.00  0.00    +0.000 Cl
ENDBRANCH  21  23
ENDBRANCH  18  19
ENDBRANCH  17  18
ENDBRANCH   1  17
TORSDOF 6
ENDMDL
MODEL 6
REMARK VINA RESULT:      -7.5      4.216      7.364
REMARK  Name = 
REMARK  8 active torsions:
REMARK  status: ('A' for Active; 'I' for Inactive)
REMARK    1  A    between atoms: C_1  and  N_2
REMARK    2  A    between atoms: N_9  and  C_10
REMARK    3  A    between atoms: C_10  and  C_11
REMARK    4  A    between atoms: C_11  and  O_13
REMARK    5  A    between atoms: O_13  and  C_14
REMARK    6  A    between atoms: C_14  and  C_15
REMARK    7  A    between atoms: N_17  and  C_18
REMARK    8  A    between atoms: N_25  and  C_26
REMARK                            x       y       z     vdW  Elec       q    Type
REMARK                         _______ _______ _______ _____ _____    ______ ____
ROOT
ATOM      1  C   UNL     1       2.519   3.739  20.643  0.00  0.00    +0.000 C 
ATOM      2  O   UNL     1       1.867   3.406  21.625  0.00  0.00    +0.000 OA
ENDROOT
BRANCH   1   3
ATOM      3  C   UNL     1       3.798   3.069  20.154  0.00  0.00    +0.000 C 
BRANCH   3  12
ATOM      4  C   UNL     1       7.889   6.556  18.359  0.00  0.00    +0.000 C 
ATOM      5  N   UNL     1       6.873   5.636  17.885  0.00  0.00    +0.000 N 
ATOM      6  C   UNL     1       6.059   4.978  18.824  0.00  0.00    +0.000 A 
ATOM      7  O   UNL     1       6.149   5.128  20.037  0.00  0.00    +0.000 OA
ATOM      8  C   UNL     1       5.102   4.106  18.219  0.00  0.00    +0.000 A 
ATOM      9  C   UNL     1       5.015   3.955  16.867  0.00  0.00    +0.000 A 
ATOM     10  N   UNL     1       4.042   3.090  16.507  0.00  0.00    +0.000 NA
ATOM     11  C   UNL     1       3.512   2.697  17.647  0.00  0.00    +0.000 A 
ATOM     12  N   UNL     1       4.129   3.269  18.736  0.00  0.00    +0.000 N 
ATOM     13  N   UNL     1       5.835   4.623  15.989  0.00  0.00    +0.000 N 
ATOM     14  C   UNL     1       5.715   4.443  14.556  0.00  0.00    +0.000 C 
ATOM     15  C   UNL     1       6.798   5.491  16.486  0.00  0.00    +0.000 A 
ATOM     16  O   UNL     1       7.555   6.109  15.731  0.00  0.00    +0.000 OA
ENDBRANCH   3  12
ENDBRANCH   1   3
BRANCH   1  17
ATOM     17  O   UNL     1       2.145   4.770  19.818  0.00  0.00    +0.000 OA
BRANCH  17  18
ATOM     18  C   UNL     1       2.637   6.049  20.272  0.00  0.00    +0.000 C 
BRANCH  18  19
ATOM     19  C   UNL     1       1.483   6.941  20.722  0.00  0.00    +0.000 C 
ATOM     20  O   UNL     1       0.321   6.499  20.790  0.00  0.00    +0.000 OA
ATOM     21  N   UNL     1       1.821   8.254  20.991  0.00  0.00    +0.000 N 
ATOM     22  H   UNL     1       2.630   8.623  20.496  0.00  0.00    +0.000 HD
BRANCH  21  23
ATOM     23  C   UNL     1       0.824   9.189  21.379  0.00  0.00    +0.000 A 
ATOM     24  C   UNL     1       0.441   9.238  22.727  0.00  0.00    +0.000 A 
ATOM     25  C   UNL     1      -0.467  10.205  23.170  0.00  0.00    +0.000 A 
ATOM     26  C   UNL     1      -1.010  11.122  22.273  0.00  0.00    +0.000 A 
ATOM     27  C   UNL     1      -0.669  11.054  20.923  0.00  0.00    +0.000 A 
ATOM     28  C   UNL     1       0.237  10.087  20.474  0.00  0.00    +0.000 A 
ATOM     29 CL   UNL     1       0.457   9.944  18.765  0.00  0.00    +0.000 Cl
ENDBRANCH  21  23
ENDBRANCH  18  19
ENDBRANCH  17  18
ENDBRANCH   1  17
TORSDOF 6
ENDMDL
MODEL 7
REMARK VINA RESULT:      -7.4      5.705      8.785
REMARK  Name = 
REMARK  8 active torsions:
REMARK  status: ('A' for Active; 'I' for Inactive)
REMARK    1  A    between atoms: C_1  and  N_2
REMARK    2  A    between atoms: N_9  and  C_10
REMARK    3  A    between atoms: C_10  and  C_11
REMARK    4  A    between atoms: C_11  and  O_13
REMARK    5  A    between atoms: O_13  and  C_14
REMARK    6  A    between atoms: C_14  and  C_15
REMARK    7  A    between atoms: N_17  and  C_18
REMARK    8  A    between atoms: N_25  and  C_26
REMARK                            x       y       z     vdW  Elec       q    Type
REMARK                         _______ _______ _______ _____ _____    ______ ____
ROOT
ATOM      1  C   UNL     1       1.140   8.792  21.184  0.00  0.00    +0.000 C 
ATOM      2  O   UNL     1       1.678   8.739  22.283  0.00  0.00    +0.000 OA
ENDROOT
BRANCH   1   3
ATOM      3  C   UNL     1       1.735   8.287  19.875  0.00  0.00    +0.000 C 
BRANCH   3  12
ATOM      4  C   UNL     1       5.168   6.039  15.965  0.00  0.00    +0.000 C 
ATOM      5  N   UNL     1       4.379   5.700  17.134  0.00  0.00    +0.000 N 
ATOM      6  C   UNL     1       3.655   6.715  17.785  0.00  0.00    +0.000 A 
ATOM      7  O   UNL     1       3.644   7.888  17.429  0.00  0.00    +0.000 OA
ATOM      8  C   UNL     1       2.923   6.240  18.917  0.00  0.00    +0.000 A 
ATOM      9  C   UNL     1       2.945   4.930  19.294  0.00  0.00    +0.000 A 
ATOM     10  N   UNL     1       2.181   4.696  20.384  0.00  0.00    +0.000 NA
ATOM     11  C   UNL     1       1.673   5.871  20.689  0.00  0.00    +0.000 A 
ATOM     12  N   UNL     1       2.103   6.864  19.840  0.00  0.00    +0.000 N 
ATOM     13  N   UNL     1       3.668   3.974  18.623  0.00  0.00    +0.000 N 
ATOM     14  C   UNL     1       3.669   2.589  19.048  0.00  0.00    +0.000 C 
ATOM     15  C   UNL     1       4.415   4.343  17.512  0.00  0.00    +0.000 A 
ATOM     16  O   UNL     1       5.079   3.514  16.881  0.00  0.00    +0.000 OA
ENDBRANCH   3  12
ENDBRANCH   1   3
BRANCH   1  17
ATOM     17  O   UNL     1      -0.122   9.299  21.000  0.00  0.00    +0.000 OA
BRANCH  17  18
ATOM     18  C   UNL     1      -0.119  10.728  20.794  0.00  0.00    +0.000 C 
BRANCH  18  19
ATOM     19  C   UNL     1      -0.774  11.080  19.461  0.00  0.00    +0.000 C 
ATOM     20  O   UNL     1      -0.450  12.110  18.840  0.00  0.00    +0.000 OA
ATOM     21  N   UNL     1      -1.764  10.210  19.041  0.00  0.00    +0.000 N 
ATOM     22  H   UNL     1      -2.258   9.702  19.769  0.00  0.00    +0.000 HD
BRANCH  21  23
ATOM     23  C   UNL     1      -2.473  10.457  17.835  0.00  0.00    +0.000 A 
ATOM     24  C   UNL     1      -1.997   9.882  16.648  0.00  0.00    +0.000 A 
ATOM     25  C   UNL     1      -2.714  10.020  15.456  0.00  0.00    +0.000 A 
ATOM     26  C   UNL     1      -3.906  10.741  15.433  0.00  0.00    +0.000 A 
ATOM     27  C   UNL     1      -4.366  11.353  16.598  0.00  0.00    +0.000 A 
ATOM     28  C   UNL     1      -3.650  11.221  17.792  0.00  0.00    +0.000 A 
ATOM     29 CL   UNL     1      -4.179  12.166  19.140  0.00  0.00    +0.000 Cl
ENDBRANCH  21  23
ENDBRANCH  18  19
ENDBRANCH  17  18
ENDBRANCH   1  17
TORSDOF 6
ENDMDL
MODEL 8
REMARK VINA RESULT:      -7.4      1.557      2.598
REMARK  Name = 
REMARK  8 active torsions:
REMARK  status: ('A' for Active; 'I' for Inactive)
REMARK    1  A    between atoms: C_1  and  N_2
REMARK    2  A    between atoms: N_9  and  C_10
REMARK    3  A    between atoms: C_10  and  C_11
REMARK    4  A    between atoms: C_11  and  O_13
REMARK    5  A    between atoms: O_13  and  C_14
REMARK    6  A    between atoms: C_14  and  C_15
REMARK    7  A    between atoms: N_17  and  C_18
REMARK    8  A    between atoms: N_25  and  C_26
REMARK                            x       y       z     vdW  Elec       q    Type
REMARK                         _______ _______ _______ _____ _____    ______ ____
ROOT
ATOM      1  C   UNL     1       6.836   7.285  16.994  0.00  0.00    +0.000 C 
ATOM      2  O   UNL     1       7.701   6.545  16.541  0.00  0.00    +0.000 OA
ENDROOT
BRANCH   1   3
ATOM      3  C   UNL     1       5.348   6.966  17.083  0.00  0.00    +0.000 C 
BRANCH   3  12
ATOM      4  C   UNL     1       1.520   5.060  20.803  0.00  0.00    +0.000 C 
ATOM      5  N   UNL     1       2.444   4.619  19.776  0.00  0.00    +0.000 N 
ATOM      6  C   UNL     1       3.223   5.577  19.102  0.00  0.00    +0.000 A 
ATOM      7  O   UNL     1       3.175   6.782  19.325  0.00  0.00    +0.000 OA
ATOM      8  C   UNL     1       4.088   5.003  18.121  0.00  0.00    +0.000 A 
ATOM      9  C   UNL     1       4.130   3.660  17.891  0.00  0.00    +0.000 A 
ATOM     10  N   UNL     1       5.018   3.330  16.928  0.00  0.00    +0.000 NA
ATOM     11  C   UNL     1       5.541   4.479  16.554  0.00  0.00    +0.000 A 
ATOM     12  N   UNL     1       5.000   5.546  17.233  0.00  0.00    +0.000 N 
ATOM     13  N   UNL     1       3.348   2.762  18.577  0.00  0.00    +0.000 N 
ATOM     14  C   UNL     1       3.418   1.339  18.311  0.00  0.00    +0.000 C 
ATOM     15  C   UNL     1       2.473   3.228  19.549  0.00  0.00    +0.000 A 
ATOM     16  O   UNL     1       1.752   2.455  20.188  0.00  0.00    +0.000 OA
ENDBRANCH   3  12
ENDBRANCH   1   3
BRANCH   1  17
ATOM     17  O   UNL     1       7.119   8.518  17.527  0.00  0.00    +0.000 OA
BRANCH  17  18
ATOM     18  C   UNL     1       8.335   8.519  18.304  0.00  0.00    +0.000 C 
BRANCH  18  19
ATOM     19  C   UNL     1       8.793   9.947  18.584  0.00  0.00    +0.000 C 
ATOM     20  O   UNL     1       8.511  10.875  17.803  0.00  0.00    +0.000 OA
ATOM     21  N   UNL     1       9.568  10.108  19.719  0.00  0.00    +0.000 N 
ATOM     22  H   UNL     1      10.106   9.298  20.017  0.00  0.00    +0.000 HD
BRANCH  21  23
ATOM     23  C   UNL     1      10.087  11.386  20.060  0.00  0.00    +0.000 A 
ATOM     24  C   UNL     1      11.191  11.872  19.346  0.00  0.00    +0.000 A 
ATOM     25  C   UNL     1      11.676  13.162  19.584  0.00  0.00    +0.000 A 
ATOM     26  C   UNL     1      11.072  13.974  20.541  0.00  0.00    +0.000 A 
ATOM     27  C   UNL     1      10.000  13.484  21.287  0.00  0.00    +0.000 A 
ATOM     28  C   UNL     1       9.514  12.193  21.055  0.00  0.00    +0.000 A 
ATOM     29 CL   UNL     1       8.317  11.592  22.148  0.00  0.00    +0.000 Cl
ENDBRANCH  21  23
ENDBRANCH  18  19
ENDBRANCH  17  18
ENDBRANCH   1  17
TORSDOF 6
ENDMDL
MODEL 9
REMARK VINA RESULT:      -7.3      4.065      7.192
REMARK  Name = 
REMARK  8 active torsions:
REMARK  status: ('A' for Active; 'I' for Inactive)
REMARK    1  A    between atoms: C_1  and  N_2
REMARK    2  A    between atoms: N_9  and  C_10
REMARK    3  A    between atoms: C_10  and  C_11
REMARK    4  A    between atoms: C_11  and  O_13
REMARK    5  A    between atoms: O_13  and  C_14
REMARK    6  A    between atoms: C_14  and  C_15
REMARK    7  A    between atoms: N_17  and  C_18
REMARK    8  A    between atoms: N_25  and  C_26
REMARK                            x       y       z     vdW  Elec       q    Type
REMARK                         _______ _______ _______ _____ _____    ______ ____
ROOT
ATOM      1  C   UNL     1       2.163   2.838  20.182  0.00  0.00    +0.000 C 
ATOM      2  O   UNL     1       1.245   2.287  19.587  0.00  0.00    +0.000 OA
ENDROOT
BRANCH   1   3
ATOM      3  C   UNL     1       3.641   2.749  19.818  0.00  0.00    +0.000 C 
BRANCH   3  12
ATOM      4  C   UNL     1       7.888   6.367  18.821  0.00  0.00    +0.000 C 
ATOM      5  N   UNL     1       6.848   5.605  18.158  0.00  0.00    +0.000 N 
ATOM      6  C   UNL     1       5.993   4.800  18.933  0.00  0.00    +0.000 A 
ATOM      7  O   UNL     1       6.067   4.695  20.152  0.00  0.00    +0.000 OA
ATOM      8  C   UNL     1       5.017   4.109  18.152  0.00  0.00    +0.000 A 
ATOM      9  C   UNL     1       4.948   4.243  16.797  0.00  0.00    +0.000 A 
ATOM     10  N   UNL     1       3.951   3.508  16.257  0.00  0.00    +0.000 NA
ATOM     11  C   UNL     1       3.387   2.911  17.286  0.00  0.00    +0.000 A 
ATOM     12  N   UNL     1       4.005   3.223  18.475  0.00  0.00    +0.000 N 
ATOM     13  N   UNL     1       5.807   5.043  16.083  0.00  0.00    +0.000 N 
ATOM     14  C   UNL     1       5.707   5.167  14.643  0.00  0.00    +0.000 C 
ATOM     15  C   UNL     1       6.793   5.752  16.757  0.00  0.00    +0.000 A 
ATOM     16  O   UNL     1       7.585   6.483  16.154  0.00  0.00    +0.000 OA
ENDBRANCH   3  12
ENDBRANCH   1   3
BRANCH   1  17
ATOM     17  O   UNL     1       1.960   3.659  21.263  0.00  0.00    +0.000 OA
BRANCH  17  18
ATOM     18  C   UNL     1       2.630   4.930  21.126  0.00  0.00    +0.000 C 
BRANCH  18  19
ATOM     19  C   UNL     1       1.632   6.028  20.767  0.00  0.00    +0.000 C 
ATOM     20  O   UNL     1       0.462   5.750  20.448  0.00  0.00    +0.000 OA
ATOM     21  N   UNL     1       2.140   7.314  20.780  0.00  0.00    +0.000 N 
ATOM     22  H   UNL     1       3.136   7.409  20.602  0.00  0.00    +0.000 HD
BRANCH  21  23
ATOM     23  C   UNL     1       1.315   8.416  20.424  0.00  0.00    +0.000 A 
ATOM     24  C   UNL     1       0.478   8.969  21.403  0.00  0.00    +0.000 A 
ATOM     25  C   UNL     1      -0.280  10.110  21.124  0.00  0.00    +0.000 A 
ATOM     26  C   UNL     1      -0.218  10.704  19.865  0.00  0.00    +0.000 A 
ATOM     27  C   UNL     1       0.579  10.137  18.872  0.00  0.00    +0.000 A 
ATOM     28  C   UNL     1       1.336   8.993  19.145  0.00  0.00    +0.000 A 
ATOM     29 CL   UNL     1       2.142   8.242  17.812  0.00  0.00    +0.000 Cl
ENDBRANCH  21  23
ENDBRANCH  18  19
ENDBRANCH  17  18
ENDBRANCH   1  17
TORSDOF 6
ENDMDL
