MODEL 1
REMARK VINA RESULT:      -8.0      0.000      0.000
REMARK  Name = 
REMARK  12 active torsions:
REMARK  status: ('A' for Active; 'I' for Inactive)
REMARK    1  A    between atoms: C_1  and  C_2
REMARK    2  A    between atoms: C_2  and  N_3
REMARK    3  A    between atoms: N_3  and  C_4
REMARK    4  A    between atoms: C_4  and  C_5
REMARK    5  A    between atoms: C_6  and  C_7
REMARK    6  A    between atoms: N_8  and  C_9
REMARK    7  A    between atoms: C_20  and  N_21
REMARK    8  A    between atoms: C_22  and  C_23
REMARK    9  A    between atoms: N_24  and  C_25
REMARK   10  A    between atoms: N_24  and  C_27
REMARK   11  A    between atoms: C_25  and  C_26
REMARK   12  A    between atoms: C_27  and  C_28
REMARK                            x       y       z     vdW  Elec       q    Type
REMARK                         _______ _______ _______ _____ _____    ______ ____
ROOT
ATOM      1  C   UNL     1      -2.392  12.318  21.989  0.00  0.00    +0.000 A 
ATOM      2  C   UNL     1      -1.908  11.652  23.123  0.00  0.00    +0.000 A 
ATOM      3  C   UNL     1      -0.870  10.702  23.029  0.00  0.00    +0.000 A 
ATOM      4  C   UNL     1      -0.333  10.378  21.777  0.00  0.00    +0.000 A 
ATOM      5  C   UNL     1      -0.758  11.096  20.668  0.00  0.00    +0.000 A 
ATOM      6  C   UNL     1      -1.715  12.108  20.792  0.00  0.00    +0.000 A 
ATOM      7  C   UNL     1      -0.275  10.770  19.321  0.00  0.00    +0.000 C 
ATOM      8  O   UNL     1      -0.732  11.345  18.340  0.00  0.00    +0.000 OA
ATOM      9  C   UNL     1       0.719   9.702  19.158  0.00  0.00    +0.000 A 
ATOM     10  C   UNL     1       1.237   9.459  17.885  0.00  0.00    +0.000 A 
ATOM     11  C   UNL     1       2.156   8.431  17.692  0.00  0.00    +0.000 A 
ATOM     12  C   UNL     1       2.495   7.562  18.734  0.00  0.00    +0.000 A 
ATOM     13  C   UNL     1       2.004   7.860  20.019  0.00  0.00    +0.000 A 
ATOM     14  C   UNL     1       1.133   8.940  20.244  0.00  0.00    +0.000 A 
ATOM     15  C   UNL     1       0.655   9.279  21.610  0.00  0.00    +0.000 C 
ATOM     16  O   UNL     1       1.064   8.664  22.588  0.00  0.00    +0.000 OA
ENDROOT
BRANCH   1  20
ATOM     17  N   UNL     1      -4.559  15.249  22.524  0.00  0.00    +0.000 N 
ATOM     18  C   UNL     1      -3.388  14.475  22.399  0.00  0.00    +0.000 C 
ATOM     19  C   UNL     1      -2.042  15.161  22.649  0.00  0.00    +0.000 C 
ATOM     20  N   UNL     1      -3.484  13.195  22.106  0.00  0.00    +0.000 NA
BRANCH  17  22
ATOM     21  C   UNL     1      -5.356  16.617  24.429  0.00  0.00    +0.000 C 
ATOM     22  C   UNL     1      -4.552  16.583  23.134  0.00  0.00    +0.000 C 
ENDBRANCH  17  22
BRANCH  17  23
ATOM     23  C   UNL     1      -5.843  14.573  22.248  0.00  0.00    +0.000 C 
ATOM     24  C   UNL     1      -6.561  14.949  20.962  0.00  0.00    +0.000 C 
ENDBRANCH  17  23
ENDBRANCH   1  20
BRANCH  12  25
ATOM     25  N   UNL     1       3.346   6.453  18.618  0.00  0.00    +0.000 NA
ATOM     26  C   UNL     1       3.048   5.250  18.208  0.00  0.00    +0.000 C 
ATOM     27  C   UNL     1       1.679   4.774  17.762  0.00  0.00    +0.000 C 
ATOM     28  N   UNL     1       4.047   4.279  18.192  0.00  0.00    +0.000 N 
BRANCH  28  29
ATOM     29  C   UNL     1       4.307   3.432  17.030  0.00  0.00    +0.000 C 
ATOM     30  C   UNL     1       5.097   4.191  15.974  0.00  0.00    +0.000 C 
ENDBRANCH  28  29
BRANCH  28  31
ATOM     31  C   UNL     1       4.621   3.854  19.468  0.00  0.00    +0.000 C 
ATOM     32  C   UNL     1       4.029   2.535  19.924  0.00  0.00    +0.000 C 
ENDBRANCH  28  31
ENDBRANCH  12  25
TORSDOF 6
ENDMDL
MODEL 2
REMARK VINA RESULT:      -7.7      1.352      2.086
REMARK  Name = 
REMARK  12 active torsions:
REMARK  status: ('A' for Active; 'I' for Inactive)
REMARK    1  A    between atoms: C_1  and  C_2
REMARK    2  A    between atoms: C_2  and  N_3
REMARK    3  A    between atoms: N_3  and  C_4
REMARK    4  A    between atoms: C_4  and  C_5
REMARK    5  A    between atoms: C_6  and  C_7
REMARK    6  A    between atoms: N_8  and  C_9
REMARK    7  A    between atoms: C_20  and  N_21
REMARK    8  A    between atoms: C_22  and  C_23
REMARK    9  A    between atoms: N_24  and  C_25
REMARK   10  A    between atoms: N_24  and  C_27
REMARK   11  A    between atoms: C_25  and  C_26
REMARK   12  A    between atoms: C_27  and  C_28
REMARK                            x       y       z     vdW  Elec       q    Type
REMARK                         _______ _______ _______ _____ _____    ______ ____
ROOT
ATOM      1  C   UNL     1      -2.295  13.118  21.464  0.00  0.00    +0.000 A 
ATOM      2  C   UNL     1      -2.196  12.501  22.719  0.00  0.00    +0.000 A 
ATOM      3  C   UNL     1      -1.366  11.380  22.922  0.00  0.00    +0.000 A 
ATOM      4  C   UNL     1      -0.654  10.836  21.847  0.00  0.00    +0.000 A 
ATOM      5  C   UNL     1      -0.691  11.495  20.626  0.00  0.00    +0.000 A 
ATOM      6  C   UNL     1      -1.437  12.667  20.466  0.00  0.00    +0.000 A 
ATOM      7  C   UNL     1      -0.011  10.948  19.446  0.00  0.00    +0.000 C 
ATOM      8  O   UNL     1      -0.133  11.487  18.353  0.00  0.00    +0.000 OA
ATOM      9  C   UNL     1       0.768   9.711  19.580  0.00  0.00    +0.000 A 
ATOM     10  C   UNL     1       1.482   9.247  18.475  0.00  0.00    +0.000 A 
ATOM     11  C   UNL     1       2.204   8.060  18.560  0.00  0.00    +0.000 A 
ATOM     12  C   UNL     1       2.143   7.260  19.706  0.00  0.00    +0.000 A 
ATOM     13  C   UNL     1       1.463   7.775  20.825  0.00  0.00    +0.000 A 
ATOM     14  C   UNL     1       0.791   9.008  20.778  0.00  0.00    +0.000 A 
ATOM     15  C   UNL     1       0.114   9.569  21.978  0.00  0.00    +0.000 C 
ATOM     16  O   UNL     1       0.183   8.999  23.061  0.00  0.00    +0.000 OA
ENDROOT
BRANCH   1  20
ATOM     17  N   UNL     1      -5.239  15.187  20.678  0.00  0.00    +0.000 N 
ATOM     18  C   UNL     1      -4.439  14.042  20.863  0.00  0.00    +0.000 C 
ATOM     19  C   UNL     1      -5.049  12.677  20.536  0.00  0.00    +0.000 C 
ATOM     20  N   UNL     1      -3.196  14.180  21.276  0.00  0.00    +0.000 NA
BRANCH  17  22
ATOM     21  C   UNL     1      -6.489  16.049  18.720  0.00  0.00    +0.000 C 
ATOM     22  C   UNL     1      -6.510  15.142  19.945  0.00  0.00    +0.000 C 
ENDBRANCH  17  22
BRANCH  17  23
ATOM     23  C   UNL     1      -4.639  16.491  21.030  0.00  0.00    +0.000 C 
ATOM     24  C   UNL     1      -5.139  17.164  22.297  0.00  0.00    +0.000 C 
ENDBRANCH  17  23
ENDBRANCH   1  20
BRANCH  12  25
ATOM     25  N   UNL     1       2.767   6.014  19.856  0.00  0.00    +0.000 NA
ATOM     26  C   UNL     1       2.606   4.940  19.130  0.00  0.00    +0.000 C 
ATOM     27  C   UNL     1       1.680   4.802  17.938  0.00  0.00    +0.000 C 
ATOM     28  N   UNL     1       3.312   3.788  19.469  0.00  0.00    +0.000 N 
BRANCH  28  29
ATOM     29  C   UNL     1       4.073   3.013  18.492  0.00  0.00    +0.000 C 
ATOM     30  C   UNL     1       3.467   1.629  18.308  0.00  0.00    +0.000 C 
ENDBRANCH  28  29
BRANCH  28  31
ATOM     31  C   UNL     1       3.011   3.140  20.745  0.00  0.00    +0.000 C 
ATOM     32  C   UNL     1       1.516   3.006  20.953  0.00  0.00    +0.000 C 
ENDBRANCH  28  31
ENDBRANCH  12  25
TORSDOF 6
ENDMDL
MODEL 3
REMARK VINA RESULT:      -7.5      1.020     10.922
REMARK  Name = 
REMARK  12 active torsions:
REMARK  status: ('A' for Active; 'I' for Inactive)
REMARK    1  A    between atoms: C_1  and  C_2
REMARK    2  A    between atoms: C_2  and  N_3
REMARK    3  A    between atoms: N_3  and  C_4
REMARK    4  A    between atoms: C_4  and  C_5
REMARK    5  A    between atoms: C_6  and  C_7
REMARK    6  A    between atoms: N_8  and  C_9
REMARK    7  A    between atoms: C_20  and  N_21
REMARK    8  A    between atoms: C_22  and  C_23
REMARK    9  A    between atoms: N_24  and  C_25
REMARK   10  A    between atoms: N_24  and  C_27
REMARK   11  A    between atoms: C_25  and  C_26
REMARK   12  A    between atoms: C_27  and  C_28
REMARK                            x       y       z     vdW  Elec       q    Type
REMARK                         _______ _______ _______ _____ _____    ______ ____
ROOT
ATOM      1  C   UNL     1       2.234   7.681  19.075  0.00  0.00    +0.000 A 
ATOM      2  C   UNL     1       1.874   8.386  17.918  0.00  0.00    +0.000 A 
ATOM      3  C   UNL     1       1.036   9.518  17.980  0.00  0.00    +0.000 A 
ATOM      4  C   UNL     1       0.512   9.931  19.211  0.00  0.00    +0.000 A 
ATOM      5  C   UNL     1       0.933   9.280  20.362  0.00  0.00    +0.000 A 
ATOM      6  C   UNL     1       1.847   8.223  20.295  0.00  0.00    +0.000 A 
ATOM      7  C   UNL     1       0.382   9.628  21.677  0.00  0.00    +0.000 C 
ATOM      8  O   UNL     1       0.688   8.981  22.671  0.00  0.00    +0.000 OA
ATOM      9  C   UNL     1      -0.591  10.723  21.777  0.00  0.00    +0.000 A 
ATOM     10  C   UNL     1      -1.042  11.104  23.040  0.00  0.00    +0.000 A 
ATOM     11  C   UNL     1      -1.989  12.117  23.166  0.00  0.00    +0.000 A 
ATOM     12  C   UNL     1      -2.581  12.694  22.037  0.00  0.00    +0.000 A 
ATOM     13  C   UNL     1      -2.070  12.334  20.777  0.00  0.00    +0.000 A 
ATOM     14  C   UNL     1      -1.061  11.365  20.638  0.00  0.00    +0.000 A 
ATOM     15  C   UNL     1      -0.492  11.024  19.307  0.00  0.00    +0.000 C 
ATOM     16  O   UNL     1      -0.844  11.629  18.301  0.00  0.00    +0.000 OA
ENDROOT
BRANCH   1  20
ATOM     17  N   UNL     1       3.513   4.234  19.306  0.00  0.00    +0.000 N 
ATOM     18  C   UNL     1       2.643   5.333  19.444  0.00  0.00    +0.000 C 
ATOM     19  C   UNL     1       1.320   5.116  20.182  0.00  0.00    +0.000 C 
ATOM     20  N   UNL     1       3.001   6.508  18.968  0.00  0.00    +0.000 NA
BRANCH  17  22
ATOM     21  C   UNL     1       2.597   1.933  19.238  0.00  0.00    +0.000 C 
ATOM     22  C   UNL     1       3.325   2.989  20.061  0.00  0.00    +0.000 C 
ENDBRANCH  17  22
BRANCH  17  23
ATOM     23  C   UNL     1       4.770   4.460  18.563  0.00  0.00    +0.000 C 
ATOM     24  C   UNL     1       4.810   4.000  17.114  0.00  0.00    +0.000 C 
ENDBRANCH  17  23
ENDBRANCH   1  20
BRANCH  12  25
ATOM     25  N   UNL     1      -3.598  13.659  22.062  0.00  0.00    +0.000 NA
ATOM     26  C   UNL     1      -4.648  13.703  22.837  0.00  0.00    +0.000 C 
ATOM     27  C   UNL     1      -5.010  12.689  23.905  0.00  0.00    +0.000 C 
ATOM     28  N   UNL     1      -5.556  14.747  22.679  0.00  0.00    +0.000 N 
BRANCH  28  29
ATOM     29  C   UNL     1      -6.045  15.545  23.801  0.00  0.00    +0.000 C 
ATOM     30  C   UNL     1      -4.921  16.372  24.408  0.00  0.00    +0.000 C 
ENDBRANCH  28  29
BRANCH  28  31
ATOM     31  C   UNL     1      -6.304  14.831  21.426  0.00  0.00    +0.000 C 
ATOM     32  C   UNL     1      -7.450  13.839  21.403  0.00  0.00    +0.000 C 
ENDBRANCH  28  31
ENDBRANCH  12  25
TORSDOF 6
ENDMDL
MODEL 4
REMARK VINA RESULT:      -7.5      1.190     10.873
REMARK  Name = 
REMARK  12 active torsions:
REMARK  status: ('A' for Active; 'I' for Inactive)
REMARK    1  A    between atoms: C_1  and  C_2
REMARK    2  A    between atoms: C_2  and  N_3
REMARK    3  A    between atoms: N_3  and  C_4
REMARK    4  A    between atoms: C_4  and  C_5
REMARK    5  A    between atoms: C_6  and  C_7
REMARK    6  A    between atoms: N_8  and  C_9
REMARK    7  A    between atoms: C_20  and  N_21
REMARK    8  A    between atoms: C_22  and  C_23
REMARK    9  A    between atoms: N_24  and  C_25
REMARK   10  A    between atoms: N_24  and  C_27
REMARK   11  A    between atoms: C_25  and  C_26
REMARK   12  A    between atoms: C_27  and  C_28
REMARK                            x       y       z     vdW  Elec       q    Type
REMARK                         _______ _______ _______ _____ _____    ______ ____
ROOT
ATOM      1  C   UNL     1       2.196   7.681  19.264  0.00  0.00    +0.000 A 
ATOM      2  C   UNL     1       1.925   8.385  18.082  0.00  0.00    +0.000 A 
ATOM      3  C   UNL     1       1.116   9.540  18.085  0.00  0.00    +0.000 A 
ATOM      4  C   UNL     1       0.532   9.979  19.279  0.00  0.00    +0.000 A 
ATOM      5  C   UNL     1       0.866   9.328  20.458  0.00  0.00    +0.000 A 
ATOM      6  C   UNL     1       1.752   8.246  20.455  0.00  0.00    +0.000 A 
ATOM      7  C   UNL     1       0.247   9.704  21.735  0.00  0.00    +0.000 C 
ATOM      8  O   UNL     1       0.476   9.058  22.751  0.00  0.00    +0.000 OA
ATOM      9  C   UNL     1      -0.698  10.826  21.768  0.00  0.00    +0.000 A 
ATOM     10  C   UNL     1      -1.213  11.231  22.999  0.00  0.00    +0.000 A 
ATOM     11  C   UNL     1      -2.137  12.271  23.060  0.00  0.00    +0.000 A 
ATOM     12  C   UNL     1      -2.644  12.853  21.894  0.00  0.00    +0.000 A 
ATOM     13  C   UNL     1      -2.070  12.467  20.669  0.00  0.00    +0.000 A 
ATOM     14  C   UNL     1      -1.082  11.470  20.598  0.00  0.00    +0.000 A 
ATOM     15  C   UNL     1      -0.445  11.100  19.307  0.00  0.00    +0.000 C 
ATOM     16  O   UNL     1      -0.719  11.704  18.276  0.00  0.00    +0.000 OA
ENDROOT
BRANCH   1  20
ATOM     17  N   UNL     1       3.363   4.204  19.604  0.00  0.00    +0.000 N 
ATOM     18  C   UNL     1       2.518   5.328  19.682  0.00  0.00    +0.000 C 
ATOM     19  C   UNL     1       1.152   5.157  20.351  0.00  0.00    +0.000 C 
ATOM     20  N   UNL     1       2.934   6.486  19.212  0.00  0.00    +0.000 NA
BRANCH  17  22
ATOM     21  C   UNL     1       2.374   1.934  19.520  0.00  0.00    +0.000 C 
ATOM     22  C   UNL     1       3.101   2.975  20.363  0.00  0.00    +0.000 C 
ENDBRANCH  17  22
BRANCH  17  23
ATOM     23  C   UNL     1       4.664   4.386  18.927  0.00  0.00    +0.000 C 
ATOM     24  C   UNL     1       4.744   3.987  17.463  0.00  0.00    +0.000 C 
ENDBRANCH  17  23
ENDBRANCH   1  20
BRANCH  12  25
ATOM     25  N   UNL     1      -3.633  13.847  21.850  0.00  0.00    +0.000 NA
ATOM     26  C   UNL     1      -4.902  13.708  21.574  0.00  0.00    +0.000 C 
ATOM     27  C   UNL     1      -5.601  12.408  21.226  0.00  0.00    +0.000 C 
ATOM     28  N   UNL     1      -5.714  14.839  21.561  0.00  0.00    +0.000 N 
BRANCH  28  29
ATOM     29  C   UNL     1      -6.992  14.902  22.267  0.00  0.00    +0.000 C 
ATOM     30  C   UNL     1      -6.777  14.956  23.772  0.00  0.00    +0.000 C 
ENDBRANCH  28  29
BRANCH  28  31
ATOM     31  C   UNL     1      -5.462  15.863  20.548  0.00  0.00    +0.000 C 
ATOM     32  C   UNL     1      -5.067  17.180  21.185  0.00  0.00    +0.000 C 
ENDBRANCH  28  31
ENDBRANCH  12  25
TORSDOF 6
ENDMDL
MODEL 5
REMARK VINA RESULT:      -7.5      0.859     10.962
REMARK  Name = 
REMARK  12 active torsions:
REMARK  status: ('A' for Active; 'I' for Inactive)
REMARK    1  A    between atoms: C_1  and  C_2
REMARK    2  A    between atoms: C_2  and  N_3
REMARK    3  A    between atoms: N_3  and  C_4
REMARK    4  A    between atoms: C_4  and  C_5
REMARK    5  A    between atoms: C_6  and  C_7
REMARK    6  A    between atoms: N_8  and  C_9
REMARK    7  A    between atoms: C_20  and  N_21
REMARK    8  A    between atoms: C_22  and  C_23
REMARK    9  A    between atoms: N_24  and  C_25
REMARK   10  A    between atoms: N_24  and  C_27
REMARK   11  A    between atoms: C_25  and  C_26
REMARK   12  A    between atoms: C_27  and  C_28
REMARK                            x       y       z     vdW  Elec       q    Type
REMARK                         _______ _______ _______ _____ _____    ______ ____
ROOT
ATOM      1  C   UNL     1       2.564   7.439  18.660  0.00  0.00    +0.000 A 
ATOM      2  C   UNL     1       2.284   8.319  17.605  0.00  0.00    +0.000 A 
ATOM      3  C   UNL     1       1.489   9.467  17.800  0.00  0.00    +0.000 A 
ATOM      4  C   UNL     1       0.928   9.722  19.056  0.00  0.00    +0.000 A 
ATOM      5  C   UNL     1       1.271   8.893  20.116  0.00  0.00    +0.000 A 
ATOM      6  C   UNL     1       2.145   7.817  19.931  0.00  0.00    +0.000 A 
ATOM      7  C   UNL     1       0.675   9.073  21.445  0.00  0.00    +0.000 C 
ATOM      8  O   UNL     1       0.912   8.276  22.345  0.00  0.00    +0.000 OA
ATOM      9  C   UNL     1      -0.256  10.185  21.666  0.00  0.00    +0.000 A 
ATOM     10  C   UNL     1      -0.748  10.401  22.953  0.00  0.00    +0.000 A 
ATOM     11  C   UNL     1      -1.659  11.427  23.189  0.00  0.00    +0.000 A 
ATOM     12  C   UNL     1      -2.176  12.187  22.135  0.00  0.00    +0.000 A 
ATOM     13  C   UNL     1      -1.625  11.990  20.856  0.00  0.00    +0.000 A 
ATOM     14  C   UNL     1      -0.650  11.006  20.616  0.00  0.00    +0.000 A 
ATOM     15  C   UNL     1      -0.036  10.834  19.272  0.00  0.00    +0.000 C 
ATOM     16  O   UNL     1      -0.318  11.593  18.352  0.00  0.00    +0.000 OA
ENDROOT
BRANCH   1  20
ATOM     17  N   UNL     1       3.580   4.000  17.815  0.00  0.00    +0.000 N 
ATOM     18  C   UNL     1       2.756   5.129  17.996  0.00  0.00    +0.000 C 
ATOM     19  C   UNL     1       1.256   4.975  17.730  0.00  0.00    +0.000 C 
ATOM     20  N   UNL     1       3.288   6.260  18.412  0.00  0.00    +0.000 NA
BRANCH  17  22
ATOM     21  C   UNL     1       3.622   1.670  18.656  0.00  0.00    +0.000 C 
ATOM     22  C   UNL     1       3.029   2.650  17.650  0.00  0.00    +0.000 C 
ENDBRANCH  17  22
BRANCH  17  23
ATOM     23  C   UNL     1       5.028   4.180  18.048  0.00  0.00    +0.000 C 
ATOM     24  C   UNL     1       5.904   4.397  16.825  0.00  0.00    +0.000 C 
ENDBRANCH  17  23
ENDBRANCH   1  20
BRANCH  12  25
ATOM     25  N   UNL     1      -3.154  13.184  22.261  0.00  0.00    +0.000 NA
ATOM     26  C   UNL     1      -2.993  14.429  22.620  0.00  0.00    +0.000 C 
ATOM     27  C   UNL     1      -1.678  15.085  22.995  0.00  0.00    +0.000 C 
ATOM     28  N   UNL     1      -4.112  15.255  22.705  0.00  0.00    +0.000 N 
BRANCH  28  29
ATOM     29  C   UNL     1      -4.166  16.578  22.089  0.00  0.00    +0.000 C 
ATOM     30  C   UNL     1      -4.210  16.467  20.572  0.00  0.00    +0.000 C 
ENDBRANCH  28  29
BRANCH  28  31
ATOM     31  C   UNL     1      -5.124  14.948  23.715  0.00  0.00    +0.000 C 
ATOM     32  C   UNL     1      -6.494  14.785  23.087  0.00  0.00    +0.000 C 
ENDBRANCH  28  31
ENDBRANCH  12  25
TORSDOF 6
ENDMDL
MODEL 6
REMARK VINA RESULT:      -7.4      0.832      1.066
REMARK  Name = 
REMARK  12 active torsions:
REMARK  status: ('A' for Active; 'I' for Inactive)
REMARK    1  A    between atoms: C_1  and  C_2
REMARK    2  A    between atoms: C_2  and  N_3
REMARK    3  A    between atoms: N_3  and  C_4
REMARK    4  A    between atoms: C_4  and  C_5
REMARK    5  A    between atoms: C_6  and  C_7
REMARK    6  A    between atoms: N_8  and  C_9
REMARK    7  A    between atoms: C_20  and  N_21
REMARK    8  A    between atoms: C_22  and  C_23
REMARK    9  A    between atoms: N_24  and  C_25
REMARK   10  A    between atoms: N_24  and  C_27
REMARK   11  A    between atoms: C_25  and  C_26
REMARK   12  A    between atoms: C_27  and  C_28
REMARK                            x       y       z     vdW  Elec       q    Type
REMARK                         _______ _______ _______ _____ _____    ______ ____
ROOT
ATOM      1  C   UNL     1      -2.571  12.572  22.127  0.00  0.00    +0.000 A 
ATOM      2  C   UNL     1      -2.049  11.914  23.250  0.00  0.00    +0.000 A 
ATOM      3  C   UNL     1      -1.008  10.971  23.129  0.00  0.00    +0.000 A 
ATOM      4  C   UNL     1      -0.506  10.645  21.863  0.00  0.00    +0.000 A 
ATOM      5  C   UNL     1      -0.969  11.354  20.764  0.00  0.00    +0.000 A 
ATOM      6  C   UNL     1      -1.929  12.361  20.912  0.00  0.00    +0.000 A 
ATOM      7  C   UNL     1      -0.524  11.026  19.405  0.00  0.00    +0.000 C 
ATOM      8  O   UNL     1      -1.013  11.593  18.436  0.00  0.00    +0.000 OA
ATOM      9  C   UNL     1       0.471   9.964  19.216  0.00  0.00    +0.000 A 
ATOM     10  C   UNL     1       0.953   9.718  17.930  0.00  0.00    +0.000 A 
ATOM     11  C   UNL     1       1.873   8.696  17.714  0.00  0.00    +0.000 A 
ATOM     12  C   UNL     1       2.249   7.834  18.749  0.00  0.00    +0.000 A 
ATOM     13  C   UNL     1       1.794   8.134  20.046  0.00  0.00    +0.000 A 
ATOM     14  C   UNL     1       0.923   9.209  20.293  0.00  0.00    +0.000 A 
ATOM     15  C   UNL     1       0.483   9.551  21.672  0.00  0.00    +0.000 C 
ATOM     16  O   UNL     1       0.925   8.943  22.639  0.00  0.00    +0.000 OA
ENDROOT
BRANCH   1  20
ATOM     17  N   UNL     1      -4.738  15.502  22.665  0.00  0.00    +0.000 N 
ATOM     18  C   UNL     1      -3.567  14.735  22.502  0.00  0.00    +0.000 C 
ATOM     19  C   UNL     1      -2.218  15.446  22.635  0.00  0.00    +0.000 C 
ATOM     20  N   UNL     1      -3.665  13.442  22.274  0.00  0.00    +0.000 NA
BRANCH  17  22
ATOM     21  C   UNL     1      -5.312  16.922  24.612  0.00  0.00    +0.000 C 
ATOM     22  C   UNL     1      -4.711  16.863  23.213  0.00  0.00    +0.000 C 
ENDBRANCH  17  22
BRANCH  17  23
ATOM     23  C   UNL     1      -6.029  14.801  22.501  0.00  0.00    +0.000 C 
ATOM     24  C   UNL     1      -6.812  15.081  21.229  0.00  0.00    +0.000 C 
ENDBRANCH  17  23
ENDBRANCH   1  20
BRANCH  12  25
ATOM     25  N   UNL     1       3.103   6.730  18.612  0.00  0.00    +0.000 NA
ATOM     26  C   UNL     1       3.020   5.570  19.207  0.00  0.00    +0.000 C 
ATOM     27  C   UNL     1       1.958   5.154  20.205  0.00  0.00    +0.000 C 
ATOM     28  N   UNL     1       3.996   4.610  18.945  0.00  0.00    +0.000 N 
BRANCH  28  29
ATOM     29  C   UNL     1       3.672   3.230  18.592  0.00  0.00    +0.000 C 
ATOM     30  C   UNL     1       2.984   3.166  17.236  0.00  0.00    +0.000 C 
ENDBRANCH  28  29
BRANCH  28  31
ATOM     31  C   UNL     1       5.369   4.886  19.366  0.00  0.00    +0.000 C 
ATOM     32  C   UNL     1       6.321   4.853  18.187  0.00  0.00    +0.000 C 
ENDBRANCH  28  31
ENDBRANCH  12  25
TORSDOF 6
ENDMDL
MODEL 7
REMARK VINA RESULT:      -7.4      1.018     10.896
REMARK  Name = 
REMARK  12 active torsions:
REMARK  status: ('A' for Active; 'I' for Inactive)
REMARK    1  A    between atoms: C_1  and  C_2
REMARK    2  A    between atoms: C_2  and  N_3
REMARK    3  A    between atoms: N_3  and  C_4
REMARK    4  A    between atoms: C_4  and  C_5
REMARK    5  A    between atoms: C_6  and  C_7
REMARK    6  A    between atoms: N_8  and  C_9
REMARK    7  A    between atoms: C_20  and  N_21
REMARK    8  A    between atoms: C_22  and  C_23
REMARK    9  A    between atoms: N_24  and  C_25
REMARK   10  A    between atoms: N_24  and  C_27
REMARK   11  A    between atoms: C_25  and  C_26
REMARK   12  A    between atoms: C_27  and  C_28
REMARK                            x       y       z     vdW  Elec       q    Type
REMARK                         _______ _______ _______ _____ _____    ______ ____
ROOT
ATOM      1  C   UNL     1       2.689   7.211  18.436  0.00  0.00    +0.000 A 
ATOM      2  C   UNL     1       2.544   8.218  17.471  0.00  0.00    +0.000 A 
ATOM      3  C   UNL     1       1.833   9.403  17.749  0.00  0.00    +0.000 A 
ATOM      4  C   UNL     1       1.219   9.572  18.996  0.00  0.00    +0.000 A 
ATOM      5  C   UNL     1       1.431   8.610  19.975  0.00  0.00    +0.000 A 
ATOM      6  C   UNL     1       2.226   7.488  19.717  0.00  0.00    +0.000 A 
ATOM      7  C   UNL     1       0.774   8.700  21.284  0.00  0.00    +0.000 C 
ATOM      8  O   UNL     1       0.892   7.796  22.102  0.00  0.00    +0.000 OA
ATOM      9  C   UNL     1      -0.078   9.858  21.577  0.00  0.00    +0.000 A 
ATOM     10  C   UNL     1      -0.627   9.979  22.854  0.00  0.00    +0.000 A 
ATOM     11  C   UNL     1      -1.466  11.049  23.154  0.00  0.00    +0.000 A 
ATOM     12  C   UNL     1      -1.857  11.957  22.164  0.00  0.00    +0.000 A 
ATOM     13  C   UNL     1      -1.248  11.848  20.901  0.00  0.00    +0.000 A 
ATOM     14  C   UNL     1      -0.341  10.815  20.605  0.00  0.00    +0.000 A 
ATOM     15  C   UNL     1       0.336  10.733  19.284  0.00  0.00    +0.000 C 
ATOM     16  O   UNL     1       0.171  11.606  18.439  0.00  0.00    +0.000 OA
ENDROOT
BRANCH   1  20
ATOM     17  N   UNL     1       3.463   3.720  17.552  0.00  0.00    +0.000 N 
ATOM     18  C   UNL     1       2.709   4.873  17.847  0.00  0.00    +0.000 C 
ATOM     19  C   UNL     1       1.185   4.744  17.898  0.00  0.00    +0.000 C 
ATOM     20  N   UNL     1       3.331   6.007  18.098  0.00  0.00    +0.000 NA
BRANCH  17  22
ATOM     21  C   UNL     1       3.598   1.444  18.521  0.00  0.00    +0.000 C 
ATOM     22  C   UNL     1       2.871   2.376  17.561  0.00  0.00    +0.000 C 
ENDBRANCH  17  22
BRANCH  17  23
ATOM     23  C   UNL     1       4.930   3.875  17.478  0.00  0.00    +0.000 C 
ATOM     24  C   UNL     1       5.537   4.066  16.098  0.00  0.00    +0.000 C 
ENDBRANCH  17  23
ENDBRANCH   1  20
BRANCH  12  25
ATOM     25  N   UNL     1      -2.759  13.015  22.349  0.00  0.00    +0.000 NA
ATOM     26  C   UNL     1      -3.836  13.284  21.661  0.00  0.00    +0.000 C 
ATOM     27  C   UNL     1      -4.359  12.493  20.479  0.00  0.00    +0.000 C 
ATOM     28  N   UNL     1      -4.585  14.409  21.999  0.00  0.00    +0.000 N 
BRANCH  28  29
ATOM     29  C   UNL     1      -6.032  14.367  22.189  0.00  0.00    +0.000 C 
ATOM     30  C   UNL     1      -6.381  13.830  23.570  0.00  0.00    +0.000 C 
ENDBRANCH  28  29
BRANCH  28  31
ATOM     31  C   UNL     1      -3.974  15.726  21.823  0.00  0.00    +0.000 C 
ATOM     32  C   UNL     1      -3.678  16.377  23.160  0.00  0.00    +0.000 C 
ENDBRANCH  28  31
ENDBRANCH  12  25
TORSDOF 6
ENDMDL
MODEL 8
REMARK VINA RESULT:      -7.4      0.971     10.950
REMARK  Name = 
REMARK  12 active torsions:
REMARK  status: ('A' for Active; 'I' for Inactive)
REMARK    1  A    between atoms: C_1  and  C_2
REMARK    2  A    between atoms: C_2  and  N_3
REMARK    3  A    between atoms: N_3  and  C_4
REMARK    4  A    between atoms: C_4  and  C_5
REMARK    5  A    between atoms: C_6  and  C_7
REMARK    6  A    between atoms: N_8  and  C_9
REMARK    7  A    between atoms: C_20  and  N_21
REMARK    8  A    between atoms: C_22  and  C_23
REMARK    9  A    between atoms: N_24  and  C_25
REMARK   10  A    between atoms: N_24  and  C_27
REMARK   11  A    between atoms: C_25  and  C_26
REMARK   12  A    between atoms: C_27  and  C_28
REMARK                            x       y       z     vdW  Elec       q    Type
REMARK                         _______ _______ _______ _____ _____    ______ ____
ROOT
ATOM      1  C   UNL     1       2.232   7.768  18.958  0.00  0.00    +0.000 A 
ATOM      2  C   UNL     1       1.853   8.501  17.824  0.00  0.00    +0.000 A 
ATOM      3  C   UNL     1       0.991   9.611  17.922  0.00  0.00    +0.000 A 
ATOM      4  C   UNL     1       0.462   9.975  19.166  0.00  0.00    +0.000 A 
ATOM      5  C   UNL     1       0.900   9.299  20.296  0.00  0.00    +0.000 A 
ATOM      6  C   UNL     1       1.837   8.265  20.195  0.00  0.00    +0.000 A 
ATOM      7  C   UNL     1       0.345   9.594  21.622  0.00  0.00    +0.000 C 
ATOM      8  O   UNL     1       0.669   8.924  22.595  0.00  0.00    +0.000 OA
ATOM      9  C   UNL     1      -0.650  10.664  21.758  0.00  0.00    +0.000 A 
ATOM     10  C   UNL     1      -1.106  10.997  23.033  0.00  0.00    +0.000 A 
ATOM     11  C   UNL     1      -2.074  11.985  23.192  0.00  0.00    +0.000 A 
ATOM     12  C   UNL     1      -2.682  12.583  22.083  0.00  0.00    +0.000 A 
ATOM     13  C   UNL     1      -2.167  12.273  20.811  0.00  0.00    +0.000 A 
ATOM     14  C   UNL     1      -1.138  11.331  20.640  0.00  0.00    +0.000 A 
ATOM     15  C   UNL     1      -0.565  11.042  19.298  0.00  0.00    +0.000 C 
ATOM     16  O   UNL     1      -0.933  11.670  18.312  0.00  0.00    +0.000 OA
ENDROOT
BRANCH   1  20
ATOM     17  N   UNL     1       3.634   4.368  19.160  0.00  0.00    +0.000 N 
ATOM     18  C   UNL     1       2.744   5.444  19.346  0.00  0.00    +0.000 C 
ATOM     19  C   UNL     1       1.496   5.208  20.201  0.00  0.00    +0.000 C 
ATOM     20  N   UNL     1       3.024   6.616  18.813  0.00  0.00    +0.000 NA
BRANCH  17  22
ATOM     21  C   UNL     1       3.536   1.894  19.079  0.00  0.00    +0.000 C 
ATOM     22  C   UNL     1       3.551   3.139  19.958  0.00  0.00    +0.000 C 
ENDBRANCH  17  22
BRANCH  17  23
ATOM     23  C   UNL     1       4.815   4.611  18.307  0.00  0.00    +0.000 C 
ATOM     24  C   UNL     1       6.117   4.959  19.009  0.00  0.00    +0.000 C 
ENDBRANCH  17  23
ENDBRANCH   1  20
BRANCH  12  25
ATOM     25  N   UNL     1      -3.719  13.525  22.139  0.00  0.00    +0.000 NA
ATOM     26  C   UNL     1      -3.623  14.827  22.170  0.00  0.00    +0.000 C 
ATOM     27  C   UNL     1      -2.335  15.626  22.155  0.00  0.00    +0.000 C 
ATOM     28  N   UNL     1      -4.789  15.584  22.250  0.00  0.00    +0.000 N 
BRANCH  28  29
ATOM     29  C   UNL     1      -5.060  16.714  21.364  0.00  0.00    +0.000 C 
ATOM     30  C   UNL     1      -5.619  16.234  20.032  0.00  0.00    +0.000 C 
ENDBRANCH  28  29
BRANCH  28  31
ATOM     31  C   UNL     1      -5.604  15.476  23.459  0.00  0.00    +0.000 C 
ATOM     32  C   UNL     1      -5.237  16.548  24.466  0.00  0.00    +0.000 C 
ENDBRANCH  28  31
ENDBRANCH  12  25
TORSDOF 6
ENDMDL
MODEL 9
REMARK VINA RESULT:      -7.4      1.304     11.031
REMARK  Name = 
REMARK  12 active torsions:
REMARK  status: ('A' for Active; 'I' for Inactive)
REMARK    1  A    between atoms: C_1  and  C_2
REMARK    2  A    between atoms: C_2  and  N_3
REMARK    3  A    between atoms: N_3  and  C_4
REMARK    4  A    between atoms: C_4  and  C_5
REMARK    5  A    between atoms: C_6  and  C_7
REMARK    6  A    between atoms: N_8  and  C_9
REMARK    7  A    between atoms: C_20  and  N_21
REMARK    8  A    between atoms: C_22  and  C_23
REMARK    9  A    between atoms: N_24  and  C_25
REMARK   10  A    between atoms: N_24  and  C_27
REMARK   11  A    between atoms: C_25  and  C_26
REMARK   12  A    between atoms: C_27  and  C_28
REMARK                            x       y       z     vdW  Elec       q    Type
REMARK                         _______ _______ _______ _____ _____    ______ ____
ROOT
ATOM      1  C   UNL     1       2.564   7.186  18.383  0.00  0.00    +0.000 A 
ATOM      2  C   UNL     1       2.505   8.233  17.453  0.00  0.00    +0.000 A 
ATOM      3  C   UNL     1       1.875   9.456  17.762  0.00  0.00    +0.000 A 
ATOM      4  C   UNL     1       1.255   9.625  19.006  0.00  0.00    +0.000 A 
ATOM      5  C   UNL     1       1.384   8.618  19.953  0.00  0.00    +0.000 A 
ATOM      6  C   UNL     1       2.101   7.452  19.667  0.00  0.00    +0.000 A 
ATOM      7  C   UNL     1       0.714   8.710  21.255  0.00  0.00    +0.000 C 
ATOM      8  O   UNL     1       0.754   7.773  22.043  0.00  0.00    +0.000 OA
ATOM      9  C   UNL     1      -0.059   9.916  21.578  0.00  0.00    +0.000 A 
ATOM     10  C   UNL     1      -0.618  10.032  22.851  0.00  0.00    +0.000 A 
ATOM     11  C   UNL     1      -1.384  11.148  23.177  0.00  0.00    +0.000 A 
ATOM     12  C   UNL     1      -1.694  12.115  22.214  0.00  0.00    +0.000 A 
ATOM     13  C   UNL     1      -1.074  12.006  20.956  0.00  0.00    +0.000 A 
ATOM     14  C   UNL     1      -0.238  10.922  20.636  0.00  0.00    +0.000 A 
ATOM     15  C   UNL     1       0.453  10.836  19.322  0.00  0.00    +0.000 C 
ATOM     16  O   UNL     1       0.363  11.747  18.506  0.00  0.00    +0.000 OA
ENDROOT
BRANCH   1  20
ATOM     17  N   UNL     1       4.796   4.504  17.203  0.00  0.00    +0.000 N 
ATOM     18  C   UNL     1       4.357   5.789  17.580  0.00  0.00    +0.000 C 
ATOM     19  C   UNL     1       5.336   6.957  17.432  0.00  0.00    +0.000 C 
ATOM     20  N   UNL     1       3.123   5.951  18.012  0.00  0.00    +0.000 NA
BRANCH  17  22
ATOM     21  C   UNL     1       5.760   4.172  14.945  0.00  0.00    +0.000 C 
ATOM     22  C   UNL     1       6.032   4.294  16.440  0.00  0.00    +0.000 C 
ENDBRANCH  17  22
BRANCH  17  23
ATOM     23  C   UNL     1       3.845   3.388  17.383  0.00  0.00    +0.000 C 
ATOM     24  C   UNL     1       3.930   2.610  18.686  0.00  0.00    +0.000 C 
ENDBRANCH  17  23
ENDBRANCH   1  20
BRANCH  12  25
ATOM     25  N   UNL     1      -2.521  13.228  22.424  0.00  0.00    +0.000 NA
ATOM     26  C   UNL     1      -2.181  14.414  22.850  0.00  0.00    +0.000 C 
ATOM     27  C   UNL     1      -0.781  14.858  23.226  0.00  0.00    +0.000 C 
ATOM     28  N   UNL     1      -3.172  15.379  23.012  0.00  0.00    +0.000 N 
BRANCH  28  29
ATOM     29  C   UNL     1      -3.052  16.733  22.475  0.00  0.00    +0.000 C 
ATOM     30  C   UNL     1      -3.044  16.712  20.953  0.00  0.00    +0.000 C 
ENDBRANCH  28  29
BRANCH  28  31
ATOM     31  C   UNL     1      -4.198  15.155  24.029  0.00  0.00    +0.000 C 
ATOM     32  C   UNL     1      -4.720  16.467  24.581  0.00  0.00    +0.000 C 
ENDBRANCH  28  31
ENDBRANCH  12  25
TORSDOF 6
ENDMDL
