MODEL 1
REMARK VINA RESULT:      -7.1      0.000      0.000
REMARK  Name = 
REMARK  8 active torsions:
REMARK  status: ('A' for Active; 'I' for Inactive)
REMARK    1  A    between atoms: C_1  and  C_2
REMARK    2  A    between atoms: C_2  and  N_3
REMARK    3  A    between atoms: C_2  and  C_18
REMARK    4  A    between atoms: C_8  and  C_9
REMARK    5  A    between atoms: C_18  and  O_19
REMARK    6  A    between atoms: C_18  and  C_20
REMARK    7  A    between atoms: C_18  and  C_26
REMARK    8  A    between atoms: C_20  and  N_21
REMARK                            x       y       z     vdW  Elec       q    Type
REMARK                         _______ _______ _______ _____ _____    ______ ____
ROOT
ATOM      1  C   UNL     1      -1.385   9.899  19.593  0.00  0.00    +0.000 C 
ATOM      2  C   UNL     1      -0.527  11.024  18.963  0.00  0.00    +0.000 C 
ENDROOT
BRANCH   2   3
ATOM      3  N   UNL     1       0.775  11.181  19.720  0.00  0.00    +0.000 NA
ATOM      4  C   UNL     1       1.943  11.470  18.826  0.00  0.00    +0.000 C 
ATOM      5  C   UNL     1       2.209  10.390  17.740  0.00  0.00    +0.000 C 
ATOM      6  C   UNL     1       2.139   9.022  18.347  0.00  0.00    +0.000 A 
ATOM      7  C   UNL     1       2.485   7.785  17.738  0.00  0.00    +0.000 A 
ATOM      8  C   UNL     1       2.327   6.705  18.592  0.00  0.00    +0.000 A 
ATOM      9  S   UNL     1       1.696   7.218  20.112  0.00  0.00    +0.000 S 
ATOM     10  C   UNL     1       1.646   8.842  19.624  0.00  0.00    +0.000 A 
ATOM     11  C   UNL     1       1.160   9.962  20.508  0.00  0.00    +0.000 C 
BRANCH   8  12
ATOM     12  C   UNL     1       2.651   5.298  18.338  0.00  0.00    +0.000 A 
ATOM     13  C   UNL     1       1.749   4.441  17.729  0.00  0.00    +0.000 A 
ATOM     14  N   UNL     1       1.975   3.131  17.482  0.00  0.00    +0.000 NA
ATOM     15  C   UNL     1       3.173   2.671  17.868  0.00  0.00    +0.000 A 
ATOM     16  N   UNL     1       4.135   3.389  18.465  0.00  0.00    +0.000 NA
ATOM     17  C   UNL     1       3.846   4.692  18.687  0.00  0.00    +0.000 A 
ENDBRANCH   8  12
ENDBRANCH   2   3
BRANCH   2  18
ATOM     18  C   UNL     1      -1.411  12.365  18.797  0.00  0.00    +0.000 C 
BRANCH  18  19
ATOM     19  C   UNL     1      -2.878  12.002  18.508  0.00  0.00    +0.000 A 
ATOM     20  C   UNL     1      -3.878  12.314  19.454  0.00  0.00    +0.000 A 
ATOM     21  C   UNL     1      -5.214  11.959  19.241  0.00  0.00    +0.000 A 
ATOM     22  C   UNL     1      -5.564  11.311  18.066  0.00  0.00    +0.000 A 
ATOM     23  F   UNL     1      -6.843  10.972  17.858  0.00  0.00    +0.000 F 
ATOM     24  C   UNL     1      -4.612  11.011  17.104  0.00  0.00    +0.000 A 
ATOM     25  C   UNL     1      -3.284  11.359  17.330  0.00  0.00    +0.000 A 
ATOM     26  F   UNL     1      -2.393  11.079  16.369  0.00  0.00    +0.000 F 
ENDBRANCH  18  19
BRANCH  18  27
ATOM     27  O   UNL     1      -0.978  13.036  17.584  0.00  0.00    +0.000 OA
ATOM     28  H   UNL     1      -0.347  12.422  17.141  0.00  0.00    +0.000 HD
ENDBRANCH  18  27
BRANCH  18  29
ATOM     29  C   UNL     1      -1.168  13.346  19.984  0.00  0.00    +0.000 C 
BRANCH  29  30
ATOM     30  N   UNL     1      -0.587  14.621  19.588  0.00  0.00    +0.000 N 
ATOM     31  C   UNL     1      -1.159  15.854  19.625  0.00  0.00    +0.000 A 
ATOM     32  N   UNL     1      -0.324  16.742  19.140  0.00  0.00    +0.000 NA
ATOM     33  C   UNL     1       0.779  15.997  18.829  0.00  0.00    +0.000 A 
ATOM     34  N   UNL     1       0.679  14.695  19.115  0.00  0.00    +0.000 NA
ENDBRANCH  29  30
ENDBRANCH  18  29
ENDBRANCH   2  18
TORSDOF 7
ENDMDL
MODEL 2
REMARK VINA RESULT:      -7.0      0.609      1.128
REMARK  Name = 
REMARK  8 active torsions:
REMARK  status: ('A' for Active; 'I' for Inactive)
REMARK    1  A    between atoms: C_1  and  C_2
REMARK    2  A    between atoms: C_2  and  N_3
REMARK    3  A    between atoms: C_2  and  C_18
REMARK    4  A    between atoms: C_8  and  C_9
REMARK    5  A    between atoms: C_18  and  O_19
REMARK    6  A    between atoms: C_18  and  C_20
REMARK    7  A    between atoms: C_18  and  C_26
REMARK    8  A    between atoms: C_20  and  N_21
REMARK                            x       y       z     vdW  Elec       q    Type
REMARK                         _______ _______ _______ _____ _____    ______ ____
ROOT
ATOM      1  C   UNL     1      -1.265   9.838  20.212  0.00  0.00    +0.000 C 
ATOM      2  C   UNL     1      -0.415  10.737  19.281  0.00  0.00    +0.000 C 
ENDROOT
BRANCH   2   3
ATOM      3  N   UNL     1       0.984  10.899  19.838  0.00  0.00    +0.000 NA
ATOM      4  C   UNL     1       2.017  11.124  18.774  0.00  0.00    +0.000 C 
ATOM      5  C   UNL     1       2.109   9.992  17.714  0.00  0.00    +0.000 C 
ATOM      6  C   UNL     1       2.106   8.654  18.387  0.00  0.00    +0.000 A 
ATOM      7  C   UNL     1       2.343   7.384  17.793  0.00  0.00    +0.000 A 
ATOM      8  C   UNL     1       2.292   6.346  18.710  0.00  0.00    +0.000 A 
ATOM      9  S   UNL     1       1.892   6.939  20.278  0.00  0.00    +0.000 S 
ATOM     10  C   UNL     1       1.797   8.541  19.728  0.00  0.00    +0.000 A 
ATOM     11  C   UNL     1       1.460   9.708  20.619  0.00  0.00    +0.000 C 
BRANCH   8  12
ATOM     12  C   UNL     1       2.555   4.922  18.478  0.00  0.00    +0.000 A 
ATOM     13  C   UNL     1       3.726   4.319  18.908  0.00  0.00    +0.000 A 
ATOM     14  N   UNL     1       4.040   3.018  18.713  0.00  0.00    +0.000 NA
ATOM     15  C   UNL     1       3.123   2.297  18.053  0.00  0.00    +0.000 A 
ATOM     16  N   UNL     1       1.953   2.754  17.584  0.00  0.00    +0.000 NA
ATOM     17  C   UNL     1       1.699   4.065  17.810  0.00  0.00    +0.000 A 
ENDBRANCH   8  12
ENDBRANCH   2   3
BRANCH   2  18
ATOM     18  C   UNL     1      -1.208  12.107  18.963  0.00  0.00    +0.000 C 
BRANCH  18  19
ATOM     19  C   UNL     1      -2.676  11.802  18.617  0.00  0.00    +0.000 A 
ATOM     20  C   UNL     1      -3.710  12.323  19.425  0.00  0.00    +0.000 A 
ATOM     21  C   UNL     1      -5.052  12.029  19.164  0.00  0.00    +0.000 A 
ATOM     22  C   UNL     1      -5.372  11.231  18.076  0.00  0.00    +0.000 A 
ATOM     23  F   UNL     1      -6.657  10.951  17.821  0.00  0.00    +0.000 F 
ATOM     24  C   UNL     1      -4.385  10.724  17.245  0.00  0.00    +0.000 A 
ATOM     25  C   UNL     1      -3.052  11.013  17.520  0.00  0.00    +0.000 A 
ATOM     26  F   UNL     1      -2.122  10.529  16.684  0.00  0.00    +0.000 F 
ENDBRANCH  18  19
BRANCH  18  27
ATOM     27  O   UNL     1      -0.672  12.655  17.729  0.00  0.00    +0.000 OA
ATOM     28  H   UNL     1      -1.074  12.131  16.998  0.00  0.00    +0.000 HD
ENDBRANCH  18  27
BRANCH  18  29
ATOM     29  C   UNL     1      -0.972  13.165  20.082  0.00  0.00    +0.000 C 
BRANCH  29  30
ATOM     30  N   UNL     1      -0.083  14.250  19.693  0.00  0.00    +0.000 N 
ATOM     31  C   UNL     1       1.204  14.461  20.075  0.00  0.00    +0.000 A 
ATOM     32  N   UNL     1       1.646  15.575  19.542  0.00  0.00    +0.000 NA
ATOM     33  C   UNL     1       0.580  16.014  18.808  0.00  0.00    +0.000 A 
ATOM     34  N   UNL     1      -0.494  15.219  18.842  0.00  0.00    +0.000 NA
ENDBRANCH  29  30
ENDBRANCH  18  29
ENDBRANCH   2  18
TORSDOF 7
ENDMDL
MODEL 3
REMARK VINA RESULT:      -6.9      1.756      2.488
REMARK  Name = 
REMARK  8 active torsions:
REMARK  status: ('A' for Active; 'I' for Inactive)
REMARK    1  A    between atoms: C_1  and  C_2
REMARK    2  A    between atoms: C_2  and  N_3
REMARK    3  A    between atoms: C_2  and  C_18
REMARK    4  A    between atoms: C_8  and  C_9
REMARK    5  A    between atoms: C_18  and  O_19
REMARK    6  A    between atoms: C_18  and  C_20
REMARK    7  A    between atoms: C_18  and  C_26
REMARK    8  A    between atoms: C_20  and  N_21
REMARK                            x       y       z     vdW  Elec       q    Type
REMARK                         _______ _______ _______ _____ _____    ______ ____
ROOT
ATOM      1  C   UNL     1      -1.270   9.244  20.653  0.00  0.00    +0.000 C 
ATOM      2  C   UNL     1      -0.534  10.021  19.535  0.00  0.00    +0.000 C 
ENDROOT
BRANCH   2   3
ATOM      3  N   UNL     1       0.893  10.314  19.948  0.00  0.00    +0.000 NA
ATOM      4  C   UNL     1       1.807  10.544  18.781  0.00  0.00    +0.000 C 
ATOM      5  C   UNL     1       1.888   9.357  17.781  0.00  0.00    +0.000 C 
ATOM      6  C   UNL     1       2.046   8.067  18.525  0.00  0.00    +0.000 A 
ATOM      7  C   UNL     1       2.323   6.782  17.983  0.00  0.00    +0.000 A 
ATOM      8  C   UNL     1       2.433   5.802  18.956  0.00  0.00    +0.000 A 
ATOM      9  S   UNL     1       2.132   6.462  20.520  0.00  0.00    +0.000 S 
ATOM     10  C   UNL     1       1.867   8.016  19.893  0.00  0.00    +0.000 A 
ATOM     11  C   UNL     1       1.525   9.210  20.745  0.00  0.00    +0.000 C 
BRANCH   8  12
ATOM     12  C   UNL     1       2.780   4.389  18.780  0.00  0.00    +0.000 A 
ATOM     13  C   UNL     1       3.839   3.809  19.459  0.00  0.00    +0.000 A 
ATOM     14  N   UNL     1       4.225   2.520  19.331  0.00  0.00    +0.000 NA
ATOM     15  C   UNL     1       3.500   1.784  18.476  0.00  0.00    +0.000 A 
ATOM     16  N   UNL     1       2.454   2.218  17.758  0.00  0.00    +0.000 NA
ATOM     17  C   UNL     1       2.121   3.519  17.930  0.00  0.00    +0.000 A 
ENDBRANCH   8  12
ENDBRANCH   2   3
BRANCH   2  18
ATOM     18  C   UNL     1      -1.411  11.298  19.081  0.00  0.00    +0.000 C 
BRANCH  18  19
ATOM     19  C   UNL     1      -2.254  10.951  17.841  0.00  0.00    +0.000 A 
ATOM     20  C   UNL     1      -1.775  10.005  16.909  0.00  0.00    +0.000 A 
ATOM     21  C   UNL     1      -2.496   9.699  15.751  0.00  0.00    +0.000 A 
ATOM     22  C   UNL     1      -3.716  10.320  15.528  0.00  0.00    +0.000 A 
ATOM     23  F   UNL     1      -4.410  10.027  14.421  0.00  0.00    +0.000 F 
ATOM     24  C   UNL     1      -4.229  11.235  16.434  0.00  0.00    +0.000 A 
ATOM     25  C   UNL     1      -3.499  11.540  17.578  0.00  0.00    +0.000 A 
ATOM     26  F   UNL     1      -4.034  12.409  18.448  0.00  0.00    +0.000 F 
ENDBRANCH  18  19
BRANCH  18  27
ATOM     27  O   UNL     1      -0.497  12.319  18.600  0.00  0.00    +0.000 OA
ATOM     28  H   UNL     1      -0.315  12.101  17.656  0.00  0.00    +0.000 HD
ENDBRANCH  18  27
BRANCH  18  29
ATOM     29  C   UNL     1      -2.188  11.903  20.290  0.00  0.00    +0.000 C 
BRANCH  29  30
ATOM     30  N   UNL     1      -1.346  12.628  21.231  0.00  0.00    +0.000 N 
ATOM     31  C   UNL     1      -1.022  12.286  22.506  0.00  0.00    +0.000 A 
ATOM     32  N   UNL     1      -0.277  13.225  23.039  0.00  0.00    +0.000 NA
ATOM     33  C   UNL     1      -0.149  14.134  22.026  0.00  0.00    +0.000 A 
ATOM     34  N   UNL     1      -0.760  13.798  20.886  0.00  0.00    +0.000 NA
ENDBRANCH  29  30
ENDBRANCH  18  29
ENDBRANCH   2  18
TORSDOF 7
ENDMDL
MODEL 4
REMARK VINA RESULT:      -6.8      0.817      1.187
REMARK  Name = 
REMARK  8 active torsions:
REMARK  status: ('A' for Active; 'I' for Inactive)
REMARK    1  A    between atoms: C_1  and  C_2
REMARK    2  A    between atoms: C_2  and  N_3
REMARK    3  A    between atoms: C_2  and  C_18
REMARK    4  A    between atoms: C_8  and  C_9
REMARK    5  A    between atoms: C_18  and  O_19
REMARK    6  A    between atoms: C_18  and  C_20
REMARK    7  A    between atoms: C_18  and  C_26
REMARK    8  A    between atoms: C_20  and  N_21
REMARK                            x       y       z     vdW  Elec       q    Type
REMARK                         _______ _______ _______ _____ _____    ______ ____
ROOT
ATOM      1  C   UNL     1      -1.395   9.916  19.668  0.00  0.00    +0.000 C 
ATOM      2  C   UNL     1      -0.541  11.025  19.005  0.00  0.00    +0.000 C 
ENDROOT
BRANCH   2   3
ATOM      3  N   UNL     1       0.774  11.187  19.737  0.00  0.00    +0.000 NA
ATOM      4  C   UNL     1       1.925  11.477  18.821  0.00  0.00    +0.000 C 
ATOM      5  C   UNL     1       2.174  10.395  17.733  0.00  0.00    +0.000 C 
ATOM      6  C   UNL     1       2.119   9.029  18.344  0.00  0.00    +0.000 A 
ATOM      7  C   UNL     1       2.456   7.791  17.731  0.00  0.00    +0.000 A 
ATOM      8  C   UNL     1       2.317   6.712  18.590  0.00  0.00    +0.000 A 
ATOM      9  S   UNL     1       1.713   7.228  20.120  0.00  0.00    +0.000 S 
ATOM     10  C   UNL     1       1.649   8.850  19.630  0.00  0.00    +0.000 A 
ATOM     11  C   UNL     1       1.177   9.970  20.520  0.00  0.00    +0.000 C 
BRANCH   8  12
ATOM     12  C   UNL     1       2.639   5.306  18.333  0.00  0.00    +0.000 A 
ATOM     13  C   UNL     1       1.726   4.444  17.749  0.00  0.00    +0.000 A 
ATOM     14  N   UNL     1       1.951   3.134  17.501  0.00  0.00    +0.000 NA
ATOM     15  C   UNL     1       3.160   2.679  17.859  0.00  0.00    +0.000 A 
ATOM     16  N   UNL     1       4.133   3.402  18.430  0.00  0.00    +0.000 NA
ATOM     17  C   UNL     1       3.844   4.706  18.655  0.00  0.00    +0.000 A 
ENDBRANCH   8  12
ENDBRANCH   2   3
BRANCH   2  18
ATOM     18  C   UNL     1      -1.419  12.368  18.831  0.00  0.00    +0.000 C 
BRANCH  18  19
ATOM     19  C   UNL     1      -2.894  12.010  18.577  0.00  0.00    +0.000 A 
ATOM     20  C   UNL     1      -3.277  11.447  17.341  0.00  0.00    +0.000 A 
ATOM     21  C   UNL     1      -4.615  11.150  17.062  0.00  0.00    +0.000 A 
ATOM     22  C   UNL     1      -5.579  11.391  18.030  0.00  0.00    +0.000 A 
ATOM     23  F   UNL     1      -6.860  11.105  17.768  0.00  0.00    +0.000 F 
ATOM     24  C   UNL     1      -5.236  11.919  19.265  0.00  0.00    +0.000 A 
ATOM     25  C   UNL     1      -3.903  12.221  19.528  0.00  0.00    +0.000 A 
ATOM     26  F   UNL     1      -3.600  12.706  20.741  0.00  0.00    +0.000 F 
ENDBRANCH  18  19
BRANCH  18  27
ATOM     27  O   UNL     1      -1.006  13.014  17.597  0.00  0.00    +0.000 OA
ATOM     28  H   UNL     1      -1.784  12.975  16.993  0.00  0.00    +0.000 HD
ENDBRANCH  18  27
BRANCH  18  29
ATOM     29  C   UNL     1      -1.148  13.370  19.994  0.00  0.00    +0.000 C 
BRANCH  29  30
ATOM     30  N   UNL     1      -0.589  14.643  19.561  0.00  0.00    +0.000 N 
ATOM     31  C   UNL     1      -1.175  15.869  19.579  0.00  0.00    +0.000 A 
ATOM     32  N   UNL     1      -0.359  16.756  19.061  0.00  0.00    +0.000 NA
ATOM     33  C   UNL     1       0.749  16.017  18.751  0.00  0.00    +0.000 A 
ATOM     34  N   UNL     1       0.670  14.721  19.068  0.00  0.00    +0.000 NA
ENDBRANCH  29  30
ENDBRANCH  18  29
ENDBRANCH   2  18
TORSDOF 7
ENDMDL
MODEL 5
REMARK VINA RESULT:      -6.8      1.723      2.134
REMARK  Name = 
REMARK  8 active torsions:
REMARK  status: ('A' for Active; 'I' for Inactive)
REMARK    1  A    between atoms: C_1  and  C_2
REMARK    2  A    between atoms: C_2  and  N_3
REMARK    3  A    between atoms: C_2  and  C_18
REMARK    4  A    between atoms: C_8  and  C_9
REMARK    5  A    between atoms: C_18  and  O_19
REMARK    6  A    between atoms: C_18  and  C_20
REMARK    7  A    between atoms: C_18  and  C_26
REMARK    8  A    between atoms: C_20  and  N_21
REMARK                            x       y       z     vdW  Elec       q    Type
REMARK                         _______ _______ _______ _____ _____    ______ ____
ROOT
ATOM      1  C   UNL     1      -1.163   9.269  20.787  0.00  0.00    +0.000 C 
ATOM      2  C   UNL     1      -0.479  10.029  19.625  0.00  0.00    +0.000 C 
ENDROOT
BRANCH   2   3
ATOM      3  N   UNL     1       0.972  10.308  19.958  0.00  0.00    +0.000 NA
ATOM      4  C   UNL     1       1.821  10.532  18.743  0.00  0.00    +0.000 C 
ATOM      5  C   UNL     1       1.835   9.347  17.737  0.00  0.00    +0.000 C 
ATOM      6  C   UNL     1       2.022   8.053  18.468  0.00  0.00    +0.000 A 
ATOM      7  C   UNL     1       2.255   6.768  17.908  0.00  0.00    +0.000 A 
ATOM      8  C   UNL     1       2.410   5.784  18.872  0.00  0.00    +0.000 A 
ATOM      9  S   UNL     1       2.203   6.442  20.451  0.00  0.00    +0.000 S 
ATOM     10  C   UNL     1       1.919   8.000  19.844  0.00  0.00    +0.000 A 
ATOM     11  C   UNL     1       1.636   9.195  20.717  0.00  0.00    +0.000 C 
BRANCH   8  12
ATOM     12  C   UNL     1       2.733   4.368  18.673  0.00  0.00    +0.000 A 
ATOM     13  C   UNL     1       2.203   3.641  17.620  0.00  0.00    +0.000 A 
ATOM     14  N   UNL     1       2.444   2.330  17.389  0.00  0.00    +0.000 NA
ATOM     15  C   UNL     1       3.264   1.732  18.264  0.00  0.00    +0.000 A 
ATOM     16  N   UNL     1       3.844   2.316  19.323  0.00  0.00    +0.000 NA
ATOM     17  C   UNL     1       3.560   3.628  19.501  0.00  0.00    +0.000 A 
ENDBRANCH   8  12
ENDBRANCH   2   3
BRANCH   2  18
ATOM     18  C   UNL     1      -1.364  11.314  19.209  0.00  0.00    +0.000 C 
BRANCH  18  19
ATOM     19  C   UNL     1      -2.221  10.991  17.972  0.00  0.00    +0.000 A 
ATOM     20  C   UNL     1      -1.740  10.087  17.001  0.00  0.00    +0.000 A 
ATOM     21  C   UNL     1      -2.474   9.805  15.845  0.00  0.00    +0.000 A 
ATOM     22  C   UNL     1      -3.710  10.409  15.663  0.00  0.00    +0.000 A 
ATOM     23  F   UNL     1      -4.417  10.139  14.559  0.00  0.00    +0.000 F 
ATOM     24  C   UNL     1      -4.225  11.282  16.608  0.00  0.00    +0.000 A 
ATOM     25  C   UNL     1      -3.481  11.564  17.750  0.00  0.00    +0.000 A 
ATOM     26  F   UNL     1      -4.018  12.392  18.657  0.00  0.00    +0.000 F 
ENDBRANCH  18  19
BRANCH  18  27
ATOM     27  O   UNL     1      -0.457  12.346  18.738  0.00  0.00    +0.000 OA
ATOM     28  H   UNL     1       0.269  11.878  18.264  0.00  0.00    +0.000 HD
ENDBRANCH  18  27
BRANCH  18  29
ATOM     29  C   UNL     1      -2.126  11.891  20.440  0.00  0.00    +0.000 C 
BRANCH  29  30
ATOM     30  N   UNL     1      -1.482  13.047  21.046  0.00  0.00    +0.000 N 
ATOM     31  C   UNL     1      -1.876  14.348  21.005  0.00  0.00    +0.000 A 
ATOM     32  N   UNL     1      -1.002  15.094  21.638  0.00  0.00    +0.000 NA
ATOM     33  C   UNL     1      -0.079  14.187  22.078  0.00  0.00    +0.000 A 
ATOM     34  N   UNL     1      -0.346  12.914  21.769  0.00  0.00    +0.000 NA
ENDBRANCH  29  30
ENDBRANCH  18  29
ENDBRANCH   2  18
TORSDOF 7
ENDMDL
MODEL 6
REMARK VINA RESULT:      -6.6      1.645      2.052
REMARK  Name = 
REMARK  8 active torsions:
REMARK  status: ('A' for Active; 'I' for Inactive)
REMARK    1  A    between atoms: C_1  and  C_2
REMARK    2  A    between atoms: C_2  and  N_3
REMARK    3  A    between atoms: C_2  and  C_18
REMARK    4  A    between atoms: C_8  and  C_9
REMARK    5  A    between atoms: C_18  and  O_19
REMARK    6  A    between atoms: C_18  and  C_20
REMARK    7  A    between atoms: C_18  and  C_26
REMARK    8  A    between atoms: C_20  and  N_21
REMARK                            x       y       z     vdW  Elec       q    Type
REMARK                         _______ _______ _______ _____ _____    ______ ____
ROOT
ATOM      1  C   UNL     1      -1.284   9.369  20.512  0.00  0.00    +0.000 C 
ATOM      2  C   UNL     1      -0.445  10.097  19.433  0.00  0.00    +0.000 C 
ENDROOT
BRANCH   2   3
ATOM      3  N   UNL     1       0.965  10.334  19.931  0.00  0.00    +0.000 NA
ATOM      4  C   UNL     1       1.948  10.565  18.824  0.00  0.00    +0.000 C 
ATOM      5  C   UNL     1       2.050   9.403  17.797  0.00  0.00    +0.000 C 
ATOM      6  C   UNL     1       2.127   8.089  18.513  0.00  0.00    +0.000 A 
ATOM      7  C   UNL     1       2.395   6.811  17.952  0.00  0.00    +0.000 A 
ATOM      8  C   UNL     1       2.421   5.803  18.903  0.00  0.00    +0.000 A 
ATOM      9  S   UNL     1       2.053   6.432  20.465  0.00  0.00    +0.000 S 
ATOM     10  C   UNL     1       1.871   8.009  19.867  0.00  0.00    +0.000 A 
ATOM     11  C   UNL     1       1.517   9.190  20.732  0.00  0.00    +0.000 C 
BRANCH   8  12
ATOM     12  C   UNL     1       2.735   4.384  18.708  0.00  0.00    +0.000 A 
ATOM     13  C   UNL     1       2.145   3.395  19.477  0.00  0.00    +0.000 A 
ATOM     14  N   UNL     1       2.403   2.072  19.363  0.00  0.00    +0.000 NA
ATOM     15  C   UNL     1       3.297   1.739  18.421  0.00  0.00    +0.000 A 
ATOM     16  N   UNL     1       3.938   2.592  17.610  0.00  0.00    +0.000 NA
ATOM     17  C   UNL     1       3.639   3.902  17.777  0.00  0.00    +0.000 A 
ENDBRANCH   8  12
ENDBRANCH   2   3
BRANCH   2  18
ATOM     18  C   UNL     1      -1.235  11.404  18.909  0.00  0.00    +0.000 C 
BRANCH  18  19
ATOM     19  C   UNL     1      -2.140  11.036  17.719  0.00  0.00    +0.000 A 
ATOM     20  C   UNL     1      -3.357  11.723  17.523  0.00  0.00    +0.000 A 
ATOM     21  C   UNL     1      -4.222  11.384  16.478  0.00  0.00    +0.000 A 
ATOM     22  C   UNL     1      -3.862  10.370  15.603  0.00  0.00    +0.000 A 
ATOM     23  F   UNL     1      -4.686  10.046  14.599  0.00  0.00    +0.000 F 
ATOM     24  C   UNL     1      -2.662   9.691  15.749  0.00  0.00    +0.000 A 
ATOM     25  C   UNL     1      -1.814  10.029  16.799  0.00  0.00    +0.000 A 
ATOM     26  F   UNL     1      -0.650   9.372  16.898  0.00  0.00    +0.000 F 
ENDBRANCH  18  19
BRANCH  18  27
ATOM     27  O   UNL     1      -0.260  12.312  18.331  0.00  0.00    +0.000 OA
ATOM     28  H   UNL     1       0.289  11.771  17.716  0.00  0.00    +0.000 HD
ENDBRANCH  18  27
BRANCH  18  29
ATOM     29  C   UNL     1      -1.925  12.153  20.089  0.00  0.00    +0.000 C 
BRANCH  29  30
ATOM     30  N   UNL     1      -1.036  13.032  20.833  0.00  0.00    +0.000 N 
ATOM     31  C   UNL     1      -0.462  12.818  22.046  0.00  0.00    +0.000 A 
ATOM     32  N   UNL     1       0.238  13.871  22.395  0.00  0.00    +0.000 NA
ATOM     33  C   UNL     1       0.079  14.718  21.334  0.00  0.00    +0.000 A 
ATOM     34  N   UNL     1      -0.668  14.236  20.335  0.00  0.00    +0.000 NA
ENDBRANCH  29  30
ENDBRANCH  18  29
ENDBRANCH   2  18
TORSDOF 7
ENDMDL
MODEL 7
REMARK VINA RESULT:      -6.6      1.075      1.608
REMARK  Name = 
REMARK  8 active torsions:
REMARK  status: ('A' for Active; 'I' for Inactive)
REMARK    1  A    between atoms: C_1  and  C_2
REMARK    2  A    between atoms: C_2  and  N_3
REMARK    3  A    between atoms: C_2  and  C_18
REMARK    4  A    between atoms: C_8  and  C_9
REMARK    5  A    between atoms: C_18  and  O_19
REMARK    6  A    between atoms: C_18  and  C_20
REMARK    7  A    between atoms: C_18  and  C_26
REMARK    8  A    between atoms: C_20  and  N_21
REMARK                            x       y       z     vdW  Elec       q    Type
REMARK                         _______ _______ _______ _____ _____    ______ ____
ROOT
ATOM      1  C   UNL     1      -1.285   9.897  20.201  0.00  0.00    +0.000 C 
ATOM      2  C   UNL     1      -0.407  10.768  19.269  0.00  0.00    +0.000 C 
ENDROOT
BRANCH   2   3
ATOM      3  N   UNL     1       0.995  10.891  19.829  0.00  0.00    +0.000 NA
ATOM      4  C   UNL     1       2.034  11.093  18.768  0.00  0.00    +0.000 C 
ATOM      5  C   UNL     1       2.100   9.963  17.703  0.00  0.00    +0.000 C 
ATOM      6  C   UNL     1       2.060   8.623  18.371  0.00  0.00    +0.000 A 
ATOM      7  C   UNL     1       2.265   7.350  17.773  0.00  0.00    +0.000 A 
ATOM      8  C   UNL     1       2.186   6.310  18.685  0.00  0.00    +0.000 A 
ATOM      9  S   UNL     1       1.799   6.907  20.255  0.00  0.00    +0.000 S 
ATOM     10  C   UNL     1       1.746   8.513  19.711  0.00  0.00    +0.000 A 
ATOM     11  C   UNL     1       1.437   9.684  20.606  0.00  0.00    +0.000 C 
BRANCH   8  12
ATOM     12  C   UNL     1       2.412   4.881  18.449  0.00  0.00    +0.000 A 
ATOM     13  C   UNL     1       3.592   4.413  17.894  0.00  0.00    +0.000 A 
ATOM     14  N   UNL     1       3.860   3.113  17.633  0.00  0.00    +0.000 NA
ATOM     15  C   UNL     1       2.886   2.249  17.951  0.00  0.00    +0.000 A 
ATOM     16  N   UNL     1       1.700   2.567  18.492  0.00  0.00    +0.000 NA
ATOM     17  C   UNL     1       1.493   3.884  18.726  0.00  0.00    +0.000 A 
ENDBRANCH   8  12
ENDBRANCH   2   3
BRANCH   2  18
ATOM     18  C   UNL     1      -1.159  12.158  18.944  0.00  0.00    +0.000 C 
BRANCH  18  19
ATOM     19  C   UNL     1      -2.638  11.897  18.608  0.00  0.00    +0.000 A 
ATOM     20  C   UNL     1      -2.987  11.336  17.360  0.00  0.00    +0.000 A 
ATOM     21  C   UNL     1      -4.323  11.126  17.007  0.00  0.00    +0.000 A 
ATOM     22  C   UNL     1      -5.323  11.453  17.912  0.00  0.00    +0.000 A 
ATOM     23  F   UNL     1      -6.603  11.250  17.578  0.00  0.00    +0.000 F 
ATOM     24  C   UNL     1      -5.016  11.981  19.156  0.00  0.00    +0.000 A 
ATOM     25  C   UNL     1      -3.684  12.196  19.494  0.00  0.00    +0.000 A 
ATOM     26  F   UNL     1      -3.419  12.684  20.714  0.00  0.00    +0.000 F 
ENDBRANCH  18  19
BRANCH  18  27
ATOM     27  O   UNL     1      -0.613  12.681  17.703  0.00  0.00    +0.000 OA
ATOM     28  H   UNL     1      -0.185  13.538  17.932  0.00  0.00    +0.000 HD
ENDBRANCH  18  27
BRANCH  18  29
ATOM     29  C   UNL     1      -0.886  13.217  20.055  0.00  0.00    +0.000 C 
BRANCH  29  30
ATOM     30  N   UNL     1       0.005  14.292  19.641  0.00  0.00    +0.000 N 
ATOM     31  C   UNL     1       1.316  14.467  19.958  0.00  0.00    +0.000 A 
ATOM     32  N   UNL     1       1.753  15.583  19.425  0.00  0.00    +0.000 NA
ATOM     33  C   UNL     1       0.659  16.060  18.758  0.00  0.00    +0.000 A 
ATOM     34  N   UNL     1      -0.429  15.287  18.834  0.00  0.00    +0.000 NA
ENDBRANCH  29  30
ENDBRANCH  18  29
ENDBRANCH   2  18
TORSDOF 7
ENDMDL
MODEL 8
REMARK VINA RESULT:      -6.4      4.998      7.844
REMARK  Name = 
REMARK  8 active torsions:
REMARK  status: ('A' for Active; 'I' for Inactive)
REMARK    1  A    between atoms: C_1  and  C_2
REMARK    2  A    between atoms: C_2  and  N_3
REMARK    3  A    between atoms: C_2  and  C_18
REMARK    4  A    between atoms: C_8  and  C_9
REMARK    5  A    between atoms: C_18  and  O_19
REMARK    6  A    between atoms: C_18  and  C_20
REMARK    7  A    between atoms: C_18  and  C_26
REMARK    8  A    between atoms: C_20  and  N_21
REMARK                            x       y       z     vdW  Elec       q    Type
REMARK                         _______ _______ _______ _____ _____    ______ ____
ROOT
ATOM      1  C   UNL     1       0.761  14.495  22.084  0.00  0.00    +0.000 C 
ATOM      2  C   UNL     1       0.283  13.531  20.971  0.00  0.00    +0.000 C 
ENDROOT
BRANCH   2   3
ATOM      3  N   UNL     1      -0.115  14.309  19.734  0.00  0.00    +0.000 NA
ATOM      4  C   UNL     1       0.138  13.559  18.462  0.00  0.00    +0.000 C 
ATOM      5  C   UNL     1       1.618  13.140  18.242  0.00  0.00    +0.000 C 
ATOM      6  C   UNL     1       2.530  14.289  18.547  0.00  0.00    +0.000 A 
ATOM      7  C   UNL     1       3.929  14.370  18.314  0.00  0.00    +0.000 A 
ATOM      8  C   UNL     1       4.465  15.592  18.691  0.00  0.00    +0.000 A 
ATOM      9  S   UNL     1       3.251  16.599  19.384  0.00  0.00    +0.000 S 
ATOM     10  C   UNL     1       2.050  15.421  19.175  0.00  0.00    +0.000 A 
ATOM     11  C   UNL     1       0.614  15.614  19.587  0.00  0.00    +0.000 C 
BRANCH   8  12
ATOM     12  C   UNL     1       5.845  16.060  18.533  0.00  0.00    +0.000 A 
ATOM     13  C   UNL     1       6.819  15.272  17.941  0.00  0.00    +0.000 A 
ATOM     14  N   UNL     1       8.112  15.633  17.781  0.00  0.00    +0.000 NA
ATOM     15  C   UNL     1       8.431  16.851  18.240  0.00  0.00    +0.000 A 
ATOM     16  N   UNL     1       7.590  17.713  18.830  0.00  0.00    +0.000 NA
ATOM     17  C   UNL     1       6.311  17.290  18.963  0.00  0.00    +0.000 A 
ENDBRANCH   8  12
ENDBRANCH   2   3
BRANCH   2  18
ATOM     18  C   UNL     1      -0.833  12.522  21.557  0.00  0.00    +0.000 C 
BRANCH  18  19
ATOM     19  C   UNL     1      -0.323  11.071  21.493  0.00  0.00    +0.000 A 
ATOM     20  C   UNL     1       0.495  10.661  20.419  0.00  0.00    +0.000 A 
ATOM     21  C   UNL     1       0.938   9.339  20.308  0.00  0.00    +0.000 A 
ATOM     22  C   UNL     1       0.588   8.423  21.289  0.00  0.00    +0.000 A 
ATOM     23  F   UNL     1       1.014   7.157  21.188  0.00  0.00    +0.000 F 
ATOM     24  C   UNL     1      -0.192   8.797  22.372  0.00  0.00    +0.000 A 
ATOM     25  C   UNL     1      -0.638  10.112  22.466  0.00  0.00    +0.000 A 
ATOM     26  F   UNL     1      -1.369  10.448  23.538  0.00  0.00    +0.000 F 
ENDBRANCH  18  19
BRANCH  18  27
ATOM     27  O   UNL     1      -1.963  12.529  20.643  0.00  0.00    +0.000 OA
ATOM     28  H   UNL     1      -1.594  12.731  19.752  0.00  0.00    +0.000 HD
ENDBRANCH  18  27
BRANCH  18  29
ATOM     29  C   UNL     1      -1.353  13.006  22.944  0.00  0.00    +0.000 C 
BRANCH  29  30
ATOM     30  N   UNL     1      -2.749  13.418  22.941  0.00  0.00    +0.000 N 
ATOM     31  C   UNL     1      -3.802  12.830  23.569  0.00  0.00    +0.000 A 
ATOM     32  N   UNL     1      -4.906  13.479  23.283  0.00  0.00    +0.000 NA
ATOM     33  C   UNL     1      -4.471  14.493  22.476  0.00  0.00    +0.000 A 
ATOM     34  N   UNL     1      -3.151  14.518  22.262  0.00  0.00    +0.000 NA
ENDBRANCH  29  30
ENDBRANCH  18  29
ENDBRANCH   2  18
TORSDOF 7
ENDMDL
MODEL 9
REMARK VINA RESULT:      -6.3      3.101      4.850
REMARK  Name = 
REMARK  8 active torsions:
REMARK  status: ('A' for Active; 'I' for Inactive)
REMARK    1  A    between atoms: C_1  and  C_2
REMARK    2  A    between atoms: C_2  and  N_3
REMARK    3  A    between atoms: C_2  and  C_18
REMARK    4  A    between atoms: C_8  and  C_9
REMARK    5  A    between atoms: C_18  and  O_19
REMARK    6  A    between atoms: C_18  and  C_20
REMARK    7  A    between atoms: C_18  and  C_26
REMARK    8  A    between atoms: C_20  and  N_21
REMARK                            x       y       z     vdW  Elec       q    Type
REMARK                         _______ _______ _______ _____ _____    ______ ____
ROOT
ATOM      1  C   UNL     1       2.061  12.804  19.761  0.00  0.00    +0.000 C 
ATOM      2  C   UNL     1       0.936  12.807  20.825  0.00  0.00    +0.000 C 
ENDROOT
BRANCH   2   3
ATOM      3  N   UNL     1      -0.301  12.118  20.286  0.00  0.00    +0.000 NA
ATOM      4  C   UNL     1      -0.907  11.154  21.261  0.00  0.00    +0.000 C 
ATOM      5  C   UNL     1       0.046  10.017  21.723  0.00  0.00    +0.000 C 
ATOM      6  C   UNL     1       0.760   9.433  20.543  0.00  0.00    +0.000 A 
ATOM      7  C   UNL     1       1.583   8.274  20.514  0.00  0.00    +0.000 A 
ATOM      8  C   UNL     1       2.071   7.994  19.248  0.00  0.00    +0.000 A 
ATOM      9  S   UNL     1       1.562   9.195  18.121  0.00  0.00    +0.000 S 
ATOM     10  C   UNL     1       0.711  10.055  19.311  0.00  0.00    +0.000 A 
ATOM     11  C   UNL     1      -0.049  11.326  19.036  0.00  0.00    +0.000 C 
BRANCH   8  12
ATOM     12  C   UNL     1       2.884   6.850  18.825  0.00  0.00    +0.000 A 
ATOM     13  C   UNL     1       2.976   5.700  19.591  0.00  0.00    +0.000 A 
ATOM     14  N   UNL     1       3.721   4.617  19.271  0.00  0.00    +0.000 NA
ATOM     15  C   UNL     1       4.400   4.705  18.119  0.00  0.00    +0.000 A 
ATOM     16  N   UNL     1       4.399   5.756  17.285  0.00  0.00    +0.000 NA
ATOM     17  C   UNL     1       3.637   6.808  17.664  0.00  0.00    +0.000 A 
ENDBRANCH   8  12
ENDBRANCH   2   3
BRANCH   2  18
ATOM     18  C   UNL     1       0.718  14.302  21.393  0.00  0.00    +0.000 C 
BRANCH  18  19
ATOM     19  C   UNL     1       0.895  15.331  20.263  0.00  0.00    +0.000 A 
ATOM     20  C   UNL     1       2.085  16.087  20.182  0.00  0.00    +0.000 A 
ATOM     21  C   UNL     1       2.260  17.061  19.194  0.00  0.00    +0.000 A 
ATOM     22  C   UNL     1       1.254  17.268  18.261  0.00  0.00    +0.000 A 
ATOM     23  F   UNL     1       1.420  18.198  17.312  0.00  0.00    +0.000 F 
ATOM     24  C   UNL     1       0.083  16.526  18.294  0.00  0.00    +0.000 A 
ATOM     25  C   UNL     1      -0.085  15.568  19.289  0.00  0.00    +0.000 A 
ATOM     26  F   UNL     1      -1.217  14.849  19.278  0.00  0.00    +0.000 F 
ENDBRANCH  18  19
BRANCH  18  27
ATOM     27  O   UNL     1       1.812  14.597  22.301  0.00  0.00    +0.000 OA
ATOM     28  H   UNL     1       2.513  13.930  22.113  0.00  0.00    +0.000 HD
ENDBRANCH  18  27
BRANCH  18  29
ATOM     29  C   UNL     1      -0.605  14.404  22.211  0.00  0.00    +0.000 C 
BRANCH  29  30
ATOM     30  N   UNL     1      -0.680  15.574  23.073  0.00  0.00    +0.000 N 
ATOM     31  C   UNL     1      -1.128  16.820  22.762  0.00  0.00    +0.000 A 
ATOM     32  N   UNL     1      -0.991  17.610  23.801  0.00  0.00    +0.000 NA
ATOM     33  C   UNL     1      -0.463  16.783  24.754  0.00  0.00    +0.000 A 
ATOM     34  N   UNL     1      -0.284  15.517  24.366  0.00  0.00    +0.000 NA
ENDBRANCH  29  30
ENDBRANCH  18  29
ENDBRANCH   2  18
TORSDOF 7
ENDMDL
