MODEL 1
REMARK VINA RESULT:      -9.0      0.000      0.000
REMARK  Name = 
REMARK  6 active torsions:
REMARK  status: ('A' for Active; 'I' for Inactive)
REMARK    1  A    between atoms: C_1  and  C_2
REMARK    2  A    between atoms: C_6  and  C_7
REMARK    3  A    between atoms: C_10  and  C_11
REMARK    4  A    between atoms: C_11  and  N_12
REMARK    5  A    between atoms: C_17  and  C_18
REMARK    6  A    between atoms: C_18  and  N_19
REMARK                            x       y       z     vdW  Elec       q    Type
REMARK                         _______ _______ _______ _____ _____    ______ ____
ROOT
ATOM      1  C   UNL     1       5.095   5.034  19.077  0.00  0.00    +0.000 C 
ENDROOT
BRANCH   1   2
ATOM      2  N   UNL     1       3.846   4.263  18.886  0.00  0.00    +0.000 NA
ATOM      3  C   UNL     1       3.579   3.371  20.024  0.00  0.00    +0.000 C 
ATOM      4  C   UNL     1       2.319   2.524  19.813  0.00  0.00    +0.000 C 
ATOM      5  C   UNL     1       1.114   3.381  19.453  0.00  0.00    +0.000 C 
ATOM      6  C   UNL     1       1.460   4.277  18.267  0.00  0.00    +0.000 C 
ATOM      7  C   UNL     1       2.694   5.159  18.550  0.00  0.00    +0.000 C 
BRANCH   7   8
ATOM      8  C   UNL     1       2.391   6.281  19.582  0.00  0.00    +0.000 C 
BRANCH   8   9
ATOM      9  N   UNL     1       2.226   7.610  19.027  0.00  0.00    +0.000 N 
ATOM     10  C   UNL     1       2.598   8.057  17.798  0.00  0.00    +0.000 A 
ATOM     11  N   UNL     1       2.112   9.255  17.590  0.00  0.00    +0.000 NA
ATOM     12  C   UNL     1       1.414   9.501  18.738  0.00  0.00    +0.000 A 
ATOM     13  N   UNL     1       1.458   8.528  19.652  0.00  0.00    +0.000 NA
ENDBRANCH   8   9
ENDBRANCH   7   8
ENDBRANCH   1   2
BRANCH   1  17
ATOM     14  C   UNL     1       6.970   4.759  16.063  0.00  0.00    +0.000 A 
ATOM     15  N   UNL     1       7.893   4.294  16.922  0.00  0.00    +0.000 NA
ATOM     16  O   UNL     1       7.299   4.467  18.178  0.00  0.00    +0.000 OA
ATOM     17  C   UNL     1       6.078   5.031  17.948  0.00  0.00    +0.000 A 
ATOM     18  N   UNL     1       5.854   5.288  16.679  0.00  0.00    +0.000 NA
BRANCH  14  24
ATOM     19  C   UNL     1       5.223   2.681  11.847  0.00  0.00    +0.000 C 
ATOM     20  C   UNL     1       6.163   3.624  12.540  0.00  0.00    +0.000 A 
ATOM     21  C   UNL     1       7.032   4.437  11.804  0.00  0.00    +0.000 A 
ATOM     22  C   UNL     1       7.897   5.314  12.457  0.00  0.00    +0.000 A 
ATOM     23  C   UNL     1       7.895   5.390  13.851  0.00  0.00    +0.000 A 
ATOM     24  C   UNL     1       7.030   4.589  14.612  0.00  0.00    +0.000 A 
ATOM     25  C   UNL     1       6.174   3.699  13.944  0.00  0.00    +0.000 A 
ENDBRANCH  14  24
ENDBRANCH   1  17
TORSDOF 5
ENDMDL
MODEL 2
REMARK VINA RESULT:      -8.3      2.949      7.858
REMARK  Name = 
REMARK  6 active torsions:
REMARK  status: ('A' for Active; 'I' for Inactive)
REMARK    1  A    between atoms: C_1  and  C_2
REMARK    2  A    between atoms: C_6  and  C_7
REMARK    3  A    between atoms: C_10  and  C_11
REMARK    4  A    between atoms: C_11  and  N_12
REMARK    5  A    between atoms: C_17  and  C_18
REMARK    6  A    between atoms: C_18  and  N_19
REMARK                            x       y       z     vdW  Elec       q    Type
REMARK                         _______ _______ _______ _____ _____    ______ ____
ROOT
ATOM      1  C   UNL     1       3.121   6.112  17.932  0.00  0.00    +0.000 C 
ENDROOT
BRANCH   1   2
ATOM      2  N   UNL     1       2.542   5.048  18.783  0.00  0.00    +0.000 NA
ATOM      3  C   UNL     1       1.639   4.173  18.020  0.00  0.00    +0.000 C 
ATOM      4  C   UNL     1       0.989   3.102  18.903  0.00  0.00    +0.000 C 
ATOM      5  C   UNL     1       2.022   2.318  19.697  0.00  0.00    +0.000 C 
ATOM      6  C   UNL     1       2.920   3.285  20.464  0.00  0.00    +0.000 C 
ATOM      7  C   UNL     1       3.606   4.301  19.527  0.00  0.00    +0.000 C 
BRANCH   7   8
ATOM      8  C   UNL     1       4.705   3.642  18.648  0.00  0.00    +0.000 C 
BRANCH   8   9
ATOM      9  N   UNL     1       5.952   4.376  18.555  0.00  0.00    +0.000 N 
ATOM     10  C   UNL     1       6.708   4.606  17.448  0.00  0.00    +0.000 A 
ATOM     11  N   UNL     1       7.656   5.466  17.724  0.00  0.00    +0.000 NA
ATOM     12  C   UNL     1       7.426   5.760  19.038  0.00  0.00    +0.000 A 
ATOM     13  N   UNL     1       6.397   5.114  19.594  0.00  0.00    +0.000 NA
ENDBRANCH   8   9
ENDBRANCH   7   8
ENDBRANCH   1   2
BRANCH   1  17
ATOM     14  C   UNL     1       1.566   9.187  18.826  0.00  0.00    +0.000 A 
ATOM     15  N   UNL     1       1.938   9.502  17.574  0.00  0.00    +0.000 NA
ATOM     16  O   UNL     1       2.675   8.388  17.154  0.00  0.00    +0.000 OA
ATOM     17  C   UNL     1       2.682   7.517  18.203  0.00  0.00    +0.000 A 
ATOM     18  N   UNL     1       2.073   7.983  19.270  0.00  0.00    +0.000 NA
BRANCH  14  24
ATOM     19  C   UNL     1      -0.706  10.134  23.195  0.00  0.00    +0.000 C 
ATOM     20  C   UNL     1      -0.498  10.449  21.742  0.00  0.00    +0.000 A 
ATOM     21  C   UNL     1      -1.148  11.533  21.144  0.00  0.00    +0.000 A 
ATOM     22  C   UNL     1      -0.943  11.820  19.796  0.00  0.00    +0.000 A 
ATOM     23  C   UNL     1      -0.081  11.029  19.036  0.00  0.00    +0.000 A 
ATOM     24  C   UNL     1       0.588   9.938  19.612  0.00  0.00    +0.000 A 
ATOM     25  C   UNL     1       0.362   9.650  20.967  0.00  0.00    +0.000 A 
ENDBRANCH  14  24
ENDBRANCH   1  17
TORSDOF 5
ENDMDL
MODEL 3
REMARK VINA RESULT:      -8.3      1.091      1.253
REMARK  Name = 
REMARK  6 active torsions:
REMARK  status: ('A' for Active; 'I' for Inactive)
REMARK    1  A    between atoms: C_1  and  C_2
REMARK    2  A    between atoms: C_6  and  C_7
REMARK    3  A    between atoms: C_10  and  C_11
REMARK    4  A    between atoms: C_11  and  N_12
REMARK    5  A    between atoms: C_17  and  C_18
REMARK    6  A    between atoms: C_18  and  N_19
REMARK                            x       y       z     vdW  Elec       q    Type
REMARK                         _______ _______ _______ _____ _____    ______ ____
ROOT
ATOM      1  C   UNL     1       4.901   4.520  19.084  0.00  0.00    +0.000 C 
ENDROOT
BRANCH   1   2
ATOM      2  N   UNL     1       3.592   3.870  19.324  0.00  0.00    +0.000 NA
ATOM      3  C   UNL     1       3.547   3.204  20.634  0.00  0.00    +0.000 C 
ATOM      4  C   UNL     1       2.218   2.479  20.870  0.00  0.00    +0.000 C 
ATOM      5  C   UNL     1       1.025   3.396  20.646  0.00  0.00    +0.000 C 
ATOM      6  C   UNL     1       1.134   4.050  19.272  0.00  0.00    +0.000 C 
ATOM      7  C   UNL     1       2.458   4.824  19.104  0.00  0.00    +0.000 C 
BRANCH   7   8
ATOM      8  C   UNL     1       2.494   6.121  19.959  0.00  0.00    +0.000 C 
BRANCH   8   9
ATOM      9  N   UNL     1       2.113   7.336  19.265  0.00  0.00    +0.000 N 
ATOM     10  C   UNL     1       1.580   8.470  19.794  0.00  0.00    +0.000 A 
ATOM     11  N   UNL     1       1.551   9.415  18.888  0.00  0.00    +0.000 NA
ATOM     12  C   UNL     1       2.108   8.809  17.799  0.00  0.00    +0.000 A 
ATOM     13  N   UNL     1       2.464   7.533  17.977  0.00  0.00    +0.000 NA
ENDBRANCH   8   9
ENDBRANCH   7   8
ENDBRANCH   1   2
BRANCH   1  17
ATOM     14  C   UNL     1       5.852   5.228  15.727  0.00  0.00    +0.000 A 
ATOM     15  N   UNL     1       6.116   6.428  16.273  0.00  0.00    +0.000 NA
ATOM     16  O   UNL     1       5.663   6.302  17.592  0.00  0.00    +0.000 OA
ATOM     17  C   UNL     1       5.161   5.039  17.705  0.00  0.00    +0.000 A 
ATOM     18  N   UNL     1       5.195   4.363  16.578  0.00  0.00    +0.000 NA
BRANCH  14  24
ATOM     19  C   UNL     1       5.345   2.416  11.607  0.00  0.00    +0.000 C 
ATOM     20  C   UNL     1       6.091   3.461  12.386  0.00  0.00    +0.000 A 
ATOM     21  C   UNL     1       7.201   4.108  11.833  0.00  0.00    +0.000 A 
ATOM     22  C   UNL     1       7.884   5.080  12.562  0.00  0.00    +0.000 A 
ATOM     23  C   UNL     1       7.457   5.418  13.847  0.00  0.00    +0.000 A 
ATOM     24  C   UNL     1       6.344   4.786  14.424  0.00  0.00    +0.000 A 
ATOM     25  C   UNL     1       5.674   3.798  13.685  0.00  0.00    +0.000 A 
ENDBRANCH  14  24
ENDBRANCH   1  17
TORSDOF 5
ENDMDL
MODEL 4
REMARK VINA RESULT:      -8.2      2.908      8.173
REMARK  Name = 
REMARK  6 active torsions:
REMARK  status: ('A' for Active; 'I' for Inactive)
REMARK    1  A    between atoms: C_1  and  C_2
REMARK    2  A    between atoms: C_6  and  C_7
REMARK    3  A    between atoms: C_10  and  C_11
REMARK    4  A    between atoms: C_11  and  N_12
REMARK    5  A    between atoms: C_17  and  C_18
REMARK    6  A    between atoms: C_18  and  N_19
REMARK                            x       y       z     vdW  Elec       q    Type
REMARK                         _______ _______ _______ _____ _____    ______ ____
ROOT
ATOM      1  C   UNL     1       2.880   6.160  17.985  0.00  0.00    +0.000 C 
ENDROOT
BRANCH   1   2
ATOM      2  N   UNL     1       2.441   4.948  18.712  0.00  0.00    +0.000 NA
ATOM      3  C   UNL     1       1.525   4.130  17.904  0.00  0.00    +0.000 C 
ATOM      4  C   UNL     1       1.018   2.902  18.667  0.00  0.00    +0.000 C 
ATOM      5  C   UNL     1       2.161   2.085  19.251  0.00  0.00    +0.000 C 
ATOM      6  C   UNL     1       3.068   2.992  20.077  0.00  0.00    +0.000 C 
ATOM      7  C   UNL     1       3.608   4.177  19.250  0.00  0.00    +0.000 C 
BRANCH   7   8
ATOM      8  C   UNL     1       4.659   3.729  18.197  0.00  0.00    +0.000 C 
BRANCH   8   9
ATOM      9  N   UNL     1       5.912   4.459  18.216  0.00  0.00    +0.000 N 
ATOM     10  C   UNL     1       6.595   4.979  17.161  0.00  0.00    +0.000 A 
ATOM     11  N   UNL     1       7.577   5.731  17.590  0.00  0.00    +0.000 NA
ATOM     12  C   UNL     1       7.443   5.659  18.947  0.00  0.00    +0.000 A 
ATOM     13  N   UNL     1       6.442   4.889  19.381  0.00  0.00    +0.000 NA
ENDBRANCH   8   9
ENDBRANCH   7   8
ENDBRANCH   1   2
BRANCH   1  17
ATOM     14  C   UNL     1       1.460   8.962  19.660  0.00  0.00    +0.000 A 
ATOM     15  N   UNL     1       1.372   9.412  18.396  0.00  0.00    +0.000 NA
ATOM     16  O   UNL     1       2.019   8.424  17.644  0.00  0.00    +0.000 OA
ATOM     17  C   UNL     1       2.441   7.481  18.534  0.00  0.00    +0.000 A 
ATOM     18  N   UNL     1       2.181   7.793  19.784  0.00  0.00    +0.000 NA
BRANCH  14  24
ATOM     19  C   UNL     1      -0.688  12.891  21.918  0.00  0.00    +0.000 C 
ATOM     20  C   UNL     1      -0.358  11.426  21.890  0.00  0.00    +0.000 A 
ATOM     21  C   UNL     1      -0.831  10.567  22.887  0.00  0.00    +0.000 A 
ATOM     22  C   UNL     1      -0.524   9.208  22.849  0.00  0.00    +0.000 A 
ATOM     23  C   UNL     1       0.253   8.696  21.809  0.00  0.00    +0.000 A 
ATOM     24  C   UNL     1       0.737   9.535  20.794  0.00  0.00    +0.000 A 
ATOM     25  C   UNL     1       0.434  10.905  20.851  0.00  0.00    +0.000 A 
ENDBRANCH  14  24
ENDBRANCH   1  17
TORSDOF 5
ENDMDL
MODEL 5
REMARK VINA RESULT:      -8.0      0.389      1.380
REMARK  Name = 
REMARK  6 active torsions:
REMARK  status: ('A' for Active; 'I' for Inactive)
REMARK    1  A    between atoms: C_1  and  C_2
REMARK    2  A    between atoms: C_6  and  C_7
REMARK    3  A    between atoms: C_10  and  C_11
REMARK    4  A    between atoms: C_11  and  N_12
REMARK    5  A    between atoms: C_17  and  C_18
REMARK    6  A    between atoms: C_18  and  N_19
REMARK                            x       y       z     vdW  Elec       q    Type
REMARK                         _______ _______ _______ _____ _____    ______ ____
ROOT
ATOM      1  C   UNL     1       5.087   5.108  19.287  0.00  0.00    +0.000 C 
ENDROOT
BRANCH   1   2
ATOM      2  N   UNL     1       3.836   4.329  19.149  0.00  0.00    +0.000 NA
ATOM      3  C   UNL     1       3.572   3.508  20.340  0.00  0.00    +0.000 C 
ATOM      4  C   UNL     1       2.309   2.653  20.186  0.00  0.00    +0.000 C 
ATOM      5  C   UNL     1       1.105   3.489  19.780  0.00  0.00    +0.000 C 
ATOM      6  C   UNL     1       1.447   4.311  18.540  0.00  0.00    +0.000 C 
ATOM      7  C   UNL     1       2.684   5.205  18.764  0.00  0.00    +0.000 C 
BRANCH   7   8
ATOM      8  C   UNL     1       2.388   6.389  19.727  0.00  0.00    +0.000 C 
BRANCH   8   9
ATOM      9  N   UNL     1       2.242   7.685  19.095  0.00  0.00    +0.000 N 
ATOM     10  C   UNL     1       2.633   8.058  17.847  0.00  0.00    +0.000 A 
ATOM     11  N   UNL     1       2.160   9.246  17.565  0.00  0.00    +0.000 NA
ATOM     12  C   UNL     1       1.450   9.563  18.687  0.00  0.00    +0.000 A 
ATOM     13  N   UNL     1       1.473   8.643  19.656  0.00  0.00    +0.000 NA
ENDBRANCH   8   9
ENDBRANCH   7   8
ENDBRANCH   1   2
BRANCH   1  17
ATOM     14  C   UNL     1       6.831   4.852  16.193  0.00  0.00    +0.000 A 
ATOM     15  N   UNL     1       7.788   4.376  17.009  0.00  0.00    +0.000 NA
ATOM     16  O   UNL     1       7.248   4.541  18.290  0.00  0.00    +0.000 OA
ATOM     17  C   UNL     1       6.021   5.110  18.117  0.00  0.00    +0.000 A 
ATOM     18  N   UNL     1       5.745   5.379  16.861  0.00  0.00    +0.000 NA
BRANCH  14  24
ATOM     19  C   UNL     1       8.452   6.250  11.659  0.00  0.00    +0.000 C 
ATOM     20  C   UNL     1       7.643   5.327  12.524  0.00  0.00    +0.000 A 
ATOM     21  C   UNL     1       6.967   4.236  11.969  0.00  0.00    +0.000 A 
ATOM     22  C   UNL     1       6.223   3.382  12.782  0.00  0.00    +0.000 A 
ATOM     23  C   UNL     1       6.156   3.608  14.158  0.00  0.00    +0.000 A 
ATOM     24  C   UNL     1       6.829   4.693  14.740  0.00  0.00    +0.000 A 
ATOM     25  C   UNL     1       7.562   5.555  13.909  0.00  0.00    +0.000 A 
ENDBRANCH  14  24
ENDBRANCH   1  17
TORSDOF 5
ENDMDL
MODEL 6
REMARK VINA RESULT:      -8.0      2.279      7.538
REMARK  Name = 
REMARK  6 active torsions:
REMARK  status: ('A' for Active; 'I' for Inactive)
REMARK    1  A    between atoms: C_1  and  C_2
REMARK    2  A    between atoms: C_6  and  C_7
REMARK    3  A    between atoms: C_10  and  C_11
REMARK    4  A    between atoms: C_11  and  N_12
REMARK    5  A    between atoms: C_17  and  C_18
REMARK    6  A    between atoms: C_18  and  N_19
REMARK                            x       y       z     vdW  Elec       q    Type
REMARK                         _______ _______ _______ _____ _____    ______ ____
ROOT
ATOM      1  C   UNL     1       5.218   5.246  19.018  0.00  0.00    +0.000 C 
ENDROOT
BRANCH   1   2
ATOM      2  N   UNL     1       5.566   5.208  17.580  0.00  0.00    +0.000 NA
ATOM      3  C   UNL     1       6.951   4.761  17.367  0.00  0.00    +0.000 C 
ATOM      4  C   UNL     1       7.342   4.773  15.885  0.00  0.00    +0.000 C 
ATOM      5  C   UNL     1       6.346   4.003  15.030  0.00  0.00    +0.000 C 
ATOM      6  C   UNL     1       4.935   4.519  15.298  0.00  0.00    +0.000 C 
ATOM      7  C   UNL     1       4.561   4.426  16.792  0.00  0.00    +0.000 C 
BRANCH   7   8
ATOM      8  C   UNL     1       4.341   2.958  17.253  0.00  0.00    +0.000 C 
BRANCH   8   9
ATOM      9  N   UNL     1       3.045   2.675  17.837  0.00  0.00    +0.000 N 
ATOM     10  C   UNL     1       2.758   1.848  18.878  0.00  0.00    +0.000 A 
ATOM     11  N   UNL     1       1.508   2.000  19.239  0.00  0.00    +0.000 NA
ATOM     12  C   UNL     1       1.062   2.969  18.386  0.00  0.00    +0.000 A 
ATOM     13  N   UNL     1       1.963   3.411  17.505  0.00  0.00    +0.000 NA
ENDBRANCH   8   9
ENDBRANCH   7   8
ENDBRANCH   1   2
BRANCH   1  17
ATOM     14  C   UNL     1       2.206   6.882  19.983  0.00  0.00    +0.000 A 
ATOM     15  N   UNL     1       2.055   5.743  20.682  0.00  0.00    +0.000 NA
ATOM     16  O   UNL     1       3.144   4.958  20.282  0.00  0.00    +0.000 OA
ATOM     17  C   UNL     1       3.837   5.702  19.373  0.00  0.00    +0.000 A 
ATOM     18  N   UNL     1       3.273   6.858  19.108  0.00  0.00    +0.000 NA
BRANCH  14  24
ATOM     19  C   UNL     1      -0.421   9.850  23.054  0.00  0.00    +0.000 C 
ATOM     20  C   UNL     1       0.199   9.589  21.711  0.00  0.00    +0.000 A 
ATOM     21  C   UNL     1       0.153  10.557  20.703  0.00  0.00    +0.000 A 
ATOM     22  C   UNL     1       0.737  10.307  19.462  0.00  0.00    +0.000 A 
ATOM     23  C   UNL     1       1.378   9.091  19.222  0.00  0.00    +0.000 A 
ATOM     24  C   UNL     1       1.442   8.105  20.219  0.00  0.00    +0.000 A 
ATOM     25  C   UNL     1       0.837   8.362  21.459  0.00  0.00    +0.000 A 
ENDBRANCH  14  24
ENDBRANCH   1  17
TORSDOF 5
ENDMDL
MODEL 7
REMARK VINA RESULT:      -8.0      2.676      8.317
REMARK  Name = 
REMARK  6 active torsions:
REMARK  status: ('A' for Active; 'I' for Inactive)
REMARK    1  A    between atoms: C_1  and  C_2
REMARK    2  A    between atoms: C_6  and  C_7
REMARK    3  A    between atoms: C_10  and  C_11
REMARK    4  A    between atoms: C_11  and  N_12
REMARK    5  A    between atoms: C_17  and  C_18
REMARK    6  A    between atoms: C_18  and  N_19
REMARK                            x       y       z     vdW  Elec       q    Type
REMARK                         _______ _______ _______ _____ _____    ______ ____
ROOT
ATOM      1  C   UNL     1       2.714   6.222  17.823  0.00  0.00    +0.000 C 
ENDROOT
BRANCH   1   2
ATOM      2  N   UNL     1       2.801   5.047  18.719  0.00  0.00    +0.000 NA
ATOM      3  C   UNL     1       1.584   4.223  18.656  0.00  0.00    +0.000 C 
ATOM      4  C   UNL     1       1.639   3.035  19.622  0.00  0.00    +0.000 C 
ATOM      5  C   UNL     1       2.906   2.213  19.438  0.00  0.00    +0.000 C 
ATOM      6  C   UNL     1       4.125   3.127  19.517  0.00  0.00    +0.000 C 
ATOM      7  C   UNL     1       4.059   4.269  18.482  0.00  0.00    +0.000 C 
BRANCH   7   8
ATOM      8  C   UNL     1       4.270   3.759  17.030  0.00  0.00    +0.000 C 
BRANCH   8   9
ATOM      9  N   UNL     1       5.453   4.262  16.358  0.00  0.00    +0.000 N 
ATOM     10  C   UNL     1       6.652   4.591  16.909  0.00  0.00    +0.000 A 
ATOM     11  N   UNL     1       7.530   4.822  15.965  0.00  0.00    +0.000 NA
ATOM     12  C   UNL     1       6.814   4.597  14.824  0.00  0.00    +0.000 A 
ATOM     13  N   UNL     1       5.536   4.257  15.011  0.00  0.00    +0.000 NA
ENDBRANCH   8   9
ENDBRANCH   7   8
ENDBRANCH   1   2
BRANCH   1  17
ATOM     14  C   UNL     1       1.475   9.019  19.645  0.00  0.00    +0.000 A 
ATOM     15  N   UNL     1       1.496   9.567  18.418  0.00  0.00    +0.000 NA
ATOM     16  O   UNL     1       2.086   8.578  17.621  0.00  0.00    +0.000 OA
ATOM     17  C   UNL     1       2.371   7.536  18.453  0.00  0.00    +0.000 A 
ATOM     18  N   UNL     1       2.076   7.779  19.710  0.00  0.00    +0.000 NA
BRANCH  14  24
ATOM     19  C   UNL     1      -0.681  12.912  21.957  0.00  0.00    +0.000 C 
ATOM     20  C   UNL     1      -0.348  11.448  21.909  0.00  0.00    +0.000 A 
ATOM     21  C   UNL     1      -0.820  10.575  22.894  0.00  0.00    +0.000 A 
ATOM     22  C   UNL     1      -0.511   9.217  22.836  0.00  0.00    +0.000 A 
ATOM     23  C   UNL     1       0.268   8.721  21.790  0.00  0.00    +0.000 A 
ATOM     24  C   UNL     1       0.751   9.575  20.786  0.00  0.00    +0.000 A 
ATOM     25  C   UNL     1       0.445  10.943  20.863  0.00  0.00    +0.000 A 
ENDBRANCH  14  24
ENDBRANCH   1  17
TORSDOF 5
ENDMDL
MODEL 8
REMARK VINA RESULT:      -7.9      2.307      7.862
REMARK  Name = 
REMARK  6 active torsions:
REMARK  status: ('A' for Active; 'I' for Inactive)
REMARK    1  A    between atoms: C_1  and  C_2
REMARK    2  A    between atoms: C_6  and  C_7
REMARK    3  A    between atoms: C_10  and  C_11
REMARK    4  A    between atoms: C_11  and  N_12
REMARK    5  A    between atoms: C_17  and  C_18
REMARK    6  A    between atoms: C_18  and  N_19
REMARK                            x       y       z     vdW  Elec       q    Type
REMARK                         _______ _______ _______ _____ _____    ______ ____
ROOT
ATOM      1  C   UNL     1       3.566   6.076  17.703  0.00  0.00    +0.000 C 
ENDROOT
BRANCH   1   2
ATOM      2  N   UNL     1       3.046   4.912  18.455  0.00  0.00    +0.000 NA
ATOM      3  C   UNL     1       1.721   4.499  17.971  0.00  0.00    +0.000 C 
ATOM      4  C   UNL     1       1.147   3.331  18.780  0.00  0.00    +0.000 C 
ATOM      5  C   UNL     1       2.122   2.166  18.863  0.00  0.00    +0.000 C 
ATOM      6  C   UNL     1       3.471   2.663  19.372  0.00  0.00    +0.000 C 
ATOM      7  C   UNL     1       4.042   3.793  18.490  0.00  0.00    +0.000 C 
BRANCH   7   8
ATOM      8  C   UNL     1       4.517   3.273  17.105  0.00  0.00    +0.000 C 
BRANCH   8   9
ATOM      9  N   UNL     1       5.627   3.996  16.515  0.00  0.00    +0.000 N 
ATOM     10  C   UNL     1       6.789   4.377  17.110  0.00  0.00    +0.000 A 
ATOM     11  N   UNL     1       7.623   4.837  16.211  0.00  0.00    +0.000 NA
ATOM     12  C   UNL     1       6.922   4.696  15.047  0.00  0.00    +0.000 A 
ATOM     13  N   UNL     1       5.692   4.191  15.181  0.00  0.00    +0.000 NA
ENDBRANCH   8   9
ENDBRANCH   7   8
ENDBRANCH   1   2
BRANCH   1  17
ATOM     14  C   UNL     1       1.760   8.941  18.803  0.00  0.00    +0.000 A 
ATOM     15  N   UNL     1       1.981   9.313  17.530  0.00  0.00    +0.000 NA
ATOM     16  O   UNL     1       2.799   8.297  17.022  0.00  0.00    +0.000 OA
ATOM     17  C   UNL     1       2.997   7.418  18.045  0.00  0.00    +0.000 A 
ATOM     18  N   UNL     1       2.437   7.797  19.172  0.00  0.00    +0.000 NA
BRANCH  14  24
ATOM     19  C   UNL     1      -0.207   9.561  23.374  0.00  0.00    +0.000 C 
ATOM     20  C   UNL     1      -0.165   9.917  21.915  0.00  0.00    +0.000 A 
ATOM     21  C   UNL     1      -0.984  10.929  21.403  0.00  0.00    +0.000 A 
ATOM     22  C   UNL     1      -0.933  11.256  20.049  0.00  0.00    +0.000 A 
ATOM     23  C   UNL     1      -0.058  10.580  19.198  0.00  0.00    +0.000 A 
ATOM     24  C   UNL     1       0.778   9.564  19.688  0.00  0.00    +0.000 A 
ATOM     25  C   UNL     1       0.707   9.233  21.050  0.00  0.00    +0.000 A 
ENDBRANCH  14  24
ENDBRANCH   1  17
TORSDOF 5
ENDMDL
MODEL 9
REMARK VINA RESULT:      -7.7      2.522      8.148
REMARK  Name = 
REMARK  6 active torsions:
REMARK  status: ('A' for Active; 'I' for Inactive)
REMARK    1  A    between atoms: C_1  and  C_2
REMARK    2  A    between atoms: C_6  and  C_7
REMARK    3  A    between atoms: C_10  and  C_11
REMARK    4  A    between atoms: C_11  and  N_12
REMARK    5  A    between atoms: C_17  and  C_18
REMARK    6  A    between atoms: C_18  and  N_19
REMARK                            x       y       z     vdW  Elec       q    Type
REMARK                         _______ _______ _______ _____ _____    ______ ____
ROOT
ATOM      1  C   UNL     1       3.203   6.171  18.409  0.00  0.00    +0.000 C 
ENDROOT
BRANCH   1   2
ATOM      2  N   UNL     1       4.233   5.842  17.399  0.00  0.00    +0.000 NA
ATOM      3  C   UNL     1       5.579   6.233  17.847  0.00  0.00    +0.000 C 
ATOM      4  C   UNL     1       6.647   5.950  16.786  0.00  0.00    +0.000 C 
ATOM      5  C   UNL     1       6.595   4.510  16.298  0.00  0.00    +0.000 C 
ATOM      6  C   UNL     1       5.176   4.174  15.847  0.00  0.00    +0.000 C 
ATOM      7  C   UNL     1       4.143   4.411  16.968  0.00  0.00    +0.000 C 
BRANCH   7   8
ATOM      8  C   UNL     1       4.259   3.358  18.106  0.00  0.00    +0.000 C 
BRANCH   8   9
ATOM      9  N   UNL     1       3.000   2.861  18.625  0.00  0.00    +0.000 N 
ATOM     10  C   UNL     1       2.646   2.673  19.925  0.00  0.00    +0.000 A 
ATOM     11  N   UNL     1       1.369   2.395  20.006  0.00  0.00    +0.000 NA
ATOM     12  C   UNL     1       0.965   2.445  18.702  0.00  0.00    +0.000 A 
ATOM     13  N   UNL     1       1.927   2.721  17.818  0.00  0.00    +0.000 NA
ENDBRANCH   8   9
ENDBRANCH   7   8
ENDBRANCH   1   2
BRANCH   1  17
ATOM     14  C   UNL     1       1.439   9.255  18.641  0.00  0.00    +0.000 A 
ATOM     15  N   UNL     1       2.003   9.432  17.433  0.00  0.00    +0.000 NA
ATOM     16  O   UNL     1       2.829   8.311  17.284  0.00  0.00    +0.000 OA
ATOM     17  C   UNL     1       2.687   7.576  18.424  0.00  0.00    +0.000 A 
ATOM     18  N   UNL     1       1.898   8.140  19.310  0.00  0.00    +0.000 NA
BRANCH  14  24
ATOM     19  C   UNL     1      -0.686  11.881  22.347  0.00  0.00    +0.000 C 
ATOM     20  C   UNL     1      -0.707  11.373  20.933  0.00  0.00    +0.000 A 
ATOM     21  C   UNL     1      -1.731  11.743  20.056  0.00  0.00    +0.000 A 
ATOM     22  C   UNL     1      -1.738  11.272  18.744  0.00  0.00    +0.000 A 
ATOM     23  C   UNL     1      -0.716  10.432  18.298  0.00  0.00    +0.000 A 
ATOM     24  C   UNL     1       0.326  10.049  19.157  0.00  0.00    +0.000 A 
ATOM     25  C   UNL     1       0.313  10.519  20.480  0.00  0.00    +0.000 A 
ENDBRANCH  14  24
ENDBRANCH   1  17
TORSDOF 5
ENDMDL
