MODEL 1
REMARK VINA RESULT:      -6.5      0.000      0.000
REMARK  Name = 
REMARK  17 active torsions:
REMARK  status: ('A' for Active; 'I' for Inactive)
REMARK    1  A    between atoms: C_1  and  C_2
REMARK    2  A    between atoms: C_2  and  O_3
REMARK    3  A    between atoms: O_3  and  C_4
REMARK    4  A    between atoms: C_4  and  C_6
REMARK    5  A    between atoms: C_6  and  C_7
REMARK    6  A    between atoms: C_6  and  C_21
REMARK    7  A    between atoms: C_7  and  C_8
REMARK    8  A    between atoms: C_8  and  C_9
REMARK    9  A    between atoms: C_9  and  O_10
REMARK   10  A    between atoms: O_10  and  C_11
REMARK   11  A    between atoms: C_14  and  C_15
REMARK   12  A    between atoms: C_15  and  C_16
REMARK   13  A    between atoms: C_15  and  C_17
REMARK   14  A    between atoms: C_17  and  C_18
REMARK   15  A    between atoms: C_21  and  O_23
REMARK   16  A    between atoms: O_23  and  C_24
REMARK   17  A    between atoms: C_24  and  C_25
REMARK                            x       y       z     vdW  Elec       q    Type
REMARK                         _______ _______ _______ _____ _____    ______ ____
ROOT
ATOM      1  C   UNL     1       5.157   6.563  17.781  0.00  0.00    +0.000 C 
ENDROOT
BRANCH   1   2
ATOM      2  C   UNL     1       4.353   5.268  17.890  0.00  0.00    +0.000 C 
BRANCH   2   3
ATOM      3  C   UNL     1       2.829   5.488  17.950  0.00  0.00    +0.000 C 
BRANCH   3   4
ATOM      4  C   UNL     1       2.363   5.714  19.375  0.00  0.00    +0.000 C 
ATOM      5  O   UNL     1       2.441   6.779  19.973  0.00  0.00    +0.000 OA
BRANCH   4   6
ATOM      6  O   UNL     1       1.905   4.546  19.907  0.00  0.00    +0.000 OA
BRANCH   6   8
ATOM      7  C   UNL     1       1.942   2.925  21.720  0.00  0.00    +0.000 C 
ATOM      8  C   UNL     1       2.100   4.377  21.319  0.00  0.00    +0.000 C 
ENDBRANCH   6   8
ENDBRANCH   4   6
ENDBRANCH   3   4
BRANCH   3   9
ATOM      9  C   UNL     1       2.130   4.264  17.402  0.00  0.00    +0.000 C 
ATOM     10  O   UNL     1       0.924   4.167  17.217  0.00  0.00    +0.000 OA
BRANCH   9  11
ATOM     11  O   UNL     1       3.024   3.257  17.187  0.00  0.00    +0.000 OA
BRANCH  11  12
ATOM     12  C   UNL     1       2.645   1.979  17.718  0.00  0.00    +0.000 C 
ATOM     13  C   UNL     1       3.715   1.533  18.701  0.00  0.00    +0.000 C 
ENDBRANCH  11  12
ENDBRANCH   9  11
ENDBRANCH   3   9
ENDBRANCH   2   3
ENDBRANCH   1   2
BRANCH   1  14
ATOM     14  C   UNL     1       5.706   6.735  16.361  0.00  0.00    +0.000 C 
BRANCH  14  15
ATOM     15  O   UNL     1       6.675   5.734  16.047  0.00  0.00    +0.000 OA
BRANCH  15  16
ATOM     16  C   UNL     1       6.484   5.031  14.889  0.00  0.00    +0.000 A 
ATOM     17  C   UNL     1       5.283   4.328  14.804  0.00  0.00    +0.000 A 
ATOM     18  C   UNL     1       4.955   3.610  13.650  0.00  0.00    +0.000 A 
ATOM     19  C   UNL     1       5.822   3.600  12.549  0.00  0.00    +0.000 A 
ATOM     20  C   UNL     1       7.030   4.302  12.645  0.00  0.00    +0.000 A 
ATOM     21  C   UNL     1       7.361   5.002  13.805  0.00  0.00    +0.000 A 
BRANCH  19  22
ATOM     22  C   UNL     1       5.451   2.862  11.275  0.00  0.00    +0.000 C 
ATOM     23  C   UNL     1       6.054   1.450  11.299  0.00  0.00    +0.000 C 
BRANCH  22  24
ATOM     24  C   UNL     1       3.929   2.786  11.046  0.00  0.00    +0.000 C 
ATOM     25  C   UNL     1       3.398   3.903  10.155  0.00  0.00    +0.000 C 
ENDBRANCH  22  24
ENDBRANCH  19  22
ENDBRANCH  15  16
ENDBRANCH  14  15
ENDBRANCH   1  14
TORSDOF 13
ENDMDL
MODEL 2
REMARK VINA RESULT:      -6.4      1.398      2.427
REMARK  Name = 
REMARK  17 active torsions:
REMARK  status: ('A' for Active; 'I' for Inactive)
REMARK    1  A    between atoms: C_1  and  C_2
REMARK    2  A    between atoms: C_2  and  O_3
REMARK    3  A    between atoms: O_3  and  C_4
REMARK    4  A    between atoms: C_4  and  C_6
REMARK    5  A    between atoms: C_6  and  C_7
REMARK    6  A    between atoms: C_6  and  C_21
REMARK    7  A    between atoms: C_7  and  C_8
REMARK    8  A    between atoms: C_8  and  C_9
REMARK    9  A    between atoms: C_9  and  O_10
REMARK   10  A    between atoms: O_10  and  C_11
REMARK   11  A    between atoms: C_14  and  C_15
REMARK   12  A    between atoms: C_15  and  C_16
REMARK   13  A    between atoms: C_15  and  C_17
REMARK   14  A    between atoms: C_17  and  C_18
REMARK   15  A    between atoms: C_21  and  O_23
REMARK   16  A    between atoms: O_23  and  C_24
REMARK   17  A    between atoms: C_24  and  C_25
REMARK                            x       y       z     vdW  Elec       q    Type
REMARK                         _______ _______ _______ _____ _____    ______ ____
ROOT
ATOM      1  C   UNL     1       5.999   4.674  18.353  0.00  0.00    +0.000 C 
ENDROOT
BRANCH   1   2
ATOM      2  C   UNL     1       4.718   4.849  19.168  0.00  0.00    +0.000 C 
BRANCH   2   3
ATOM      3  C   UNL     1       3.525   5.368  18.344  0.00  0.00    +0.000 C 
BRANCH   3   4
ATOM      4  C   UNL     1       2.854   6.542  19.030  0.00  0.00    +0.000 C 
ATOM      5  O   UNL     1       2.257   6.477  20.096  0.00  0.00    +0.000 OA
BRANCH   4   6
ATOM      6  O   UNL     1       2.961   7.658  18.257  0.00  0.00    +0.000 OA
BRANCH   6   8
ATOM      7  C   UNL     1       2.163   9.896  17.734  0.00  0.00    +0.000 C 
ATOM      8  C   UNL     1       1.801   8.502  18.203  0.00  0.00    +0.000 C 
ENDBRANCH   6   8
ENDBRANCH   4   6
ENDBRANCH   3   4
BRANCH   3   9
ATOM      9  C   UNL     1       2.511   4.257  18.185  0.00  0.00    +0.000 C 
ATOM     10  O   UNL     1       1.710   4.162  17.265  0.00  0.00    +0.000 OA
BRANCH   9  11
ATOM     11  O   UNL     1       2.575   3.395  19.241  0.00  0.00    +0.000 OA
BRANCH  11  12
ATOM     12  C   UNL     1       2.385   2.011  18.912  0.00  0.00    +0.000 C 
ATOM     13  C   UNL     1       3.577   1.547  18.091  0.00  0.00    +0.000 C 
ENDBRANCH  11  12
ENDBRANCH   9  11
ENDBRANCH   3   9
ENDBRANCH   2   3
ENDBRANCH   1   2
BRANCH   1  14
ATOM     14  C   UNL     1       6.178   5.844  17.379  0.00  0.00    +0.000 C 
BRANCH  14  15
ATOM     15  O   UNL     1       7.104   5.527  16.339  0.00  0.00    +0.000 OA
BRANCH  15  16
ATOM     16  C   UNL     1       6.589   4.978  15.198  0.00  0.00    +0.000 A 
ATOM     17  C   UNL     1       7.463   4.918  14.112  0.00  0.00    +0.000 A 
ATOM     18  C   UNL     1       7.064   4.336  12.905  0.00  0.00    +0.000 A 
ATOM     19  C   UNL     1       5.783   3.785  12.771  0.00  0.00    +0.000 A 
ATOM     20  C   UNL     1       4.909   3.856  13.862  0.00  0.00    +0.000 A 
ATOM     21  C   UNL     1       5.304   4.454  15.058  0.00  0.00    +0.000 A 
BRANCH  19  22
ATOM     22  C   UNL     1       5.360   3.109  11.479  0.00  0.00    +0.000 C 
ATOM     23  C   UNL     1       5.918   1.679  11.436  0.00  0.00    +0.000 C 
BRANCH  22  24
ATOM     24  C   UNL     1       3.831   3.088  11.284  0.00  0.00    +0.000 C 
ATOM     25  C   UNL     1       3.366   3.906  10.085  0.00  0.00    +0.000 C 
ENDBRANCH  22  24
ENDBRANCH  19  22
ENDBRANCH  15  16
ENDBRANCH  14  15
ENDBRANCH   1  14
TORSDOF 13
ENDMDL
MODEL 3
REMARK VINA RESULT:      -6.4      1.011      2.345
REMARK  Name = 
REMARK  17 active torsions:
REMARK  status: ('A' for Active; 'I' for Inactive)
REMARK    1  A    between atoms: C_1  and  C_2
REMARK    2  A    between atoms: C_2  and  O_3
REMARK    3  A    between atoms: O_3  and  C_4
REMARK    4  A    between atoms: C_4  and  C_6
REMARK    5  A    between atoms: C_6  and  C_7
REMARK    6  A    between atoms: C_6  and  C_21
REMARK    7  A    between atoms: C_7  and  C_8
REMARK    8  A    between atoms: C_8  and  C_9
REMARK    9  A    between atoms: C_9  and  O_10
REMARK   10  A    between atoms: O_10  and  C_11
REMARK   11  A    between atoms: C_14  and  C_15
REMARK   12  A    between atoms: C_15  and  C_16
REMARK   13  A    between atoms: C_15  and  C_17
REMARK   14  A    between atoms: C_17  and  C_18
REMARK   15  A    between atoms: C_21  and  O_23
REMARK   16  A    between atoms: O_23  and  C_24
REMARK   17  A    between atoms: C_24  and  C_25
REMARK                            x       y       z     vdW  Elec       q    Type
REMARK                         _______ _______ _______ _____ _____    ______ ____
ROOT
ATOM      1  C   UNL     1       6.025   6.615  17.300  0.00  0.00    +0.000 C 
ENDROOT
BRANCH   1   2
ATOM      2  C   UNL     1       4.544   6.251  17.195  0.00  0.00    +0.000 C 
BRANCH   2   3
ATOM      3  C   UNL     1       3.982   5.573  18.459  0.00  0.00    +0.000 C 
BRANCH   3   4
ATOM      4  C   UNL     1       3.924   4.067  18.294  0.00  0.00    +0.000 C 
ATOM      5  O   UNL     1       4.802   3.292  18.652  0.00  0.00    +0.000 OA
BRANCH   4   6
ATOM      6  O   UNL     1       2.784   3.713  17.637  0.00  0.00    +0.000 OA
BRANCH   6   8
ATOM      7  C   UNL     1       1.115   2.153  18.471  0.00  0.00    +0.000 C 
ATOM      8  C   UNL     1       2.416   2.328  17.716  0.00  0.00    +0.000 C 
ENDBRANCH   6   8
ENDBRANCH   4   6
ENDBRANCH   3   4
BRANCH   3   9
ATOM      9  C   UNL     1       2.582   6.084  18.714  0.00  0.00    +0.000 C 
ATOM     10  O   UNL     1       2.145   7.160  18.328  0.00  0.00    +0.000 OA
BRANCH   9  11
ATOM     11  O   UNL     1       1.881   5.202  19.483  0.00  0.00    +0.000 OA
BRANCH  11  12
ATOM     12  C   UNL     1       2.056   5.351  20.900  0.00  0.00    +0.000 C 
ATOM     13  C   UNL     1       2.302   3.976  21.498  0.00  0.00    +0.000 C 
ENDBRANCH  11  12
ENDBRANCH   9  11
ENDBRANCH   3   9
ENDBRANCH   2   3
ENDBRANCH   1   2
BRANCH   1  14
ATOM     14  C   UNL     1       6.899   5.435  16.861  0.00  0.00    +0.000 C 
BRANCH  14  15
ATOM     15  O   UNL     1       7.563   5.703  15.626  0.00  0.00    +0.000 OA
BRANCH  15  16
ATOM     16  C   UNL     1       7.114   5.030  14.523  0.00  0.00    +0.000 A 
ATOM     17  C   UNL     1       6.009   4.204  14.732  0.00  0.00    +0.000 A 
ATOM     18  C   UNL     1       5.432   3.502  13.670  0.00  0.00    +0.000 A 
ATOM     19  C   UNL     1       5.943   3.628  12.372  0.00  0.00    +0.000 A 
ATOM     20  C   UNL     1       7.058   4.453  12.172  0.00  0.00    +0.000 A 
ATOM     21  C   UNL     1       7.642   5.138  13.237  0.00  0.00    +0.000 A 
BRANCH  19  22
ATOM     22  C   UNL     1       5.292   2.906  11.206  0.00  0.00    +0.000 C 
ATOM     23  C   UNL     1       5.613   1.406  11.280  0.00  0.00    +0.000 C 
BRANCH  22  24
ATOM     24  C   UNL     1       3.767   3.120  11.143  0.00  0.00    +0.000 C 
ATOM     25  C   UNL     1       3.286   3.632   9.791  0.00  0.00    +0.000 C 
ENDBRANCH  22  24
ENDBRANCH  19  22
ENDBRANCH  15  16
ENDBRANCH  14  15
ENDBRANCH   1  14
TORSDOF 13
ENDMDL
MODEL 4
REMARK VINA RESULT:      -6.3      2.515      7.946
REMARK  Name = 
REMARK  17 active torsions:
REMARK  status: ('A' for Active; 'I' for Inactive)
REMARK    1  A    between atoms: C_1  and  C_2
REMARK    2  A    between atoms: C_2  and  O_3
REMARK    3  A    between atoms: O_3  and  C_4
REMARK    4  A    between atoms: C_4  and  C_6
REMARK    5  A    between atoms: C_6  and  C_7
REMARK    6  A    between atoms: C_6  and  C_21
REMARK    7  A    between atoms: C_7  and  C_8
REMARK    8  A    between atoms: C_8  and  C_9
REMARK    9  A    between atoms: C_9  and  O_10
REMARK   10  A    between atoms: O_10  and  C_11
REMARK   11  A    between atoms: C_14  and  C_15
REMARK   12  A    between atoms: C_15  and  C_16
REMARK   13  A    between atoms: C_15  and  C_17
REMARK   14  A    between atoms: C_17  and  C_18
REMARK   15  A    between atoms: C_21  and  O_23
REMARK   16  A    between atoms: O_23  and  C_24
REMARK   17  A    between atoms: C_24  and  C_25
REMARK                            x       y       z     vdW  Elec       q    Type
REMARK                         _______ _______ _______ _____ _____    ______ ____
ROOT
ATOM      1  C   UNL     1       3.418   3.673  16.637  0.00  0.00    +0.000 C 
ENDROOT
BRANCH   1   2
ATOM      2  C   UNL     1       4.908   3.653  16.295  0.00  0.00    +0.000 C 
BRANCH   2   3
ATOM      3  C   UNL     1       5.405   4.943  15.615  0.00  0.00    +0.000 C 
BRANCH   3   4
ATOM      4  C   UNL     1       6.395   4.634  14.509  0.00  0.00    +0.000 C 
ATOM      5  O   UNL     1       7.321   5.363  14.179  0.00  0.00    +0.000 OA
BRANCH   4   6
ATOM      6  O   UNL     1       6.065   3.460  13.902  0.00  0.00    +0.000 OA
BRANCH   6   8
ATOM      7  C   UNL     1       4.762   3.429  11.848  0.00  0.00    +0.000 C 
ATOM      8  C   UNL     1       6.144   3.448  12.469  0.00  0.00    +0.000 C 
ENDBRANCH   6   8
ENDBRANCH   4   6
ENDBRANCH   3   4
BRANCH   3   9
ATOM      9  C   UNL     1       6.088   5.814  16.645  0.00  0.00    +0.000 C 
ATOM     10  O   UNL     1       6.360   6.999  16.497  0.00  0.00    +0.000 OA
BRANCH   9  11
ATOM     11  O   UNL     1       6.409   5.085  17.753  0.00  0.00    +0.000 OA
BRANCH  11  12
ATOM     12  C   UNL     1       7.789   5.145  18.144  0.00  0.00    +0.000 C 
ATOM     13  C   UNL     1       7.874   5.849  19.489  0.00  0.00    +0.000 C 
ENDBRANCH  11  12
ENDBRANCH   9  11
ENDBRANCH   3   9
ENDBRANCH   2   3
ENDBRANCH   1   2
BRANCH   1  14
ATOM     14  C   UNL     1       3.199   3.267  18.098  0.00  0.00    +0.000 C 
BRANCH  14  15
ATOM     15  O   UNL     1       3.810   4.191  18.999  0.00  0.00    +0.000 OA
BRANCH  15  16
ATOM     16  C   UNL     1       3.075   5.290  19.350  0.00  0.00    +0.000 A 
ATOM     17  C   UNL     1       2.265   5.137  20.476  0.00  0.00    +0.000 A 
ATOM     18  C   UNL     1       1.503   6.204  20.959  0.00  0.00    +0.000 A 
ATOM     19  C   UNL     1       1.554   7.456  20.330  0.00  0.00    +0.000 A 
ATOM     20  C   UNL     1       2.364   7.600  19.197  0.00  0.00    +0.000 A 
ATOM     21  C   UNL     1       3.108   6.527  18.707  0.00  0.00    +0.000 A 
BRANCH  19  22
ATOM     22  C   UNL     1       0.767   8.633  20.877  0.00  0.00    +0.000 C 
ATOM     23  C   UNL     1       1.360   9.072  22.225  0.00  0.00    +0.000 C 
BRANCH  22  24
ATOM     24  C   UNL     1       0.718   9.828  19.904  0.00  0.00    +0.000 C 
ATOM     25  C   UNL     1      -0.476  10.744  20.137  0.00  0.00    +0.000 C 
ENDBRANCH  22  24
ENDBRANCH  19  22
ENDBRANCH  15  16
ENDBRANCH  14  15
ENDBRANCH   1  14
TORSDOF 13
ENDMDL
MODEL 5
REMARK VINA RESULT:      -6.3      3.297      8.064
REMARK  Name = 
REMARK  17 active torsions:
REMARK  status: ('A' for Active; 'I' for Inactive)
REMARK    1  A    between atoms: C_1  and  C_2
REMARK    2  A    between atoms: C_2  and  O_3
REMARK    3  A    between atoms: O_3  and  C_4
REMARK    4  A    between atoms: C_4  and  C_6
REMARK    5  A    between atoms: C_6  and  C_7
REMARK    6  A    between atoms: C_6  and  C_21
REMARK    7  A    between atoms: C_7  and  C_8
REMARK    8  A    between atoms: C_8  and  C_9
REMARK    9  A    between atoms: C_9  and  O_10
REMARK   10  A    between atoms: O_10  and  C_11
REMARK   11  A    between atoms: C_14  and  C_15
REMARK   12  A    between atoms: C_15  and  C_16
REMARK   13  A    between atoms: C_15  and  C_17
REMARK   14  A    between atoms: C_17  and  C_18
REMARK   15  A    between atoms: C_21  and  O_23
REMARK   16  A    between atoms: O_23  and  C_24
REMARK   17  A    between atoms: C_24  and  C_25
REMARK                            x       y       z     vdW  Elec       q    Type
REMARK                         _______ _______ _______ _____ _____    ______ ____
ROOT
ATOM      1  C   UNL     1       4.098   4.282  17.583  0.00  0.00    +0.000 C 
ENDROOT
BRANCH   1   2
ATOM      2  C   UNL     1       4.637   4.260  16.153  0.00  0.00    +0.000 C 
BRANCH   2   3
ATOM      3  C   UNL     1       6.158   4.028  16.068  0.00  0.00    +0.000 C 
BRANCH   3   4
ATOM      4  C   UNL     1       6.910   4.980  16.977  0.00  0.00    +0.000 C 
ATOM      5  O   UNL     1       7.549   4.642  17.964  0.00  0.00    +0.000 OA
BRANCH   4   6
ATOM      6  O   UNL     1       6.716   6.265  16.568  0.00  0.00    +0.000 OA
BRANCH   6   8
ATOM      7  C   UNL     1       7.826   8.167  17.602  0.00  0.00    +0.000 C 
ATOM      8  C   UNL     1       6.620   7.249  17.609  0.00  0.00    +0.000 C 
ENDBRANCH   6   8
ENDBRANCH   4   6
ENDBRANCH   3   4
BRANCH   3   9
ATOM      9  C   UNL     1       6.615   4.258  14.644  0.00  0.00    +0.000 C 
ATOM     10  O   UNL     1       7.723   4.663  14.318  0.00  0.00    +0.000 OA
BRANCH   9  11
ATOM     11  O   UNL     1       5.602   3.999  13.767  0.00  0.00    +0.000 OA
BRANCH  11  12
ATOM     12  C   UNL     1       6.017   3.531  12.476  0.00  0.00    +0.000 C 
ATOM     13  C   UNL     1       4.774   3.184  11.672  0.00  0.00    +0.000 C 
ENDBRANCH  11  12
ENDBRANCH   9  11
ENDBRANCH   3   9
ENDBRANCH   2   3
ENDBRANCH   1   2
BRANCH   1  14
ATOM     14  C   UNL     1       3.123   5.449  17.769  0.00  0.00    +0.000 C 
BRANCH  14  15
ATOM     15  O   UNL     1       3.358   6.140  18.997  0.00  0.00    +0.000 OA
BRANCH  15  16
ATOM     16  C   UNL     1       2.567   7.225  19.257  0.00  0.00    +0.000 A 
ATOM     17  C   UNL     1       2.424   8.130  18.205  0.00  0.00    +0.000 A 
ATOM     18  C   UNL     1       1.603   9.254  18.336  0.00  0.00    +0.000 A 
ATOM     19  C   UNL     1       0.894   9.482  19.522  0.00  0.00    +0.000 A 
ATOM     20  C   UNL     1       1.049   8.573  20.576  0.00  0.00    +0.000 A 
ATOM     21  C   UNL     1       1.883   7.463  20.449  0.00  0.00    +0.000 A 
BRANCH  19  22
ATOM     22  C   UNL     1      -0.037  10.674  19.654  0.00  0.00    +0.000 C 
ATOM     23  C   UNL     1      -0.340  10.933  21.137  0.00  0.00    +0.000 C 
BRANCH  22  24
ATOM     24  C   UNL     1       0.524  11.950  18.996  0.00  0.00    +0.000 C 
ATOM     25  C   UNL     1      -0.544  12.789  18.304  0.00  0.00    +0.000 C 
ENDBRANCH  22  24
ENDBRANCH  19  22
ENDBRANCH  15  16
ENDBRANCH  14  15
ENDBRANCH   1  14
TORSDOF 13
ENDMDL
MODEL 6
REMARK VINA RESULT:      -6.1      3.915      7.799
REMARK  Name = 
REMARK  17 active torsions:
REMARK  status: ('A' for Active; 'I' for Inactive)
REMARK    1  A    between atoms: C_1  and  C_2
REMARK    2  A    between atoms: C_2  and  O_3
REMARK    3  A    between atoms: O_3  and  C_4
REMARK    4  A    between atoms: C_4  and  C_6
REMARK    5  A    between atoms: C_6  and  C_7
REMARK    6  A    between atoms: C_6  and  C_21
REMARK    7  A    between atoms: C_7  and  C_8
REMARK    8  A    between atoms: C_8  and  C_9
REMARK    9  A    between atoms: C_9  and  O_10
REMARK   10  A    between atoms: O_10  and  C_11
REMARK   11  A    between atoms: C_14  and  C_15
REMARK   12  A    between atoms: C_15  and  C_16
REMARK   13  A    between atoms: C_15  and  C_17
REMARK   14  A    between atoms: C_17  and  C_18
REMARK   15  A    between atoms: C_21  and  O_23
REMARK   16  A    between atoms: O_23  and  C_24
REMARK   17  A    between atoms: C_24  and  C_25
REMARK                            x       y       z     vdW  Elec       q    Type
REMARK                         _______ _______ _______ _____ _____    ______ ____
ROOT
ATOM      1  C   UNL     1       3.647   5.851  17.247  0.00  0.00    +0.000 C 
ENDROOT
BRANCH   1   2
ATOM      2  C   UNL     1       3.468   4.872  18.407  0.00  0.00    +0.000 C 
BRANCH   2   3
ATOM      3  C   UNL     1       4.646   3.893  18.578  0.00  0.00    +0.000 C 
BRANCH   3   4
ATOM      4  C   UNL     1       4.344   2.851  19.637  0.00  0.00    +0.000 C 
ATOM      5  O   UNL     1       5.126   1.986  20.006  0.00  0.00    +0.000 OA
BRANCH   4   6
ATOM      6  O   UNL     1       3.058   2.984  20.069  0.00  0.00    +0.000 OA
BRANCH   6   8
ATOM      7  C   UNL     1       1.324   2.655  21.742  0.00  0.00    +0.000 C 
ATOM      8  C   UNL     1       2.803   2.577  21.421  0.00  0.00    +0.000 C 
ENDBRANCH   6   8
ENDBRANCH   4   6
ENDBRANCH   3   4
BRANCH   3   9
ATOM      9  C   UNL     1       5.876   4.666  18.999  0.00  0.00    +0.000 C 
ATOM     10  O   UNL     1       5.897   5.544  19.852  0.00  0.00    +0.000 OA
BRANCH   9  11
ATOM     11  O   UNL     1       6.957   4.288  18.258  0.00  0.00    +0.000 OA
BRANCH  11  12
ATOM     12  C   UNL     1       6.980   4.785  16.912  0.00  0.00    +0.000 C 
ATOM     13  C   UNL     1       7.254   6.279  16.959  0.00  0.00    +0.000 C 
ENDBRANCH  11  12
ENDBRANCH   9  11
ENDBRANCH   3   9
ENDBRANCH   2   3
ENDBRANCH   1   2
BRANCH   1  14
ATOM     14  C   UNL     1       3.555   7.296  17.747  0.00  0.00    +0.000 C 
BRANCH  14  15
ATOM     15  O   UNL     1       2.936   7.370  19.032  0.00  0.00    +0.000 OA
BRANCH  15  16
ATOM     16  C   UNL     1       1.944   8.299  19.188  0.00  0.00    +0.000 A 
ATOM     17  C   UNL     1       1.528   8.936  18.018  0.00  0.00    +0.000 A 
ATOM     18  C   UNL     1       0.489   9.871  18.045  0.00  0.00    +0.000 A 
ATOM     19  C   UNL     1      -0.167  10.171  19.246  0.00  0.00    +0.000 A 
ATOM     20  C   UNL     1       0.261   9.533  20.416  0.00  0.00    +0.000 A 
ATOM     21  C   UNL     1       1.310   8.615  20.389  0.00  0.00    +0.000 A 
BRANCH  19  22
ATOM     22  C   UNL     1      -1.328  11.149  19.273  0.00  0.00    +0.000 C 
ATOM     23  C   UNL     1      -1.386  11.846  20.640  0.00  0.00    +0.000 C 
BRANCH  22  24
ATOM     24  C   UNL     1      -1.258  12.197  18.145  0.00  0.00    +0.000 C 
ATOM     25  C   UNL     1      -0.402  13.407  18.499  0.00  0.00    +0.000 C 
ENDBRANCH  22  24
ENDBRANCH  19  22
ENDBRANCH  15  16
ENDBRANCH  14  15
ENDBRANCH   1  14
TORSDOF 13
ENDMDL
MODEL 7
REMARK VINA RESULT:      -6.1      3.989      8.612
REMARK  Name = 
REMARK  17 active torsions:
REMARK  status: ('A' for Active; 'I' for Inactive)
REMARK    1  A    between atoms: C_1  and  C_2
REMARK    2  A    between atoms: C_2  and  O_3
REMARK    3  A    between atoms: O_3  and  C_4
REMARK    4  A    between atoms: C_4  and  C_6
REMARK    5  A    between atoms: C_6  and  C_7
REMARK    6  A    between atoms: C_6  and  C_21
REMARK    7  A    between atoms: C_7  and  C_8
REMARK    8  A    between atoms: C_8  and  C_9
REMARK    9  A    between atoms: C_9  and  O_10
REMARK   10  A    between atoms: O_10  and  C_11
REMARK   11  A    between atoms: C_14  and  C_15
REMARK   12  A    between atoms: C_15  and  C_16
REMARK   13  A    between atoms: C_15  and  C_17
REMARK   14  A    between atoms: C_17  and  C_18
REMARK   15  A    between atoms: C_21  and  O_23
REMARK   16  A    between atoms: O_23  and  C_24
REMARK   17  A    between atoms: C_24  and  C_25
REMARK                            x       y       z     vdW  Elec       q    Type
REMARK                         _______ _______ _______ _____ _____    ______ ____
ROOT
ATOM      1  C   UNL     1       4.242   6.725  17.525  0.00  0.00    +0.000 C 
ENDROOT
BRANCH   1   2
ATOM      2  C   UNL     1       3.845   5.334  18.017  0.00  0.00    +0.000 C 
BRANCH   2   3
ATOM      3  C   UNL     1       4.913   4.662  18.903  0.00  0.00    +0.000 C 
BRANCH   3   4
ATOM      4  C   UNL     1       6.226   4.511  18.160  0.00  0.00    +0.000 C 
ATOM      5  O   UNL     1       7.319   4.832  18.606  0.00  0.00    +0.000 OA
BRANCH   4   6
ATOM      6  O   UNL     1       6.000   4.026  16.907  0.00  0.00    +0.000 OA
BRANCH   6   8
ATOM      7  C   UNL     1       6.268   4.562  14.550  0.00  0.00    +0.000 C 
ATOM      8  C   UNL     1       6.942   4.421  15.899  0.00  0.00    +0.000 C 
ENDBRANCH   6   8
ENDBRANCH   4   6
ENDBRANCH   3   4
BRANCH   3   9
ATOM      9  C   UNL     1       4.427   3.288  19.308  0.00  0.00    +0.000 C 
ATOM     10  O   UNL     1       5.025   2.522  20.052  0.00  0.00    +0.000 OA
BRANCH   9  11
ATOM     11  O   UNL     1       3.248   2.994  18.689  0.00  0.00    +0.000 OA
BRANCH  11  12
ATOM     12  C   UNL     1       2.294   2.285  19.494  0.00  0.00    +0.000 C 
ATOM     13  C   UNL     1       0.940   2.360  18.808  0.00  0.00    +0.000 C 
ENDBRANCH  11  12
ENDBRANCH   9  11
ENDBRANCH   3   9
ENDBRANCH   2   3
ENDBRANCH   1   2
BRANCH   1  14
ATOM     14  C   UNL     1       3.166   7.751  17.896  0.00  0.00    +0.000 C 
BRANCH  14  15
ATOM     15  O   UNL     1       2.433   7.350  19.055  0.00  0.00    +0.000 OA
BRANCH  15  16
ATOM     16  C   UNL     1       1.670   8.307  19.665  0.00  0.00    +0.000 A 
ATOM     17  C   UNL     1       1.226   9.339  18.838  0.00  0.00    +0.000 A 
ATOM     18  C   UNL     1       0.399  10.349  19.338  0.00  0.00    +0.000 A 
ATOM     19  C   UNL     1      -0.012  10.333  20.677  0.00  0.00    +0.000 A 
ATOM     20  C   UNL     1       0.444   9.298  21.503  0.00  0.00    +0.000 A 
ATOM     21  C   UNL     1       1.283   8.302  21.005  0.00  0.00    +0.000 A 
BRANCH  19  22
ATOM     22  C   UNL     1      -0.949  11.401  21.215  0.00  0.00    +0.000 C 
ATOM     23  C   UNL     1      -1.042  11.286  22.744  0.00  0.00    +0.000 C 
BRANCH  22  24
ATOM     24  C   UNL     1      -0.526  12.828  20.815  0.00  0.00    +0.000 C 
ATOM     25  C   UNL     1       0.073  13.624  21.968  0.00  0.00    +0.000 C 
ENDBRANCH  22  24
ENDBRANCH  19  22
ENDBRANCH  15  16
ENDBRANCH  14  15
ENDBRANCH   1  14
TORSDOF 13
ENDMDL
MODEL 8
REMARK VINA RESULT:      -6.1      2.831      8.489
REMARK  Name = 
REMARK  17 active torsions:
REMARK  status: ('A' for Active; 'I' for Inactive)
REMARK    1  A    between atoms: C_1  and  C_2
REMARK    2  A    between atoms: C_2  and  O_3
REMARK    3  A    between atoms: O_3  and  C_4
REMARK    4  A    between atoms: C_4  and  C_6
REMARK    5  A    between atoms: C_6  and  C_7
REMARK    6  A    between atoms: C_6  and  C_21
REMARK    7  A    between atoms: C_7  and  C_8
REMARK    8  A    between atoms: C_8  and  C_9
REMARK    9  A    between atoms: C_9  and  O_10
REMARK   10  A    between atoms: O_10  and  C_11
REMARK   11  A    between atoms: C_14  and  C_15
REMARK   12  A    between atoms: C_15  and  C_16
REMARK   13  A    between atoms: C_15  and  C_17
REMARK   14  A    between atoms: C_17  and  C_18
REMARK   15  A    between atoms: C_21  and  O_23
REMARK   16  A    between atoms: O_23  and  C_24
REMARK   17  A    between atoms: C_24  and  C_25
REMARK                            x       y       z     vdW  Elec       q    Type
REMARK                         _______ _______ _______ _____ _____    ______ ____
ROOT
ATOM      1  C   UNL     1       4.211   3.737  16.834  0.00  0.00    +0.000 C 
ENDROOT
BRANCH   1   2
ATOM      2  C   UNL     1       5.621   3.754  16.245  0.00  0.00    +0.000 C 
BRANCH   2   3
ATOM      3  C   UNL     1       5.979   5.072  15.531  0.00  0.00    +0.000 C 
BRANCH   3   4
ATOM      4  C   UNL     1       6.696   4.808  14.222  0.00  0.00    +0.000 C 
ATOM      5  O   UNL     1       7.753   5.329  13.890  0.00  0.00    +0.000 OA
BRANCH   4   6
ATOM      6  O   UNL     1       5.962   3.959  13.450  0.00  0.00    +0.000 OA
BRANCH   6   8
ATOM      7  C   UNL     1       5.947   2.285  11.686  0.00  0.00    +0.000 C 
ATOM      8  C   UNL     1       6.552   3.575  12.199  0.00  0.00    +0.000 C 
ENDBRANCH   6   8
ENDBRANCH   4   6
ENDBRANCH   3   4
BRANCH   3   9
ATOM      9  C   UNL     1       6.887   5.888  16.424  0.00  0.00    +0.000 C 
ATOM     10  O   UNL     1       6.881   7.109  16.505  0.00  0.00    +0.000 OA
BRANCH   9  11
ATOM     11  O   UNL     1       7.755   5.078  17.094  0.00  0.00    +0.000 OA
BRANCH  11  12
ATOM     12  C   UNL     1       7.492   4.928  18.497  0.00  0.00    +0.000 C 
ATOM     13  C   UNL     1       8.168   6.071  19.235  0.00  0.00    +0.000 C 
ENDBRANCH  11  12
ENDBRANCH   9  11
ENDBRANCH   3   9
ENDBRANCH   2   3
ENDBRANCH   1   2
BRANCH   1  14
ATOM     14  C   UNL     1       3.922   5.051  17.568  0.00  0.00    +0.000 C 
BRANCH  14  15
ATOM     15  O   UNL     1       2.560   5.128  17.992  0.00  0.00    +0.000 OA
BRANCH  15  16
ATOM     16  C   UNL     1       2.229   6.163  18.822  0.00  0.00    +0.000 A 
ATOM     17  C   UNL     1       2.179   7.422  18.222  0.00  0.00    +0.000 A 
ATOM     18  C   UNL     1       1.806   8.550  18.959  0.00  0.00    +0.000 A 
ATOM     19  C   UNL     1       1.458   8.433  20.311  0.00  0.00    +0.000 A 
ATOM     20  C   UNL     1       1.518   7.167  20.907  0.00  0.00    +0.000 A 
ATOM     21  C   UNL     1       1.908   6.048  20.174  0.00  0.00    +0.000 A 
BRANCH  19  22
ATOM     22  C   UNL     1       1.006   9.646  21.105  0.00  0.00    +0.000 C 
ATOM     23  C   UNL     1      -0.224  10.275  20.435  0.00  0.00    +0.000 C 
BRANCH  22  24
ATOM     24  C   UNL     1       0.699   9.318  22.579  0.00  0.00    +0.000 C 
ATOM     25  C   UNL     1      -0.602   9.937  23.075  0.00  0.00    +0.000 C 
ENDBRANCH  22  24
ENDBRANCH  19  22
ENDBRANCH  15  16
ENDBRANCH  14  15
ENDBRANCH   1  14
TORSDOF 13
ENDMDL
MODEL 9
REMARK VINA RESULT:      -6.1      3.047      7.825
REMARK  Name = 
REMARK  17 active torsions:
REMARK  status: ('A' for Active; 'I' for Inactive)
REMARK    1  A    between atoms: C_1  and  C_2
REMARK    2  A    between atoms: C_2  and  O_3
REMARK    3  A    between atoms: O_3  and  C_4
REMARK    4  A    between atoms: C_4  and  C_6
REMARK    5  A    between atoms: C_6  and  C_7
REMARK    6  A    between atoms: C_6  and  C_21
REMARK    7  A    between atoms: C_7  and  C_8
REMARK    8  A    between atoms: C_8  and  C_9
REMARK    9  A    between atoms: C_9  and  O_10
REMARK   10  A    between atoms: O_10  and  C_11
REMARK   11  A    between atoms: C_14  and  C_15
REMARK   12  A    between atoms: C_15  and  C_16
REMARK   13  A    between atoms: C_15  and  C_17
REMARK   14  A    between atoms: C_17  and  C_18
REMARK   15  A    between atoms: C_21  and  O_23
REMARK   16  A    between atoms: O_23  and  C_24
REMARK   17  A    between atoms: C_24  and  C_25
REMARK                            x       y       z     vdW  Elec       q    Type
REMARK                         _______ _______ _______ _____ _____    ______ ____
ROOT
ATOM      1  C   UNL     1       3.370   3.787  16.996  0.00  0.00    +0.000 C 
ENDROOT
BRANCH   1   2
ATOM      2  C   UNL     1       4.844   3.659  17.379  0.00  0.00    +0.000 C 
BRANCH   2   3
ATOM      3  C   UNL     1       5.705   4.858  16.936  0.00  0.00    +0.000 C 
BRANCH   3   4
ATOM      4  C   UNL     1       5.564   5.114  15.448  0.00  0.00    +0.000 C 
ATOM      5  O   UNL     1       5.288   6.198  14.951  0.00  0.00    +0.000 OA
BRANCH   4   6
ATOM      6  O   UNL     1       5.729   3.952  14.757  0.00  0.00    +0.000 OA
BRANCH   6   8
ATOM      7  C   UNL     1       6.407   3.534  12.459  0.00  0.00    +0.000 C 
ATOM      8  C   UNL     1       5.293   3.964  13.390  0.00  0.00    +0.000 C 
ENDBRANCH   6   8
ENDBRANCH   4   6
ENDBRANCH   3   4
BRANCH   3   9
ATOM      9  C   UNL     1       7.157   4.564  17.240  0.00  0.00    +0.000 C 
ATOM     10  O   UNL     1       8.019   4.337  16.401  0.00  0.00    +0.000 OA
BRANCH   9  11
ATOM     11  O   UNL     1       7.369   4.536  18.587  0.00  0.00    +0.000 OA
BRANCH  11  12
ATOM     12  C   UNL     1       7.097   5.766  19.274  0.00  0.00    +0.000 C 
ATOM     13  C   UNL     1       8.074   6.818  18.775  0.00  0.00    +0.000 C 
ENDBRANCH  11  12
ENDBRANCH   9  11
ENDBRANCH   3   9
ENDBRANCH   2   3
ENDBRANCH   1   2
BRANCH   1  14
ATOM     14  C   UNL     1       2.598   4.543  18.082  0.00  0.00    +0.000 C 
BRANCH  14  15
ATOM     15  O   UNL     1       3.385   5.588  18.656  0.00  0.00    +0.000 OA
BRANCH  15  16
ATOM     16  C   UNL     1       2.731   6.741  18.993  0.00  0.00    +0.000 A 
ATOM     17  C   UNL     1       2.656   7.705  17.988  0.00  0.00    +0.000 A 
ATOM     18  C   UNL     1       1.972   8.906  18.199  0.00  0.00    +0.000 A 
ATOM     19  C   UNL     1       1.333   9.154  19.421  0.00  0.00    +0.000 A 
ATOM     20  C   UNL     1       1.420   8.185  20.428  0.00  0.00    +0.000 A 
ATOM     21  C   UNL     1       2.119   6.996  20.220  0.00  0.00    +0.000 A 
BRANCH  19  22
ATOM     22  C   UNL     1       0.548  10.435  19.641  0.00  0.00    +0.000 C 
ATOM     23  C   UNL     1       1.092  11.541  18.726  0.00  0.00    +0.000 C 
BRANCH  22  24
ATOM     24  C   UNL     1      -0.967  10.257  19.417  0.00  0.00    +0.000 C 
ATOM     25  C   UNL     1      -1.395  10.507  17.975  0.00  0.00    +0.000 C 
ENDBRANCH  22  24
ENDBRANCH  19  22
ENDBRANCH  15  16
ENDBRANCH  14  15
ENDBRANCH   1  14
TORSDOF 13
ENDMDL
