MODEL 1
REMARK VINA RESULT:      -7.0      0.000      0.000
REMARK  Name = 
REMARK  4 active torsions:
REMARK  status: ('A' for Active; 'I' for Inactive)
REMARK    1  A    between atoms: C_4  and  C_5
REMARK    2  A    between atoms: C_5  and  S_6
REMARK    3  A    between atoms: S_6  and  C_7
REMARK    4  A    between atoms: C_7  and  N_9
REMARK                            x       y       z     vdW  Elec       q    Type
REMARK                         _______ _______ _______ _____ _____    ______ ____
ROOT
ATOM      1  O   UNL     1       2.200   9.161  17.224  0.00  0.00    +0.000 OA
ATOM      2  C   UNL     1       2.071   8.553  18.279  0.00  0.00    +0.000 A 
ATOM      3  C   UNL     1       2.633   7.202  18.452  0.00  0.00    +0.000 A 
ATOM      4  C   UNL     1       2.542   6.589  19.645  0.00  0.00    +0.000 A 
ATOM      5  O   UNL     1       1.970   7.179  20.767  0.00  0.00    +0.000 OA
ATOM      6  C   UNL     1       1.310   8.375  20.609  0.00  0.00    +0.000 A 
ATOM      7  C   UNL     1       0.595   8.852  21.710  0.00  0.00    +0.000 A 
ATOM      8  C   UNL     1      -0.100  10.058  21.604  0.00  0.00    +0.000 A 
ATOM      9 CL   UNL     1      -1.008  10.636  22.947  0.00  0.00    +0.000 Cl
ATOM     10  C   UNL     1      -0.071  10.797  20.420  0.00  0.00    +0.000 A 
ATOM     11  C   UNL     1       0.652  10.318  19.322  0.00  0.00    +0.000 A 
ATOM     12  C   UNL     1       1.333   9.102  19.424  0.00  0.00    +0.000 A 
ENDROOT
BRANCH   4  13
ATOM     13  C   UNL     1       3.099   5.196  19.860  0.00  0.00    +0.000 C 
BRANCH  13  14
ATOM     14  S   UNL     1       4.766   5.028  19.157  0.00  0.00    +0.000 S 
BRANCH  14  15
ATOM     15  C   UNL     1       4.591   3.915  17.790  0.00  0.00    +0.000 C 
ATOM     16  S   UNL     1       3.552   2.590  17.801  0.00  0.00    +0.000 S 
BRANCH  15  17
ATOM     17  N   UNL     1       5.420   4.218  16.706  0.00  0.00    +0.000 N 
ATOM     18  C   UNL     1       5.036   4.248  15.296  0.00  0.00    +0.000 C 
ATOM     19  C   UNL     1       6.348   4.084  14.548  0.00  0.00    +0.000 C 
ATOM     20  C   UNL     1       7.336   4.845  15.416  0.00  0.00    +0.000 C 
ATOM     21  C   UNL     1       6.820   4.641  16.837  0.00  0.00    +0.000 C 
ENDBRANCH  15  17
ENDBRANCH  14  15
ENDBRANCH  13  14
ENDBRANCH   4  13
TORSDOF 4
ENDMDL
MODEL 2
REMARK VINA RESULT:      -7.0      0.691      1.055
REMARK  Name = 
REMARK  4 active torsions:
REMARK  status: ('A' for Active; 'I' for Inactive)
REMARK    1  A    between atoms: C_4  and  C_5
REMARK    2  A    between atoms: C_5  and  S_6
REMARK    3  A    between atoms: S_6  and  C_7
REMARK    4  A    between atoms: C_7  and  N_9
REMARK                            x       y       z     vdW  Elec       q    Type
REMARK                         _______ _______ _______ _____ _____    ______ ____
ROOT
ATOM      1  O   UNL     1       2.056   9.357  17.307  0.00  0.00    +0.000 OA
ATOM      2  C   UNL     1       1.952   8.685  18.326  0.00  0.00    +0.000 A 
ATOM      3  C   UNL     1       2.516   7.326  18.401  0.00  0.00    +0.000 A 
ATOM      4  C   UNL     1       2.454   6.641  19.555  0.00  0.00    +0.000 A 
ATOM      5  O   UNL     1       1.910   7.160  20.726  0.00  0.00    +0.000 OA
ATOM      6  C   UNL     1       1.248   8.363  20.658  0.00  0.00    +0.000 A 
ATOM      7  C   UNL     1       0.560   8.770  21.804  0.00  0.00    +0.000 A 
ATOM      8  C   UNL     1      -0.135   9.981  21.790  0.00  0.00    +0.000 A 
ATOM      9 CL   UNL     1      -1.008  10.475  23.188  0.00  0.00    +0.000 Cl
ATOM     10  C   UNL     1      -0.134  10.792  20.653  0.00  0.00    +0.000 A 
ATOM     11  C   UNL     1       0.561  10.382  19.510  0.00  0.00    +0.000 A 
ATOM     12  C   UNL     1       1.243   9.162  19.521  0.00  0.00    +0.000 A 
ENDROOT
BRANCH   4  13
ATOM     13  C   UNL     1       3.013   5.237  19.670  0.00  0.00    +0.000 C 
BRANCH  13  14
ATOM     14  S   UNL     1       3.484   4.572  18.046  0.00  0.00    +0.000 S 
BRANCH  14  15
ATOM     15  C   UNL     1       5.217   4.899  17.887  0.00  0.00    +0.000 C 
ATOM     16  S   UNL     1       6.204   5.322  19.185  0.00  0.00    +0.000 S 
BRANCH  15  17
ATOM     17  N   UNL     1       5.691   4.807  16.575  0.00  0.00    +0.000 N 
ATOM     18  C   UNL     1       4.910   4.460  15.389  0.00  0.00    +0.000 C 
ATOM     19  C   UNL     1       5.946   3.979  14.388  0.00  0.00    +0.000 C 
ATOM     20  C   UNL     1       7.141   4.874  14.673  0.00  0.00    +0.000 C 
ATOM     21  C   UNL     1       7.066   5.131  16.174  0.00  0.00    +0.000 C 
ENDBRANCH  15  17
ENDBRANCH  14  15
ENDBRANCH  13  14
ENDBRANCH   4  13
TORSDOF 4
ENDMDL
MODEL 3
REMARK VINA RESULT:      -7.0      4.404      7.454
REMARK  Name = 
REMARK  4 active torsions:
REMARK  status: ('A' for Active; 'I' for Inactive)
REMARK    1  A    between atoms: C_4  and  C_5
REMARK    2  A    between atoms: C_5  and  S_6
REMARK    3  A    between atoms: S_6  and  C_7
REMARK    4  A    between atoms: C_7  and  N_9
REMARK                            x       y       z     vdW  Elec       q    Type
REMARK                         _______ _______ _______ _____ _____    ______ ____
ROOT
ATOM      1  O   UNL     1       7.845   6.929  16.779  0.00  0.00    +0.000 OA
ATOM      2  C   UNL     1       7.093   5.963  16.782  0.00  0.00    +0.000 A 
ATOM      3  C   UNL     1       6.488   5.474  18.033  0.00  0.00    +0.000 A 
ATOM      4  C   UNL     1       5.607   4.459  17.996  0.00  0.00    +0.000 A 
ATOM      5  O   UNL     1       5.191   3.849  16.817  0.00  0.00    +0.000 OA
ATOM      6  C   UNL     1       5.838   4.179  15.650  0.00  0.00    +0.000 A 
ATOM      7  C   UNL     1       5.523   3.423  14.518  0.00  0.00    +0.000 A 
ATOM      8  C   UNL     1       6.154   3.710  13.306  0.00  0.00    +0.000 A 
ATOM      9 CL   UNL     1       5.794   2.764  11.915  0.00  0.00    +0.000 Cl
ATOM     10  C   UNL     1       7.080   4.752  13.212  0.00  0.00    +0.000 A 
ATOM     11  C   UNL     1       7.387   5.510  14.348  0.00  0.00    +0.000 A 
ATOM     12  C   UNL     1       6.766   5.211  15.563  0.00  0.00    +0.000 A 
ENDROOT
BRANCH   4  13
ATOM     13  C   UNL     1       4.970   3.921  19.262  0.00  0.00    +0.000 C 
BRANCH  13  14
ATOM     14  S   UNL     1       3.762   2.614  18.896  0.00  0.00    +0.000 S 
BRANCH  14  15
ATOM     15  C   UNL     1       2.173   3.369  19.104  0.00  0.00    +0.000 C 
ATOM     16  S   UNL     1       0.743   2.493  19.254  0.00  0.00    +0.000 S 
BRANCH  15  17
ATOM     17  N   UNL     1       2.208   4.766  19.102  0.00  0.00    +0.000 N 
ATOM     18  C   UNL     1       2.288   5.635  17.929  0.00  0.00    +0.000 C 
ATOM     19  C   UNL     1       2.833   6.945  18.470  0.00  0.00    +0.000 C 
ATOM     20  C   UNL     1       2.195   7.041  19.845  0.00  0.00    +0.000 C 
ATOM     21  C   UNL     1       2.087   5.592  20.310  0.00  0.00    +0.000 C 
ENDBRANCH  15  17
ENDBRANCH  14  15
ENDBRANCH  13  14
ENDBRANCH   4  13
TORSDOF 4
ENDMDL
MODEL 4
REMARK VINA RESULT:      -7.0      0.957      1.326
REMARK  Name = 
REMARK  4 active torsions:
REMARK  status: ('A' for Active; 'I' for Inactive)
REMARK    1  A    between atoms: C_4  and  C_5
REMARK    2  A    between atoms: C_5  and  S_6
REMARK    3  A    between atoms: S_6  and  C_7
REMARK    4  A    between atoms: C_7  and  N_9
REMARK                            x       y       z     vdW  Elec       q    Type
REMARK                         _______ _______ _______ _____ _____    ______ ____
ROOT
ATOM      1  O   UNL     1       1.937   9.779  17.473  0.00  0.00    +0.000 OA
ATOM      2  C   UNL     1       1.758   9.120  18.490  0.00  0.00    +0.000 A 
ATOM      3  C   UNL     1       2.279   7.747  18.607  0.00  0.00    +0.000 A 
ATOM      4  C   UNL     1       2.134   7.075  19.762  0.00  0.00    +0.000 A 
ATOM      5  O   UNL     1       1.542   7.620  20.896  0.00  0.00    +0.000 OA
ATOM      6  C   UNL     1       0.918   8.840  20.782  0.00  0.00    +0.000 A 
ATOM      7  C   UNL     1       0.179   9.277  21.884  0.00  0.00    +0.000 A 
ATOM      8  C   UNL     1      -0.480  10.506  21.822  0.00  0.00    +0.000 A 
ATOM      9 CL   UNL     1      -1.416  11.037  23.165  0.00  0.00    +0.000 Cl
ATOM     10  C   UNL     1      -0.394  11.305  20.680  0.00  0.00    +0.000 A 
ATOM     11  C   UNL     1       0.352  10.866  19.581  0.00  0.00    +0.000 A 
ATOM     12  C   UNL     1       0.998   9.628  19.639  0.00  0.00    +0.000 A 
ENDROOT
BRANCH   4  13
ATOM     13  C   UNL     1       2.648   5.657  19.919  0.00  0.00    +0.000 C 
BRANCH  13  14
ATOM     14  S   UNL     1       2.836   4.834  18.310  0.00  0.00    +0.000 S 
BRANCH  14  15
ATOM     15  C   UNL     1       4.255   3.787  18.480  0.00  0.00    +0.000 C 
ATOM     16  S   UNL     1       4.334   2.501  19.564  0.00  0.00    +0.000 S 
BRANCH  15  17
ATOM     17  N   UNL     1       5.323   4.146  17.653  0.00  0.00    +0.000 N 
ATOM     18  C   UNL     1       6.602   4.715  18.076  0.00  0.00    +0.000 C 
ATOM     19  C   UNL     1       7.137   5.398  16.830  0.00  0.00    +0.000 C 
ATOM     20  C   UNL     1       6.681   4.478  15.710  0.00  0.00    +0.000 C 
ATOM     21  C   UNL     1       5.347   3.924  16.201  0.00  0.00    +0.000 C 
ENDBRANCH  15  17
ENDBRANCH  14  15
ENDBRANCH  13  14
ENDBRANCH   4  13
TORSDOF 4
ENDMDL
MODEL 5
REMARK VINA RESULT:      -7.0      4.271      7.138
REMARK  Name = 
REMARK  4 active torsions:
REMARK  status: ('A' for Active; 'I' for Inactive)
REMARK    1  A    between atoms: C_4  and  C_5
REMARK    2  A    between atoms: C_5  and  S_6
REMARK    3  A    between atoms: S_6  and  C_7
REMARK    4  A    between atoms: C_7  and  N_9
REMARK                            x       y       z     vdW  Elec       q    Type
REMARK                         _______ _______ _______ _____ _____    ______ ____
ROOT
ATOM      1  O   UNL     1       6.303   5.112  19.758  0.00  0.00    +0.000 OA
ATOM      2  C   UNL     1       5.785   4.447  18.869  0.00  0.00    +0.000 A 
ATOM      3  C   UNL     1       4.794   3.403  19.182  0.00  0.00    +0.000 A 
ATOM      4  C   UNL     1       4.186   2.741  18.182  0.00  0.00    +0.000 A 
ATOM      5  O   UNL     1       4.410   3.011  16.836  0.00  0.00    +0.000 OA
ATOM      6  C   UNL     1       5.429   3.873  16.507  0.00  0.00    +0.000 A 
ATOM      7  C   UNL     1       5.748   3.985  15.151  0.00  0.00    +0.000 A 
ATOM      8  C   UNL     1       6.778   4.842  14.759  0.00  0.00    +0.000 A 
ATOM      9 CL   UNL     1       7.195   4.963  13.094  0.00  0.00    +0.000 Cl
ATOM     10  C   UNL     1       7.477   5.597  15.703  0.00  0.00    +0.000 A 
ATOM     11  C   UNL     1       7.149   5.486  17.059  0.00  0.00    +0.000 A 
ATOM     12  C   UNL     1       6.129   4.616  17.451  0.00  0.00    +0.000 A 
ENDROOT
BRANCH   4  13
ATOM     13  C   UNL     1       3.167   1.653  18.462  0.00  0.00    +0.000 C 
BRANCH  13  14
ATOM     14  S   UNL     1       1.490   2.335  18.619  0.00  0.00    +0.000 S 
BRANCH  14  15
ATOM     15  C   UNL     1       1.568   3.465  19.982  0.00  0.00    +0.000 C 
ATOM     16  S   UNL     1       1.352   3.001  21.586  0.00  0.00    +0.000 S 
BRANCH  15  17
ATOM     17  N   UNL     1       1.795   4.792  19.602  0.00  0.00    +0.000 N 
ATOM     18  C   UNL     1       1.843   5.312  18.236  0.00  0.00    +0.000 C 
ATOM     19  C   UNL     1       2.628   6.606  18.357  0.00  0.00    +0.000 C 
ATOM     20  C   UNL     1       2.190   7.150  19.706  0.00  0.00    +0.000 C 
ATOM     21  C   UNL     1       1.943   5.903  20.550  0.00  0.00    +0.000 C 
ENDBRANCH  15  17
ENDBRANCH  14  15
ENDBRANCH  13  14
ENDBRANCH   4  13
TORSDOF 4
ENDMDL
MODEL 6
REMARK VINA RESULT:      -6.9      1.709      2.718
REMARK  Name = 
REMARK  4 active torsions:
REMARK  status: ('A' for Active; 'I' for Inactive)
REMARK    1  A    between atoms: C_4  and  C_5
REMARK    2  A    between atoms: C_5  and  S_6
REMARK    3  A    between atoms: S_6  and  C_7
REMARK    4  A    between atoms: C_7  and  N_9
REMARK                            x       y       z     vdW  Elec       q    Type
REMARK                         _______ _______ _______ _____ _____    ______ ____
ROOT
ATOM      1  O   UNL     1       1.872   9.624  17.331  0.00  0.00    +0.000 OA
ATOM      2  C   UNL     1       1.801   8.995  18.381  0.00  0.00    +0.000 A 
ATOM      3  C   UNL     1       2.445   7.677  18.521  0.00  0.00    +0.000 A 
ATOM      4  C   UNL     1       2.416   7.044  19.707  0.00  0.00    +0.000 A 
ATOM      5  O   UNL     1       1.835   7.584  20.849  0.00  0.00    +0.000 OA
ATOM      6  C   UNL     1       1.103   8.741  20.722  0.00  0.00    +0.000 A 
ATOM      7  C   UNL     1       0.384   9.160  21.845  0.00  0.00    +0.000 A 
ATOM      8  C   UNL     1      -0.382  10.324  21.771  0.00  0.00    +0.000 A 
ATOM      9 CL   UNL     1      -1.293  10.830  23.140  0.00  0.00    +0.000 Cl
ATOM     10  C   UNL     1      -0.422  11.080  20.597  0.00  0.00    +0.000 A 
ATOM     11  C   UNL     1       0.304  10.659  19.478  0.00  0.00    +0.000 A 
ATOM     12  C   UNL     1       1.057   9.485  19.548  0.00  0.00    +0.000 A 
ENDROOT
BRANCH   4  13
ATOM     13  C   UNL     1       3.058   5.683  19.890  0.00  0.00    +0.000 C 
BRANCH  13  14
ATOM     14  S   UNL     1       4.590   5.534  18.925  0.00  0.00    +0.000 S 
BRANCH  14  15
ATOM     15  C   UNL     1       4.260   4.289  17.708  0.00  0.00    +0.000 C 
ATOM     16  S   UNL     1       5.133   4.138  16.276  0.00  0.00    +0.000 S 
BRANCH  15  17
ATOM     17  N   UNL     1       3.183   3.459  18.029  0.00  0.00    +0.000 N 
ATOM     18  C   UNL     1       1.810   3.585  17.544  0.00  0.00    +0.000 C 
ATOM     19  C   UNL     1       0.981   2.831  18.569  0.00  0.00    +0.000 C 
ATOM     20  C   UNL     1       1.887   1.676  18.962  0.00  0.00    +0.000 C 
ATOM     21  C   UNL     1       3.294   2.255  18.862  0.00  0.00    +0.000 C 
ENDBRANCH  15  17
ENDBRANCH  14  15
ENDBRANCH  13  14
ENDBRANCH   4  13
TORSDOF 4
ENDMDL
MODEL 7
REMARK VINA RESULT:      -6.7      4.065      7.981
REMARK  Name = 
REMARK  4 active torsions:
REMARK  status: ('A' for Active; 'I' for Inactive)
REMARK    1  A    between atoms: C_4  and  C_5
REMARK    2  A    between atoms: C_5  and  S_6
REMARK    3  A    between atoms: S_6  and  C_7
REMARK    4  A    between atoms: C_7  and  N_9
REMARK                            x       y       z     vdW  Elec       q    Type
REMARK                         _______ _______ _______ _____ _____    ______ ____
ROOT
ATOM      1  O   UNL     1       6.863   5.289  19.810  0.00  0.00    +0.000 OA
ATOM      2  C   UNL     1       5.892   5.176  19.072  0.00  0.00    +0.000 A 
ATOM      3  C   UNL     1       4.521   5.304  19.596  0.00  0.00    +0.000 A 
ATOM      4  C   UNL     1       3.477   5.252  18.751  0.00  0.00    +0.000 A 
ATOM      5  O   UNL     1       3.613   5.119  17.373  0.00  0.00    +0.000 OA
ATOM      6  C   UNL     1       4.862   4.853  16.865  0.00  0.00    +0.000 A 
ATOM      7  C   UNL     1       4.939   4.547  15.504  0.00  0.00    +0.000 A 
ATOM      8  C   UNL     1       6.181   4.262  14.935  0.00  0.00    +0.000 A 
ATOM      9 CL   UNL     1       6.279   3.856  13.266  0.00  0.00    +0.000 Cl
ATOM     10  C   UNL     1       7.345   4.299  15.706  0.00  0.00    +0.000 A 
ATOM     11  C   UNL     1       7.264   4.612  17.068  0.00  0.00    +0.000 A 
ATOM     12  C   UNL     1       6.017   4.880  17.639  0.00  0.00    +0.000 A 
ENDROOT
BRANCH   4  13
ATOM     13  C   UNL     1       2.051   5.370  19.251  0.00  0.00    +0.000 C 
BRANCH  13  14
ATOM     14  S   UNL     1       1.903   6.628  20.553  0.00  0.00    +0.000 S 
BRANCH  14  15
ATOM     15  C   UNL     1       1.612   8.154  19.701  0.00  0.00    +0.000 C 
ATOM     16  S   UNL     1       2.170   8.468  18.144  0.00  0.00    +0.000 S 
BRANCH  15  17
ATOM     17  N   UNL     1       0.902   9.094  20.454  0.00  0.00    +0.000 N 
ATOM     18  C   UNL     1       0.216  10.281  19.945  0.00  0.00    +0.000 C 
ATOM     19  C   UNL     1       0.101  11.192  21.155  0.00  0.00    +0.000 C 
ATOM     20  C   UNL     1      -0.127  10.219  22.299  0.00  0.00    +0.000 C 
ATOM     21  C   UNL     1       0.666   8.979  21.899  0.00  0.00    +0.000 C 
ENDBRANCH  15  17
ENDBRANCH  14  15
ENDBRANCH  13  14
ENDBRANCH   4  13
TORSDOF 4
ENDMDL
MODEL 8
REMARK VINA RESULT:      -6.7      3.816      7.286
REMARK  Name = 
REMARK  4 active torsions:
REMARK  status: ('A' for Active; 'I' for Inactive)
REMARK    1  A    between atoms: C_4  and  C_5
REMARK    2  A    between atoms: C_5  and  S_6
REMARK    3  A    between atoms: S_6  and  C_7
REMARK    4  A    between atoms: C_7  and  N_9
REMARK                            x       y       z     vdW  Elec       q    Type
REMARK                         _______ _______ _______ _____ _____    ______ ____
ROOT
ATOM      1  O   UNL     1       4.948   5.021  16.579  0.00  0.00    +0.000 OA
ATOM      2  C   UNL     1       4.161   5.562  17.345  0.00  0.00    +0.000 A 
ATOM      3  C   UNL     1       3.901   7.011  17.269  0.00  0.00    +0.000 A 
ATOM      4  C   UNL     1       2.976   7.565  18.072  0.00  0.00    +0.000 A 
ATOM      5  O   UNL     1       2.201   6.834  18.967  0.00  0.00    +0.000 OA
ATOM      6  C   UNL     1       2.514   5.510  19.168  0.00  0.00    +0.000 A 
ATOM      7  C   UNL     1       1.840   4.851  20.199  0.00  0.00    +0.000 A 
ATOM      8  C   UNL     1       2.122   3.508  20.453  0.00  0.00    +0.000 A 
ATOM      9 CL   UNL     1       1.317   2.698  21.740  0.00  0.00    +0.000 Cl
ATOM     10  C   UNL     1       3.054   2.816  19.677  0.00  0.00    +0.000 A 
ATOM     11  C   UNL     1       3.722   3.478  18.641  0.00  0.00    +0.000 A 
ATOM     12  C   UNL     1       3.451   4.827  18.400  0.00  0.00    +0.000 A 
ENDROOT
BRANCH   4  13
ATOM     13  C   UNL     1       2.685   9.052  18.032  0.00  0.00    +0.000 C 
BRANCH  13  14
ATOM     14  S   UNL     1       0.903   9.386  18.148  0.00  0.00    +0.000 S 
BRANCH  14  15
ATOM     15  C   UNL     1       0.745  10.691  19.335  0.00  0.00    +0.000 C 
ATOM     16  S   UNL     1       1.056  12.308  18.984  0.00  0.00    +0.000 S 
BRANCH  15  17
ATOM     17  N   UNL     1       0.369  10.252  20.608  0.00  0.00    +0.000 N 
ATOM     18  C   UNL     1       0.568   8.914  21.164  0.00  0.00    +0.000 C 
ATOM     19  C   UNL     1      -0.459   8.817  22.279  0.00  0.00    +0.000 C 
ATOM     20  C   UNL     1      -0.491  10.228  22.842  0.00  0.00    +0.000 C 
ATOM     21  C   UNL     1      -0.228  11.119  21.632  0.00  0.00    +0.000 C 
ENDBRANCH  15  17
ENDBRANCH  14  15
ENDBRANCH  13  14
ENDBRANCH   4  13
TORSDOF 4
ENDMDL
MODEL 9
REMARK VINA RESULT:      -6.6      4.346      8.130
REMARK  Name = 
REMARK  4 active torsions:
REMARK  status: ('A' for Active; 'I' for Inactive)
REMARK    1  A    between atoms: C_4  and  C_5
REMARK    2  A    between atoms: C_5  and  S_6
REMARK    3  A    between atoms: S_6  and  C_7
REMARK    4  A    between atoms: C_7  and  N_9
REMARK                            x       y       z     vdW  Elec       q    Type
REMARK                         _______ _______ _______ _____ _____    ______ ____
ROOT
ATOM      1  O   UNL     1       2.082   5.223  20.007  0.00  0.00    +0.000 OA
ATOM      2  C   UNL     1       2.540   5.957  19.139  0.00  0.00    +0.000 A 
ATOM      3  C   UNL     1       2.104   7.360  19.023  0.00  0.00    +0.000 A 
ATOM      4  C   UNL     1       2.679   8.163  18.111  0.00  0.00    +0.000 A 
ATOM      5  O   UNL     1       3.711   7.755  17.273  0.00  0.00    +0.000 OA
ATOM      6  C   UNL     1       4.044   6.421  17.253  0.00  0.00    +0.000 A 
ATOM      7  C   UNL     1       4.956   6.012  16.277  0.00  0.00    +0.000 A 
ATOM      8  C   UNL     1       5.326   4.668  16.205  0.00  0.00    +0.000 A 
ATOM      9 CL   UNL     1       6.426   4.153  14.986  0.00  0.00    +0.000 Cl
ATOM     10  C   UNL     1       4.809   3.737  17.108  0.00  0.00    +0.000 A 
ATOM     11  C   UNL     1       3.901   4.152  18.088  0.00  0.00    +0.000 A 
ATOM     12  C   UNL     1       3.519   5.495  18.147  0.00  0.00    +0.000 A 
ENDROOT
BRANCH   4  13
ATOM     13  C   UNL     1       2.252   9.609  17.953  0.00  0.00    +0.000 C 
BRANCH  13  14
ATOM     14  S   UNL     1       0.545   9.865  18.522  0.00  0.00    +0.000 S 
BRANCH  14  15
ATOM     15  C   UNL     1       0.644  11.150  19.738  0.00  0.00    +0.000 C 
ATOM     16  S   UNL     1       1.209  12.701  19.406  0.00  0.00    +0.000 S 
BRANCH  15  17
ATOM     17  N   UNL     1       0.238  10.750  21.015  0.00  0.00    +0.000 N 
ATOM     18  C   UNL     1       0.865   9.726  21.849  0.00  0.00    +0.000 C 
ATOM     19  C   UNL     1      -0.226   9.315  22.821  0.00  0.00    +0.000 C 
ATOM     20  C   UNL     1      -0.964  10.618  23.081  0.00  0.00    +0.000 C 
ATOM     21  C   UNL     1      -0.863  11.375  21.760  0.00  0.00    +0.000 C 
ENDBRANCH  15  17
ENDBRANCH  14  15
ENDBRANCH  13  14
ENDBRANCH   4  13
TORSDOF 4
ENDMDL
