MODEL 1
REMARK VINA RESULT:      -6.8      0.000      0.000
REMARK  Name = 
REMARK  5 active torsions:
REMARK  status: ('A' for Active; 'I' for Inactive)
REMARK    1  A    between atoms: N_1  and  C_2
REMARK    2  A    between atoms: C_5  and  N_6
REMARK    3  A    between atoms: C_20  and  C_21
REMARK    4  A    between atoms: C_21  and  O_23
REMARK    5  A    between atoms: N_25  and  C_26
REMARK                            x       y       z     vdW  Elec       q    Type
REMARK                         _______ _______ _______ _____ _____    ______ ____
ROOT
ATOM      1  C   UNL     1       2.784   7.818  18.065  0.00  0.00    +0.000 A 
ATOM      2  C   UNL     1       2.926   6.510  18.557  0.00  0.00    +0.000 A 
ATOM      3  F   UNL     1       3.581   5.644  17.763  0.00  0.00    +0.000 F 
ATOM      4  C   UNL     1       2.389   6.076  19.780  0.00  0.00    +0.000 A 
ATOM      5  C   UNL     1       1.643   7.041  20.500  0.00  0.00    +0.000 A 
ATOM      6  F   UNL     1       1.205   6.691  21.722  0.00  0.00    +0.000 F 
ATOM      7  C   UNL     1       1.375   8.346  20.011  0.00  0.00    +0.000 A 
ATOM      8  C   UNL     1       1.977   8.717  18.790  0.00  0.00    +0.000 A 
ATOM      9  C   UNL     1       1.801  10.108  18.279  0.00  0.00    +0.000 A 
ATOM     10  O   UNL     1       2.406  10.530  17.292  0.00  0.00    +0.000 OA
ATOM     11  C   UNL     1       0.900  11.025  19.000  0.00  0.00    +0.000 A 
ATOM     12  C   UNL     1       0.346  10.559  20.126  0.00  0.00    +0.000 A 
ATOM     13  N   UNL     1       0.513   9.292  20.664  0.00  0.00    +0.000 N 
ENDROOT
BRANCH   4  14
ATOM     14  N   UNL     1       2.537   4.759  20.256  0.00  0.00    +0.000 N 
ATOM     15  C   UNL     1       3.874   4.114  20.287  0.00  0.00    +0.000 C 
ATOM     16  C   UNL     1       3.980   2.955  19.256  0.00  0.00    +0.000 C 
ATOM     17  N   UNL     1       2.797   2.028  19.189  0.00  0.00    +0.000 NA
ATOM     18  C   UNL     1       1.954   2.393  18.030  0.00  0.00    +0.000 C 
ATOM     19  C   UNL     1       1.194   3.659  18.435  0.00  0.00    +0.000 C 
ATOM     20  C   UNL     1       1.427   3.797  19.954  0.00  0.00    +0.000 C 
ATOM     21  C   UNL     1       1.873   2.357  20.311  0.00  0.00    +0.000 C 
ENDBRANCH   4  14
BRANCH   1  22
ATOM     22  N   UNL     1       3.235   8.089  16.755  0.00  0.00    +0.000 N 
ATOM     23  H   UNL     1       2.518   8.485  16.153  0.00  0.00    +0.000 HD
ATOM     24  H   UNL     1       3.736   7.303  16.327  0.00  0.00    +0.000 HD
ENDBRANCH   1  22
BRANCH  13  25
ATOM     25  C   UNL     1      -0.205   9.015  21.928  0.00  0.00    +0.000 C 
ATOM     26  C   UNL     1       0.409   9.375  23.268  0.00  0.00    +0.000 C 
ATOM     27  C   UNL     1      -0.812  10.088  22.795  0.00  0.00    +0.000 C 
ENDBRANCH  13  25
BRANCH  11  28
ATOM     28  C   UNL     1       0.603  12.398  18.547  0.00  0.00    +0.000 C 
ATOM     29  O   UNL     1      -0.491  12.930  18.685  0.00  0.00    +0.000 OA
BRANCH  28  30
ATOM     30  O   UNL     1       1.634  13.037  17.956  0.00  0.00    +0.000 OA
ATOM     31  H   UNL     1       1.374  13.851  17.458  0.00  0.00    +0.000 HD
ENDBRANCH  28  30
ENDBRANCH  11  28
TORSDOF 5
ENDMDL
MODEL 2
REMARK VINA RESULT:      -6.2      5.475      9.550
REMARK  Name = 
REMARK  5 active torsions:
REMARK  status: ('A' for Active; 'I' for Inactive)
REMARK    1  A    between atoms: N_1  and  C_2
REMARK    2  A    between atoms: C_5  and  N_6
REMARK    3  A    between atoms: C_20  and  C_21
REMARK    4  A    between atoms: C_21  and  O_23
REMARK    5  A    between atoms: N_25  and  C_26
REMARK                            x       y       z     vdW  Elec       q    Type
REMARK                         _______ _______ _______ _____ _____    ______ ____
ROOT
ATOM      1  C   UNL     1      -1.977  12.736  21.086  0.00  0.00    +0.000 A 
ATOM      2  C   UNL     1      -3.262  13.291  21.212  0.00  0.00    +0.000 A 
ATOM      3  F   UNL     1      -3.512  13.963  22.350  0.00  0.00    +0.000 F 
ATOM      4  C   UNL     1      -4.273  13.136  20.249  0.00  0.00    +0.000 A 
ATOM      5  C   UNL     1      -3.937  12.338  19.128  0.00  0.00    +0.000 A 
ATOM      6  F   UNL     1      -4.844  12.256  18.140  0.00  0.00    +0.000 F 
ATOM      7  C   UNL     1      -2.695  11.666  18.992  0.00  0.00    +0.000 A 
ATOM      8  C   UNL     1      -1.719  11.898  19.984  0.00  0.00    +0.000 A 
ATOM      9  C   UNL     1      -0.366  11.287  19.838  0.00  0.00    +0.000 A 
ATOM     10  O   UNL     1       0.566  11.557  20.599  0.00  0.00    +0.000 OA
ATOM     11  C   UNL     1      -0.119  10.355  18.724  0.00  0.00    +0.000 A 
ATOM     12  C   UNL     1      -1.127  10.172  17.861  0.00  0.00    +0.000 A 
ATOM     13  N   UNL     1      -2.385  10.749  17.929  0.00  0.00    +0.000 N 
ENDROOT
BRANCH   4  14
ATOM     14  N   UNL     1      -5.557  13.695  20.393  0.00  0.00    +0.000 N 
ATOM     15  C   UNL     1      -5.722  15.141  20.684  0.00  0.00    +0.000 C 
ATOM     16  C   UNL     1      -6.276  15.382  22.117  0.00  0.00    +0.000 C 
ATOM     17  N   UNL     1      -7.407  14.487  22.541  0.00  0.00    +0.000 NA
ATOM     18  C   UNL     1      -6.880  13.407  23.403  0.00  0.00    +0.000 C 
ATOM     19  C   UNL     1      -6.180  12.416  22.468  0.00  0.00    +0.000 C 
ATOM     20  C   UNL     1      -6.603  12.841  21.047  0.00  0.00    +0.000 C 
ATOM     21  C   UNL     1      -7.855  13.697  21.359  0.00  0.00    +0.000 C 
ENDBRANCH   4  14
BRANCH   1  22
ATOM     22  N   UNL     1      -1.101  12.832  22.190  0.00  0.00    +0.000 N 
ATOM     23  H   UNL     1      -1.499  13.332  22.981  0.00  0.00    +0.000 HD
ATOM     24  H   UNL     1      -0.162  13.154  21.936  0.00  0.00    +0.000 HD
ENDBRANCH   1  22
BRANCH  13  25
ATOM     25  C   UNL     1      -3.331  10.393  16.848  0.00  0.00    +0.000 C 
ATOM     26  C   UNL     1      -3.262  11.077  15.496  0.00  0.00    +0.000 C 
ATOM     27  C   UNL     1      -2.934   9.628  15.612  0.00  0.00    +0.000 C 
ENDBRANCH  13  25
BRANCH  11  28
ATOM     28  C   UNL     1       1.160   9.645  18.523  0.00  0.00    +0.000 C 
ATOM     29  O   UNL     1       1.542   8.732  19.242  0.00  0.00    +0.000 OA
BRANCH  28  30
ATOM     30  O   UNL     1       1.894  10.083  17.479  0.00  0.00    +0.000 OA
ATOM     31  H   UNL     1       1.374  10.577  16.797  0.00  0.00    +0.000 HD
ENDBRANCH  28  30
ENDBRANCH  11  28
TORSDOF 5
ENDMDL
MODEL 3
REMARK VINA RESULT:      -6.2      5.098      9.395
REMARK  Name = 
REMARK  5 active torsions:
REMARK  status: ('A' for Active; 'I' for Inactive)
REMARK    1  A    between atoms: N_1  and  C_2
REMARK    2  A    between atoms: C_5  and  N_6
REMARK    3  A    between atoms: C_20  and  C_21
REMARK    4  A    between atoms: C_21  and  O_23
REMARK    5  A    between atoms: N_25  and  C_26
REMARK                            x       y       z     vdW  Elec       q    Type
REMARK                         _______ _______ _______ _____ _____    ______ ____
ROOT
ATOM      1  C   UNL     1      -4.159  13.096  20.280  0.00  0.00    +0.000 A 
ATOM      2  C   UNL     1      -3.805  13.571  21.554  0.00  0.00    +0.000 A 
ATOM      3  F   UNL     1      -4.657  14.443  22.123  0.00  0.00    +0.000 F 
ATOM      4  C   UNL     1      -2.615  13.218  22.213  0.00  0.00    +0.000 A 
ATOM      5  C   UNL     1      -1.745  12.363  21.491  0.00  0.00    +0.000 A 
ATOM      6  F   UNL     1      -0.649  11.922  22.133  0.00  0.00    +0.000 F 
ATOM      7  C   UNL     1      -1.996  11.933  20.163  0.00  0.00    +0.000 A 
ATOM      8  C   UNL     1      -3.228  12.302  19.583  0.00  0.00    +0.000 A 
ATOM      9  C   UNL     1      -3.577  11.799  18.223  0.00  0.00    +0.000 A 
ATOM     10  O   UNL     1      -4.688  11.977  17.718  0.00  0.00    +0.000 OA
ATOM     11  C   UNL     1      -2.574  11.028  17.466  0.00  0.00    +0.000 A 
ATOM     12  C   UNL     1      -1.420  10.767  18.094  0.00  0.00    +0.000 A 
ATOM     13  N   UNL     1      -1.066  11.175  19.371  0.00  0.00    +0.000 N 
ENDROOT
BRANCH   4  14
ATOM     14  N   UNL     1      -2.273  13.707  23.488  0.00  0.00    +0.000 N 
ATOM     15  C   UNL     1      -3.310  13.860  24.539  0.00  0.00    +0.000 C 
ATOM     16  C   UNL     1      -3.585  15.356  24.864  0.00  0.00    +0.000 C 
ATOM     17  N   UNL     1      -2.370  16.231  24.998  0.00  0.00    +0.000 NA
ATOM     18  C   UNL     1      -2.178  16.996  23.747  0.00  0.00    +0.000 C 
ATOM     19  C   UNL     1      -1.603  16.010  22.726  0.00  0.00    +0.000 C 
ATOM     20  C   UNL     1      -1.212  14.765  23.549  0.00  0.00    +0.000 C 
ATOM     21  C   UNL     1      -1.157  15.366  24.976  0.00  0.00    +0.000 C 
ENDBRANCH   4  14
BRANCH   1  22
ATOM     22  N   UNL     1      -5.304  13.644  19.662  0.00  0.00    +0.000 N 
ATOM     23  H   UNL     1      -6.049  12.967  19.516  0.00  0.00    +0.000 HD
ATOM     24  H   UNL     1      -5.089  14.197  18.826  0.00  0.00    +0.000 HD
ENDBRANCH   1  22
BRANCH  13  25
ATOM     25  C   UNL     1       0.270  10.756  19.847  0.00  0.00    +0.000 C 
ATOM     26  C   UNL     1       0.480   9.391  20.476  0.00  0.00    +0.000 C 
ATOM     27  C   UNL     1       1.109   9.708  19.162  0.00  0.00    +0.000 C 
ENDBRANCH  13  25
BRANCH  11  28
ATOM     28  C   UNL     1      -2.790  10.538  16.091  0.00  0.00    +0.000 C 
ATOM     29  O   UNL     1      -2.634   9.370  15.760  0.00  0.00    +0.000 OA
BRANCH  28  30
ATOM     30  O   UNL     1      -3.171  11.483  15.206  0.00  0.00    +0.000 OA
ATOM     31  H   UNL     1      -2.609  11.527  14.392  0.00  0.00    +0.000 HD
ENDBRANCH  28  30
ENDBRANCH  11  28
TORSDOF 5
ENDMDL
MODEL 4
REMARK VINA RESULT:      -5.9      5.427      9.352
REMARK  Name = 
REMARK  5 active torsions:
REMARK  status: ('A' for Active; 'I' for Inactive)
REMARK    1  A    between atoms: N_1  and  C_2
REMARK    2  A    between atoms: C_5  and  N_6
REMARK    3  A    between atoms: C_20  and  C_21
REMARK    4  A    between atoms: C_21  and  O_23
REMARK    5  A    between atoms: N_25  and  C_26
REMARK                            x       y       z     vdW  Elec       q    Type
REMARK                         _______ _______ _______ _____ _____    ______ ____
ROOT
ATOM      1  C   UNL     1      -1.772  12.438  21.364  0.00  0.00    +0.000 A 
ATOM      2  C   UNL     1      -3.097  12.794  21.667  0.00  0.00    +0.000 A 
ATOM      3  F   UNL     1      -3.309  13.310  22.892  0.00  0.00    +0.000 F 
ATOM      4  C   UNL     1      -4.176  12.596  20.791  0.00  0.00    +0.000 A 
ATOM      5  C   UNL     1      -3.860  11.967  19.561  0.00  0.00    +0.000 A 
ATOM      6  F   UNL     1      -4.849  11.858  18.657  0.00  0.00    +0.000 F 
ATOM      7  C   UNL     1      -2.564  11.490  19.237  0.00  0.00    +0.000 A 
ATOM      8  C   UNL     1      -1.527  11.757  20.156  0.00  0.00    +0.000 A 
ATOM      9  C   UNL     1      -0.129  11.357  19.819  0.00  0.00    +0.000 A 
ATOM     10  O   UNL     1       0.835  11.677  20.517  0.00  0.00    +0.000 OA
ATOM     11  C   UNL     1       0.116  10.582  18.590  0.00  0.00    +0.000 A 
ATOM     12  C   UNL     1      -0.946  10.347  17.808  0.00  0.00    +0.000 A 
ATOM     13  N   UNL     1      -2.253  10.735  18.055  0.00  0.00    +0.000 N 
ENDROOT
BRANCH   4  14
ATOM     14  N   UNL     1      -5.499  12.955  21.113  0.00  0.00    +0.000 N 
ATOM     15  C   UNL     1      -6.624  12.034  20.813  0.00  0.00    +0.000 C 
ATOM     16  C   UNL     1      -7.542  12.592  19.689  0.00  0.00    +0.000 C 
ATOM     17  N   UNL     1      -7.888  14.052  19.791  0.00  0.00    +0.000 NA
ATOM     18  C   UNL     1      -7.031  14.824  18.865  0.00  0.00    +0.000 C 
ATOM     19  C   UNL     1      -5.651  14.899  19.523  0.00  0.00    +0.000 C 
ATOM     20  C   UNL     1      -5.868  14.401  20.967  0.00  0.00    +0.000 C 
ATOM     21  C   UNL     1      -7.402  14.564  21.103  0.00  0.00    +0.000 C 
ENDBRANCH   4  14
BRANCH   1  22
ATOM     22  N   UNL     1      -0.804  12.546  22.386  0.00  0.00    +0.000 N 
ATOM     23  H   UNL     1      -1.183  12.404  23.319  0.00  0.00    +0.000 HD
ATOM     24  H   UNL     1      -0.221  13.385  22.307  0.00  0.00    +0.000 HD
ENDBRANCH   1  22
BRANCH  13  25
ATOM     25  C   UNL     1      -3.254  10.359  17.032  0.00  0.00    +0.000 C 
ATOM     26  C   UNL     1      -3.353  11.118  15.722  0.00  0.00    +0.000 C 
ATOM     27  C   UNL     1      -2.903   9.696  15.725  0.00  0.00    +0.000 C 
ENDBRANCH  13  25
BRANCH  11  28
ATOM     28  C   UNL     1       1.447  10.080  18.194  0.00  0.00    +0.000 C 
ATOM     29  O   UNL     1       1.865   8.972  18.502  0.00  0.00    +0.000 OA
BRANCH  28  30
ATOM     30  O   UNL     1       2.185  10.942  17.465  0.00  0.00    +0.000 OA
ATOM     31  H   UNL     1       3.135  10.683  17.370  0.00  0.00    +0.000 HD
ENDBRANCH  28  30
ENDBRANCH  11  28
TORSDOF 5
ENDMDL
MODEL 5
REMARK VINA RESULT:      -5.9      9.041     11.212
REMARK  Name = 
REMARK  5 active torsions:
REMARK  status: ('A' for Active; 'I' for Inactive)
REMARK    1  A    between atoms: N_1  and  C_2
REMARK    2  A    between atoms: C_5  and  N_6
REMARK    3  A    between atoms: C_20  and  C_21
REMARK    4  A    between atoms: C_21  and  O_23
REMARK    5  A    between atoms: N_25  and  C_26
REMARK                            x       y       z     vdW  Elec       q    Type
REMARK                         _______ _______ _______ _____ _____    ______ ____
ROOT
ATOM      1  C   UNL     1       7.741  15.843  21.006  0.00  0.00    +0.000 A 
ATOM      2  C   UNL     1       7.325  15.012  22.059  0.00  0.00    +0.000 A 
ATOM      3  F   UNL     1       6.532  15.579  22.987  0.00  0.00    +0.000 F 
ATOM      4  C   UNL     1       7.727  13.674  22.200  0.00  0.00    +0.000 A 
ATOM      5  C   UNL     1       8.631  13.199  21.218  0.00  0.00    +0.000 A 
ATOM      6  F   UNL     1       8.954  11.894  21.262  0.00  0.00    +0.000 F 
ATOM      7  C   UNL     1       9.170  14.015  20.190  0.00  0.00    +0.000 A 
ATOM      8  C   UNL     1       8.691  15.339  20.096  0.00  0.00    +0.000 A 
ATOM      9  C   UNL     1       9.158  16.209  18.978  0.00  0.00    +0.000 A 
ATOM     10  O   UNL     1       8.679  17.325  18.765  0.00  0.00    +0.000 OA
ATOM     11  C   UNL     1      10.203  15.706  18.069  0.00  0.00    +0.000 A 
ATOM     12  C   UNL     1      10.619  14.449  18.272  0.00  0.00    +0.000 A 
ATOM     13  N   UNL     1      10.185  13.588  19.267  0.00  0.00    +0.000 N 
ENDROOT
BRANCH   4  14
ATOM     14  N   UNL     1       7.304  12.856  23.264  0.00  0.00    +0.000 N 
ATOM     15  C   UNL     1       5.872  12.807  23.654  0.00  0.00    +0.000 C 
ATOM     16  C   UNL     1       5.631  13.458  25.046  0.00  0.00    +0.000 C 
ATOM     17  N   UNL     1       6.623  13.099  26.117  0.00  0.00    +0.000 NA
ATOM     18  C   UNL     1       7.603  14.198  26.265  0.00  0.00    +0.000 C 
ATOM     19  C   UNL     1       8.551  14.089  25.068  0.00  0.00    +0.000 C 
ATOM     20  C   UNL     1       8.236  12.719  24.431  0.00  0.00    +0.000 C 
ATOM     21  C   UNL     1       7.507  12.016  25.602  0.00  0.00    +0.000 C 
ENDBRANCH   4  14
BRANCH   1  22
ATOM     22  N   UNL     1       7.392  17.211  21.060  0.00  0.00    +0.000 N 
ATOM     23  H   UNL     1       7.348  17.580  22.007  0.00  0.00    +0.000 HD
ATOM     24  H   UNL     1       6.569  17.443  20.495  0.00  0.00    +0.000 HD
ENDBRANCH   1  22
BRANCH  13  25
ATOM     25  C   UNL     1      10.795  12.240  19.282  0.00  0.00    +0.000 C 
ATOM     26  C   UNL     1      10.257  11.132  18.396  0.00  0.00    +0.000 C 
ATOM     27  C   UNL     1      11.619  11.685  18.149  0.00  0.00    +0.000 C 
ENDBRANCH  13  25
BRANCH  11  28
ATOM     28  C   UNL     1      10.783  16.505  16.971  0.00  0.00    +0.000 C 
ATOM     29  O   UNL     1      11.337  17.582  17.145  0.00  0.00    +0.000 OA
BRANCH  28  30
ATOM     30  O   UNL     1      10.654  15.961  15.744  0.00  0.00    +0.000 OA
ATOM     31  H   UNL     1      10.291  16.580  15.062  0.00  0.00    +0.000 HD
ENDBRANCH  28  30
ENDBRANCH  11  28
TORSDOF 5
ENDMDL
MODEL 6
REMARK VINA RESULT:      -5.9      5.525      9.747
REMARK  Name = 
REMARK  5 active torsions:
REMARK  status: ('A' for Active; 'I' for Inactive)
REMARK    1  A    between atoms: N_1  and  C_2
REMARK    2  A    between atoms: C_5  and  N_6
REMARK    3  A    between atoms: C_20  and  C_21
REMARK    4  A    between atoms: C_21  and  O_23
REMARK    5  A    between atoms: N_25  and  C_26
REMARK                            x       y       z     vdW  Elec       q    Type
REMARK                         _______ _______ _______ _____ _____    ______ ____
ROOT
ATOM      1  C   UNL     1      -1.931  12.861  21.894  0.00  0.00    +0.000 A 
ATOM      2  C   UNL     1      -3.172  13.516  21.969  0.00  0.00    +0.000 A 
ATOM      3  F   UNL     1      -3.423  14.186  23.108  0.00  0.00    +0.000 F 
ATOM      4  C   UNL     1      -4.143  13.462  20.956  0.00  0.00    +0.000 A 
ATOM      5  C   UNL     1      -3.816  12.659  19.835  0.00  0.00    +0.000 A 
ATOM      6  F   UNL     1      -4.676  12.669  18.802  0.00  0.00    +0.000 F 
ATOM      7  C   UNL     1      -2.627  11.891  19.744  0.00  0.00    +0.000 A 
ATOM      8  C   UNL     1      -1.686  12.025  20.787  0.00  0.00    +0.000 A 
ATOM      9  C   UNL     1      -0.381  11.309  20.694  0.00  0.00    +0.000 A 
ATOM     10  O   UNL     1       0.530  11.489  21.504  0.00  0.00    +0.000 OA
ATOM     11  C   UNL     1      -0.154  10.380  19.573  0.00  0.00    +0.000 A 
ATOM     12  C   UNL     1      -1.129  10.295  18.658  0.00  0.00    +0.000 A 
ATOM     13  N   UNL     1      -2.339  10.971  18.678  0.00  0.00    +0.000 N 
ENDROOT
BRANCH   4  14
ATOM     14  N   UNL     1      -5.384  14.121  21.050  0.00  0.00    +0.000 N 
ATOM     15  C   UNL     1      -5.452  15.545  21.461  0.00  0.00    +0.000 C 
ATOM     16  C   UNL     1      -6.106  15.710  22.863  0.00  0.00    +0.000 C 
ATOM     17  N   UNL     1      -7.341  14.888  23.109  0.00  0.00    +0.000 NA
ATOM     18  C   UNL     1      -6.983  13.694  23.905  0.00  0.00    +0.000 C 
ATOM     19  C   UNL     1      -6.290  12.729  22.939  0.00  0.00    +0.000 C 
ATOM     20  C   UNL     1      -6.550  13.312  21.535  0.00  0.00    +0.000 C 
ATOM     21  C   UNL     1      -7.748  14.248  21.826  0.00  0.00    +0.000 C 
ENDBRANCH   4  14
BRANCH   1  22
ATOM     22  N   UNL     1      -1.107  12.866  23.040  0.00  0.00    +0.000 N 
ATOM     23  H   UNL     1      -1.365  12.163  23.728  0.00  0.00    +0.000 HD
ATOM     24  H   UNL     1      -0.976  13.799  23.443  0.00  0.00    +0.000 HD
ENDBRANCH   1  22
BRANCH  13  25
ATOM     25  C   UNL     1      -3.255  10.712  17.545  0.00  0.00    +0.000 C 
ATOM     26  C   UNL     1      -2.946  11.241  16.157  0.00  0.00    +0.000 C 
ATOM     27  C   UNL     1      -2.935   9.772  16.412  0.00  0.00    +0.000 C 
ENDBRANCH  13  25
BRANCH  11  28
ATOM     28  C   UNL     1       1.072   9.572  19.418  0.00  0.00    +0.000 C 
ATOM     29  O   UNL     1       1.779   9.608  18.420  0.00  0.00    +0.000 OA
BRANCH  28  30
ATOM     30  O   UNL     1       1.361   8.774  20.467  0.00  0.00    +0.000 OA
ATOM     31  H   UNL     1       1.421   9.248  21.333  0.00  0.00    +0.000 HD
ENDBRANCH  28  30
ENDBRANCH  11  28
TORSDOF 5
ENDMDL
MODEL 7
REMARK VINA RESULT:      -5.8      6.148     10.331
REMARK  Name = 
REMARK  5 active torsions:
REMARK  status: ('A' for Active; 'I' for Inactive)
REMARK    1  A    between atoms: N_1  and  C_2
REMARK    2  A    between atoms: C_5  and  N_6
REMARK    3  A    between atoms: C_20  and  C_21
REMARK    4  A    between atoms: C_21  and  O_23
REMARK    5  A    between atoms: N_25  and  C_26
REMARK                            x       y       z     vdW  Elec       q    Type
REMARK                         _______ _______ _______ _____ _____    ______ ____
ROOT
ATOM      1  C   UNL     1      -5.656  12.821  19.516  0.00  0.00    +0.000 A 
ATOM      2  C   UNL     1      -5.720  13.429  20.781  0.00  0.00    +0.000 A 
ATOM      3  F   UNL     1      -6.871  14.058  21.082  0.00  0.00    +0.000 F 
ATOM      4  C   UNL     1      -4.651  13.445  21.692  0.00  0.00    +0.000 A 
ATOM      5  C   UNL     1      -3.455  12.830  21.245  0.00  0.00    +0.000 A 
ATOM      6  F   UNL     1      -2.447  12.735  22.130  0.00  0.00    +0.000 F 
ATOM      7  C   UNL     1      -3.293  12.291  19.943  0.00  0.00    +0.000 A 
ATOM      8  C   UNL     1      -4.423  12.283  19.098  0.00  0.00    +0.000 A 
ATOM      9  C   UNL     1      -4.328  11.645  17.753  0.00  0.00    +0.000 A 
ATOM     10  O   UNL     1      -5.311  11.490  17.026  0.00  0.00    +0.000 OA
ATOM     11  C   UNL     1      -3.021  11.146  17.289  0.00  0.00    +0.000 A 
ATOM     12  C   UNL     1      -2.003  11.239  18.154  0.00  0.00    +0.000 A 
ATOM     13  N   UNL     1      -2.051  11.783  19.428  0.00  0.00    +0.000 N 
ENDROOT
BRANCH   4  14
ATOM     14  N   UNL     1      -4.731  14.064  22.954  0.00  0.00    +0.000 N 
ATOM     15  C   UNL     1      -5.951  13.923  23.787  0.00  0.00    +0.000 C 
ATOM     16  C   UNL     1      -6.723  15.267  23.912  0.00  0.00    +0.000 C 
ATOM     17  N   UNL     1      -5.878  16.484  24.173  0.00  0.00    +0.000 NA
ATOM     18  C   UNL     1      -5.682  17.224  22.907  0.00  0.00    +0.000 C 
ATOM     19  C   UNL     1      -4.648  16.430  22.104  0.00  0.00    +0.000 C 
ATOM     20  C   UNL     1      -4.071  15.403  23.100  0.00  0.00    +0.000 C 
ATOM     21  C   UNL     1      -4.482  16.043  24.448  0.00  0.00    +0.000 C 
ENDBRANCH   4  14
BRANCH   1  22
ATOM     22  N   UNL     1      -6.742  13.007  18.634  0.00  0.00    +0.000 N 
ATOM     23  H   UNL     1      -6.529  12.760  17.670  0.00  0.00    +0.000 HD
ATOM     24  H   UNL     1      -7.190  13.924  18.728  0.00  0.00    +0.000 HD
ENDBRANCH   1  22
BRANCH  13  25
ATOM     25  C   UNL     1      -0.786  11.767  20.197  0.00  0.00    +0.000 C 
ATOM     26  C   UNL     1      -0.341  10.519  20.938  0.00  0.00    +0.000 C 
ATOM     27  C   UNL     1       0.442  11.008  19.767  0.00  0.00    +0.000 C 
ENDBRANCH  13  25
BRANCH  11  28
ATOM     28  C   UNL     1      -2.801  10.557  15.954  0.00  0.00    +0.000 C 
ATOM     29  O   UNL     1      -2.247   9.480  15.777  0.00  0.00    +0.000 OA
BRANCH  28  30
ATOM     30  O   UNL     1      -3.252  11.302  14.924  0.00  0.00    +0.000 OA
ATOM     31  H   UNL     1      -2.567  11.887  14.515  0.00  0.00    +0.000 HD
ENDBRANCH  28  30
ENDBRANCH  11  28
TORSDOF 5
ENDMDL
MODEL 8
REMARK VINA RESULT:      -5.8      5.194      9.142
REMARK  Name = 
REMARK  5 active torsions:
REMARK  status: ('A' for Active; 'I' for Inactive)
REMARK    1  A    between atoms: N_1  and  C_2
REMARK    2  A    between atoms: C_5  and  N_6
REMARK    3  A    between atoms: C_20  and  C_21
REMARK    4  A    between atoms: C_21  and  O_23
REMARK    5  A    between atoms: N_25  and  C_26
REMARK                            x       y       z     vdW  Elec       q    Type
REMARK                         _______ _______ _______ _____ _____    ______ ____
ROOT
ATOM      1  C   UNL     1      -4.330  12.682  19.497  0.00  0.00    +0.000 A 
ATOM      2  C   UNL     1      -3.925  13.089  20.779  0.00  0.00    +0.000 A 
ATOM      3  F   UNL     1      -4.715  13.987  21.396  0.00  0.00    +0.000 F 
ATOM      4  C   UNL     1      -2.746  12.645  21.401  0.00  0.00    +0.000 A 
ATOM      5  C   UNL     1      -1.940  11.769  20.633  0.00  0.00    +0.000 A 
ATOM      6  F   UNL     1      -0.860  11.243  21.236  0.00  0.00    +0.000 F 
ATOM      7  C   UNL     1      -2.240  11.402  19.296  0.00  0.00    +0.000 A 
ATOM      8  C   UNL     1      -3.459  11.862  18.754  0.00  0.00    +0.000 A 
ATOM      9  C   UNL     1      -3.862  11.429  17.384  0.00  0.00    +0.000 A 
ATOM     10  O   UNL     1      -4.969  11.689  16.909  0.00  0.00    +0.000 OA
ATOM     11  C   UNL     1      -2.919  10.630  16.581  0.00  0.00    +0.000 A 
ATOM     12  C   UNL     1      -1.771  10.282  17.176  0.00  0.00    +0.000 A 
ATOM     13  N   UNL     1      -1.371  10.622  18.458  0.00  0.00    +0.000 N 
ENDROOT
BRANCH   4  14
ATOM     14  N   UNL     1      -2.354  13.067  22.685  0.00  0.00    +0.000 N 
ATOM     15  C   UNL     1      -3.316  13.039  23.815  0.00  0.00    +0.000 C 
ATOM     16  C   UNL     1      -3.701  14.472  24.281  0.00  0.00    +0.000 C 
ATOM     17  N   UNL     1      -2.563  15.449  24.402  0.00  0.00    +0.000 NA
ATOM     18  C   UNL     1      -2.539  16.321  23.208  0.00  0.00    +0.000 C 
ATOM     19  C   UNL     1      -1.956  15.475  22.072  0.00  0.00    +0.000 C 
ATOM     20  C   UNL     1      -1.391  14.215  22.761  0.00  0.00    +0.000 C 
ATOM     21  C   UNL     1      -1.282  14.709  24.224  0.00  0.00    +0.000 C 
ENDBRANCH   4  14
BRANCH   1  22
ATOM     22  N   UNL     1      -5.452  13.317  18.922  0.00  0.00    +0.000 N 
ATOM     23  H   UNL     1      -5.233  14.207  18.481  0.00  0.00    +0.000 HD
ATOM     24  H   UNL     1      -6.260  13.363  19.551  0.00  0.00    +0.000 HD
ENDBRANCH   1  22
BRANCH  13  25
ATOM     25  C   UNL     1      -0.052  10.109  18.892  0.00  0.00    +0.000 C 
ATOM     26  C   UNL     1       0.948   9.578  17.883  0.00  0.00    +0.000 C 
ATOM     27  C   UNL     1       1.248  10.828  18.638  0.00  0.00    +0.000 C 
ENDBRANCH  13  25
BRANCH  11  28
ATOM     28  C   UNL     1      -3.188  10.204  15.193  0.00  0.00    +0.000 C 
ATOM     29  O   UNL     1      -2.309  10.044  14.357  0.00  0.00    +0.000 OA
BRANCH  28  30
ATOM     30  O   UNL     1      -4.490  10.007  14.903  0.00  0.00    +0.000 OA
ATOM     31  H   UNL     1      -4.908  10.743  14.390  0.00  0.00    +0.000 HD
ENDBRANCH  28  30
ENDBRANCH  11  28
TORSDOF 5
ENDMDL
MODEL 9
REMARK VINA RESULT:      -5.7      6.947      9.215
REMARK  Name = 
REMARK  5 active torsions:
REMARK  status: ('A' for Active; 'I' for Inactive)
REMARK    1  A    between atoms: N_1  and  C_2
REMARK    2  A    between atoms: C_5  and  N_6
REMARK    3  A    between atoms: C_20  and  C_21
REMARK    4  A    between atoms: C_21  and  O_23
REMARK    5  A    between atoms: N_25  and  C_26
REMARK                            x       y       z     vdW  Elec       q    Type
REMARK                         _______ _______ _______ _____ _____    ______ ____
ROOT
ATOM      1  C   UNL     1      -2.067  13.313  22.892  0.00  0.00    +0.000 A 
ATOM      2  C   UNL     1      -1.026  13.251  21.951  0.00  0.00    +0.000 A 
ATOM      3  F   UNL     1       0.192  13.627  22.384  0.00  0.00    +0.000 F 
ATOM      4  C   UNL     1      -1.209  12.870  20.611  0.00  0.00    +0.000 A 
ATOM      5  C   UNL     1      -2.544  12.578  20.234  0.00  0.00    +0.000 A 
ATOM      6  F   UNL     1      -2.739  12.110  18.990  0.00  0.00    +0.000 F 
ATOM      7  C   UNL     1      -3.652  12.721  21.108  0.00  0.00    +0.000 A 
ATOM      8  C   UNL     1      -3.381  13.076  22.447  0.00  0.00    +0.000 A 
ATOM      9  C   UNL     1      -4.504  13.150  23.426  0.00  0.00    +0.000 A 
ATOM     10  O   UNL     1      -4.318  13.324  24.632  0.00  0.00    +0.000 OA
ATOM     11  C   UNL     1      -5.886  12.971  22.945  0.00  0.00    +0.000 A 
ATOM     12  C   UNL     1      -6.035  12.679  21.646  0.00  0.00    +0.000 A 
ATOM     13  N   UNL     1      -5.022  12.557  20.708  0.00  0.00    +0.000 N 
ENDROOT
BRANCH   4  14
ATOM     14  N   UNL     1      -0.155  12.819  19.680  0.00  0.00    +0.000 N 
ATOM     15  C   UNL     1       1.133  12.172  20.034  0.00  0.00    +0.000 C 
ATOM     16  C   UNL     1       2.286  13.209  20.152  0.00  0.00    +0.000 C 
ATOM     17  N   UNL     1       2.342  14.251  19.070  0.00  0.00    +0.000 NA
ATOM     18  C   UNL     1       1.752  15.510  19.572  0.00  0.00    +0.000 C 
ATOM     19  C   UNL     1       0.235  15.302  19.571  0.00  0.00    +0.000 C 
ATOM     20  C   UNL     1       0.011  14.001  18.772  0.00  0.00    +0.000 C 
ATOM     21  C   UNL     1       1.356  13.891  18.013  0.00  0.00    +0.000 C 
ENDBRANCH   4  14
BRANCH   1  22
ATOM     22  N   UNL     1      -1.782  13.858  24.164  0.00  0.00    +0.000 N 
ATOM     23  H   UNL     1      -0.972  14.473  24.169  0.00  0.00    +0.000 HD
ATOM     24  H   UNL     1      -1.764  13.157  24.912  0.00  0.00    +0.000 HD
ENDBRANCH   1  22
BRANCH  13  25
ATOM     25  C   UNL     1      -5.442  12.221  19.329  0.00  0.00    +0.000 C 
ATOM     26  C   UNL     1      -5.953  10.834  18.986  0.00  0.00    +0.000 C 
ATOM     27  C   UNL     1      -6.877  12.002  18.923  0.00  0.00    +0.000 C 
ENDBRANCH  13  25
BRANCH  11  28
ATOM     28  C   UNL     1      -7.073  13.089  23.814  0.00  0.00    +0.000 C 
ATOM     29  O   UNL     1      -7.916  12.208  23.923  0.00  0.00    +0.000 OA
BRANCH  28  30
ATOM     30  O   UNL     1      -7.172  14.254  24.485  0.00  0.00    +0.000 OA
ATOM     31  H   UNL     1      -6.388  14.849  24.383  0.00  0.00    +0.000 HD
ENDBRANCH  28  30
ENDBRANCH  11  28
TORSDOF 5
ENDMDL
