MODEL 1
REMARK VINA RESULT:      -7.3      0.000      0.000
REMARK  Name = 
REMARK  8 active torsions:
REMARK  status: ('A' for Active; 'I' for Inactive)
REMARK    1  A    between atoms: C_1  and  O_2
REMARK    2  A    between atoms: O_2  and  C_3
REMARK    3  A    between atoms: C_6  and  C_7
REMARK    4  A    between atoms: C_7  and  C_8
REMARK    5  A    between atoms: C_11  and  C_12
REMARK    6  A    between atoms: C_12  and  O_14
REMARK    7  A    between atoms: N_27  and  C_28
REMARK    8  A    between atoms: C_28  and  C_29
REMARK                            x       y       z     vdW  Elec       q    Type
REMARK                         _______ _______ _______ _____ _____    ______ ____
ROOT
ATOM      1  C   UNL     1      -1.148  12.886  23.062  0.00  0.00    +0.000 C 
ATOM      2  C   UNL     1      -1.484  11.621  22.250  0.00  0.00    +0.000 C 
ATOM      3  C   UNL     1      -1.208  14.346  23.627  0.00  0.00    +0.000 A 
ATOM      4  C   UNL     1      -1.413  14.840  24.989  0.00  0.00    +0.000 A 
ATOM      5  C   UNL     1      -1.133  16.205  25.124  0.00  0.00    +0.000 A 
ATOM      6  S   UNL     1      -0.604  16.860  23.623  0.00  0.00    +0.000 S 
ATOM      7  C   UNL     1      -0.969  15.447  22.780  0.00  0.00    +0.000 A 
ATOM      8  C   UNL     1      -0.864  15.369  21.297  0.00  0.00    +0.000 C 
ATOM      9  O   UNL     1      -0.768  16.320  20.532  0.00  0.00    +0.000 OA
ATOM     10  C   UNL     1      -0.691  13.924  20.949  0.00  0.00    +0.000 A 
ATOM     11  C   UNL     1       0.152  13.346  21.913  0.00  0.00    +0.000 A 
ATOM     12  C   UNL     1       1.268  13.754  20.853  0.00  0.00    +0.000 A 
ATOM     13  C   UNL     1       2.595  14.363  20.877  0.00  0.00    +0.000 A 
ATOM     14  C   UNL     1       3.123  14.987  19.668  0.00  0.00    +0.000 A 
ATOM     15  C   UNL     1       2.448  15.000  18.439  0.00  0.00    +0.000 A 
ATOM     16  C   UNL     1       1.237  14.384  18.355  0.00  0.00    +0.000 A 
ATOM     17  C   UNL     1       0.760  13.795  19.550  0.00  0.00    +0.000 A 
ATOM     18  N   UNL     1      -0.433  13.201  19.763  0.00  0.00    +0.000 N 
ENDROOT
BRANCH   1  22
ATOM     19  C   UNL     1      -5.961  13.421  22.990  0.00  0.00    +0.000 A 
ATOM     20  C   UNL     1      -5.277  12.832  24.045  0.00  0.00    +0.000 A 
ATOM     21  C   UNL     1      -3.836  12.763  24.075  0.00  0.00    +0.000 A 
ATOM     22  C   UNL     1      -2.982  13.132  22.959  0.00  0.00    +0.000 A 
ATOM     23  C   UNL     1      -3.743  13.756  21.930  0.00  0.00    +0.000 A 
ATOM     24  C   UNL     1      -5.179  13.929  21.963  0.00  0.00    +0.000 A 
BRANCH  19  26
ATOM     25  C   UNL     1      -7.915  14.410  23.971  0.00  0.00    +0.000 C 
ATOM     26  O   UNL     1      -7.326  13.450  23.094  0.00  0.00    +0.000 OA
ENDBRANCH  19  26
ENDBRANCH   1  22
BRANCH   5  27
ATOM     27  C   UNL     1      -1.224  17.100  26.284  0.00  0.00    +0.000 C 
ATOM     28  O   UNL     1      -1.626  18.255  26.281  0.00  0.00    +0.000 OA
BRANCH  27  29
ATOM     29  O   UNL     1      -0.778  16.525  27.442  0.00  0.00    +0.000 OA
ATOM     30  H   UNL     1      -1.283  16.815  28.229  0.00  0.00    +0.000 HD
ENDBRANCH  27  29
ENDBRANCH   5  27
BRANCH  18  31
ATOM     31  C   UNL     1      -0.372  11.719  19.424  0.00  0.00    +0.000 C 
BRANCH  31  32
ATOM     32  C   UNL     1      -1.497  11.141  18.603  0.00  0.00    +0.000 A 
ATOM     33  C   UNL     1      -1.302  10.092  17.703  0.00  0.00    +0.000 A 
ATOM     34  C   UNL     1      -2.308   9.750  16.797  0.00  0.00    +0.000 A 
ATOM     35  C   UNL     1      -3.507  10.458  16.778  0.00  0.00    +0.000 A 
ATOM     36  C   UNL     1      -3.755  11.424  17.749  0.00  0.00    +0.000 A 
ATOM     37  C   UNL     1      -2.781  11.716  18.702  0.00  0.00    +0.000 A 
ENDBRANCH  31  32
ENDBRANCH  18  31
TORSDOF 6
ENDMDL
MODEL 2
REMARK VINA RESULT:      -6.8      0.696      1.055
REMARK  Name = 
REMARK  8 active torsions:
REMARK  status: ('A' for Active; 'I' for Inactive)
REMARK    1  A    between atoms: C_1  and  O_2
REMARK    2  A    between atoms: O_2  and  C_3
REMARK    3  A    between atoms: C_6  and  C_7
REMARK    4  A    between atoms: C_7  and  C_8
REMARK    5  A    between atoms: C_11  and  C_12
REMARK    6  A    between atoms: C_12  and  O_14
REMARK    7  A    between atoms: N_27  and  C_28
REMARK    8  A    between atoms: C_28  and  C_29
REMARK                            x       y       z     vdW  Elec       q    Type
REMARK                         _______ _______ _______ _____ _____    ______ ____
ROOT
ATOM      1  C   UNL     1      -1.400  12.858  23.045  0.00  0.00    +0.000 C 
ATOM      2  C   UNL     1      -1.863  11.608  22.273  0.00  0.00    +0.000 C 
ATOM      3  C   UNL     1      -1.300  14.338  23.549  0.00  0.00    +0.000 A 
ATOM      4  C   UNL     1      -1.482  14.911  24.883  0.00  0.00    +0.000 A 
ATOM      5  C   UNL     1      -1.044  16.238  24.972  0.00  0.00    +0.000 A 
ATOM      6  S   UNL     1      -0.397  16.760  23.465  0.00  0.00    +0.000 S 
ATOM      7  C   UNL     1      -0.906  15.365  22.667  0.00  0.00    +0.000 A 
ATOM      8  C   UNL     1      -0.768  15.210  21.193  0.00  0.00    +0.000 C 
ATOM      9  O   UNL     1      -0.536  16.109  20.395  0.00  0.00    +0.000 OA
ATOM     10  C   UNL     1      -0.760  13.741  20.909  0.00  0.00    +0.000 A 
ATOM     11  C   UNL     1      -0.021  13.109  21.922  0.00  0.00    +0.000 A 
ATOM     12  C   UNL     1       1.165  13.335  20.885  0.00  0.00    +0.000 A 
ATOM     13  C   UNL     1       2.555  13.781  20.930  0.00  0.00    +0.000 A 
ATOM     14  C   UNL     1       3.189  14.285  19.715  0.00  0.00    +0.000 A 
ATOM     15  C   UNL     1       2.556  14.324  18.465  0.00  0.00    +0.000 A 
ATOM     16  C   UNL     1       1.282  13.854  18.364  0.00  0.00    +0.000 A 
ATOM     17  C   UNL     1       0.704  13.379  19.566  0.00  0.00    +0.000 A 
ATOM     18  N   UNL     1      -0.558  12.941  19.762  0.00  0.00    +0.000 N 
ENDROOT
BRANCH   1  22
ATOM     19  C   UNL     1      -6.033  14.094  22.369  0.00  0.00    +0.000 A 
ATOM     20  C   UNL     1      -5.109  14.014  21.336  0.00  0.00    +0.000 A 
ATOM     21  C   UNL     1      -3.757  13.562  21.557  0.00  0.00    +0.000 A 
ATOM     22  C   UNL     1      -3.187  13.317  22.871  0.00  0.00    +0.000 A 
ATOM     23  C   UNL     1      -4.194  13.385  23.875  0.00  0.00    +0.000 A 
ATOM     24  C   UNL     1      -5.578  13.724  23.625  0.00  0.00    +0.000 A 
BRANCH  19  26
ATOM     25  C   UNL     1      -7.861  14.009  20.816  0.00  0.00    +0.000 C 
ATOM     26  O   UNL     1      -7.292  14.510  22.025  0.00  0.00    +0.000 OA
ENDBRANCH  19  26
ENDBRANCH   1  22
BRANCH   5  27
ATOM     27  C   UNL     1      -1.059  17.187  26.093  0.00  0.00    +0.000 C 
ATOM     28  O   UNL     1      -1.689  18.235  26.149  0.00  0.00    +0.000 OA
BRANCH  27  29
ATOM     29  O   UNL     1      -0.251  16.808  27.128  0.00  0.00    +0.000 OA
ATOM     30  H   UNL     1       0.526  17.394  27.237  0.00  0.00    +0.000 HD
ENDBRANCH  27  29
ENDBRANCH   5  27
BRANCH  18  31
ATOM     31  C   UNL     1      -0.667  11.449  19.484  0.00  0.00    +0.000 C 
BRANCH  31  32
ATOM     32  C   UNL     1      -1.730  10.992  18.518  0.00  0.00    +0.000 A 
ATOM     33  C   UNL     1      -1.479  10.043  17.526  0.00  0.00    +0.000 A 
ATOM     34  C   UNL     1      -2.413   9.826  16.511  0.00  0.00    +0.000 A 
ATOM     35  C   UNL     1      -3.596  10.561  16.475  0.00  0.00    +0.000 A 
ATOM     36  C   UNL     1      -3.907  11.421  17.525  0.00  0.00    +0.000 A 
ATOM     37  C   UNL     1      -3.009  11.584  18.578  0.00  0.00    +0.000 A 
ENDBRANCH  31  32
ENDBRANCH  18  31
TORSDOF 6
ENDMDL
MODEL 3
REMARK VINA RESULT:      -6.8      3.562      6.625
REMARK  Name = 
REMARK  8 active torsions:
REMARK  status: ('A' for Active; 'I' for Inactive)
REMARK    1  A    between atoms: C_1  and  O_2
REMARK    2  A    between atoms: O_2  and  C_3
REMARK    3  A    between atoms: C_6  and  C_7
REMARK    4  A    between atoms: C_7  and  C_8
REMARK    5  A    between atoms: C_11  and  C_12
REMARK    6  A    between atoms: C_12  and  O_14
REMARK    7  A    between atoms: N_27  and  C_28
REMARK    8  A    between atoms: C_28  and  C_29
REMARK                            x       y       z     vdW  Elec       q    Type
REMARK                         _______ _______ _______ _____ _____    ______ ____
ROOT
ATOM      1  C   UNL     1      -0.742  13.657  20.383  0.00  0.00    +0.000 C 
ATOM      2  C   UNL     1      -1.365  14.844  19.624  0.00  0.00    +0.000 C 
ATOM      3  C   UNL     1      -0.563  12.248  21.043  0.00  0.00    +0.000 A 
ATOM      4  C   UNL     1       0.394  11.175  20.770  0.00  0.00    +0.000 A 
ATOM      5  C   UNL     1       0.398  10.181  21.757  0.00  0.00    +0.000 A 
ATOM      6  S   UNL     1      -0.725  10.568  23.003  0.00  0.00    +0.000 S 
ATOM      7  C   UNL     1      -1.361  11.871  22.143  0.00  0.00    +0.000 A 
ATOM      8  C   UNL     1      -2.546  12.628  22.630  0.00  0.00    +0.000 C 
ATOM      9  O   UNL     1      -3.318  12.267  23.508  0.00  0.00    +0.000 OA
ATOM     10  C   UNL     1      -2.487  13.982  21.995  0.00  0.00    +0.000 A 
ATOM     11  C   UNL     1      -1.143  14.390  21.972  0.00  0.00    +0.000 A 
ATOM     12  C   UNL     1      -1.552  15.041  23.366  0.00  0.00    +0.000 A 
ATOM     13  C   UNL     1      -0.977  15.157  24.703  0.00  0.00    +0.000 A 
ATOM     14  C   UNL     1      -1.847  15.440  25.840  0.00  0.00    +0.000 A 
ATOM     15  C   UNL     1      -3.227  15.664  25.729  0.00  0.00    +0.000 A 
ATOM     16  C   UNL     1      -3.794  15.632  24.491  0.00  0.00    +0.000 A 
ATOM     17  C   UNL     1      -2.915  15.350  23.418  0.00  0.00    +0.000 A 
ATOM     18  N   UNL     1      -3.226  15.180  22.115  0.00  0.00    +0.000 N 
ENDROOT
BRANCH   1  22
ATOM     19  C   UNL     1      -3.321  11.098  17.181  0.00  0.00    +0.000 A 
ATOM     20  C   UNL     1      -1.977  11.401  17.006  0.00  0.00    +0.000 A 
ATOM     21  C   UNL     1      -1.215  12.093  18.017  0.00  0.00    +0.000 A 
ATOM     22  C   UNL     1      -1.796  12.682  19.212  0.00  0.00    +0.000 A 
ATOM     23  C   UNL     1      -3.163  12.306  19.342  0.00  0.00    +0.000 A 
ATOM     24  C   UNL     1      -3.889  11.508  18.377  0.00  0.00    +0.000 A 
BRANCH  19  26
ATOM     25  C   UNL     1      -3.143  10.087  15.012  0.00  0.00    +0.000 C 
ATOM     26  O   UNL     1      -3.925  10.412  16.161  0.00  0.00    +0.000 OA
ENDBRANCH  19  26
ENDBRANCH   1  22
BRANCH   5  27
ATOM     27  C   UNL     1       1.168   8.936  21.871  0.00  0.00    +0.000 C 
ATOM     28  O   UNL     1       0.972   7.901  21.249  0.00  0.00    +0.000 OA
BRANCH  27  29
ATOM     29  O   UNL     1       2.171   9.009  22.798  0.00  0.00    +0.000 OA
ATOM     30  H   UNL     1       3.049   8.791  22.424  0.00  0.00    +0.000 HD
ENDBRANCH  27  29
ENDBRANCH   5  27
BRANCH  18  31
ATOM     31  C   UNL     1      -3.210  16.508  21.372  0.00  0.00    +0.000 C 
BRANCH  31  32
ATOM     32  C   UNL     1      -4.353  16.799  20.433  0.00  0.00    +0.000 A 
ATOM     33  C   UNL     1      -5.372  15.878  20.190  0.00  0.00    +0.000 A 
ATOM     34  C   UNL     1      -6.272  16.088  19.143  0.00  0.00    +0.000 A 
ATOM     35  C   UNL     1      -6.154  17.213  18.330  0.00  0.00    +0.000 A 
ATOM     36  C   UNL     1      -5.217  18.195  18.640  0.00  0.00    +0.000 A 
ATOM     37  C   UNL     1      -4.366  18.021  19.730  0.00  0.00    +0.000 A 
ENDBRANCH  31  32
ENDBRANCH  18  31
TORSDOF 6
ENDMDL
MODEL 4
REMARK VINA RESULT:      -6.6      2.949      7.026
REMARK  Name = 
REMARK  8 active torsions:
REMARK  status: ('A' for Active; 'I' for Inactive)
REMARK    1  A    between atoms: C_1  and  O_2
REMARK    2  A    between atoms: O_2  and  C_3
REMARK    3  A    between atoms: C_6  and  C_7
REMARK    4  A    between atoms: C_7  and  C_8
REMARK    5  A    between atoms: C_11  and  C_12
REMARK    6  A    between atoms: C_12  and  O_14
REMARK    7  A    between atoms: N_27  and  C_28
REMARK    8  A    between atoms: C_28  and  C_29
REMARK                            x       y       z     vdW  Elec       q    Type
REMARK                         _______ _______ _______ _____ _____    ______ ____
ROOT
ATOM      1  C   UNL     1      -0.993  12.699  19.077  0.00  0.00    +0.000 C 
ATOM      2  C   UNL     1      -2.225  11.794  19.265  0.00  0.00    +0.000 C 
ATOM      3  C   UNL     1       0.437  13.314  19.253  0.00  0.00    +0.000 A 
ATOM      4  C   UNL     1       1.548  13.443  18.309  0.00  0.00    +0.000 A 
ATOM      5  C   UNL     1       2.563  14.291  18.771  0.00  0.00    +0.000 A 
ATOM      6  S   UNL     1       2.149  14.938  20.311  0.00  0.00    +0.000 S 
ATOM      7  C   UNL     1       0.799  13.940  20.463  0.00  0.00    +0.000 A 
ATOM      8  C   UNL     1      -0.004  13.892  21.716  0.00  0.00    +0.000 C 
ATOM      9  O   UNL     1       0.338  14.331  22.806  0.00  0.00    +0.000 OA
ATOM     10  C   UNL     1      -1.367  13.402  21.339  0.00  0.00    +0.000 A 
ATOM     11  C   UNL     1      -1.711  13.983  20.107  0.00  0.00    +0.000 A 
ATOM     12  C   UNL     1      -2.350  15.085  21.063  0.00  0.00    +0.000 A 
ATOM     13  C   UNL     1      -2.409  16.542  21.126  0.00  0.00    +0.000 A 
ATOM     14  C   UNL     1      -2.709  17.197  22.395  0.00  0.00    +0.000 A 
ATOM     15  C   UNL     1      -3.001  16.504  23.579  0.00  0.00    +0.000 A 
ATOM     16  C   UNL     1      -3.024  15.143  23.549  0.00  0.00    +0.000 A 
ATOM     17  C   UNL     1      -2.723  14.550  22.300  0.00  0.00    +0.000 A 
ATOM     18  N   UNL     1      -2.596  13.236  22.015  0.00  0.00    +0.000 N 
ENDROOT
BRANCH   1  22
ATOM     19  C   UNL     1       1.402   8.613  20.082  0.00  0.00    +0.000 A 
ATOM     20  C   UNL     1       1.320   9.151  18.806  0.00  0.00    +0.000 A 
ATOM     21  C   UNL     1       0.670  10.414  18.552  0.00  0.00    +0.000 A 
ATOM     22  C   UNL     1      -0.096  11.148  19.545  0.00  0.00    +0.000 A 
ATOM     23  C   UNL     1       0.058  10.559  20.833  0.00  0.00    +0.000 A 
ATOM     24  C   UNL     1       0.814   9.353  21.097  0.00  0.00    +0.000 A 
BRANCH  19  26
ATOM     25  C   UNL     1       2.584   6.822  19.009  0.00  0.00    +0.000 C 
ATOM     26  O   UNL     1       2.069   7.422  20.197  0.00  0.00    +0.000 OA
ENDBRANCH  19  26
ENDBRANCH   1  22
BRANCH   5  27
ATOM     27  C   UNL     1       3.845  14.679  18.171  0.00  0.00    +0.000 C 
ATOM     28  O   UNL     1       4.953  14.547  18.675  0.00  0.00    +0.000 OA
BRANCH  27  29
ATOM     29  O   UNL     1       3.709  15.256  16.939  0.00  0.00    +0.000 OA
ATOM     30  H   UNL     1       4.437  15.023  16.328  0.00  0.00    +0.000 HD
ENDBRANCH  27  29
ENDBRANCH   5  27
BRANCH  18  31
ATOM     31  C   UNL     1      -3.937  12.629  21.631  0.00  0.00    +0.000 C 
BRANCH  31  32
ATOM     32  C   UNL     1      -5.160  13.102  22.376  0.00  0.00    +0.000 A 
ATOM     33  C   UNL     1      -5.486  12.633  23.649  0.00  0.00    +0.000 A 
ATOM     34  C   UNL     1      -6.740  12.911  24.199  0.00  0.00    +0.000 A 
ATOM     35  C   UNL     1      -7.675  13.651  23.478  0.00  0.00    +0.000 A 
ATOM     36  C   UNL     1      -7.314  14.222  22.262  0.00  0.00    +0.000 A 
ATOM     37  C   UNL     1      -6.038  14.007  21.745  0.00  0.00    +0.000 A 
ENDBRANCH  31  32
ENDBRANCH  18  31
TORSDOF 6
ENDMDL
MODEL 5
REMARK VINA RESULT:      -6.6      3.000      6.817
REMARK  Name = 
REMARK  8 active torsions:
REMARK  status: ('A' for Active; 'I' for Inactive)
REMARK    1  A    between atoms: C_1  and  O_2
REMARK    2  A    between atoms: O_2  and  C_3
REMARK    3  A    between atoms: C_6  and  C_7
REMARK    4  A    between atoms: C_7  and  C_8
REMARK    5  A    between atoms: C_11  and  C_12
REMARK    6  A    between atoms: C_12  and  O_14
REMARK    7  A    between atoms: N_27  and  C_28
REMARK    8  A    between atoms: C_28  and  C_29
REMARK                            x       y       z     vdW  Elec       q    Type
REMARK                         _______ _______ _______ _____ _____    ______ ____
ROOT
ATOM      1  C   UNL     1      -0.462  13.126  18.990  0.00  0.00    +0.000 C 
ATOM      2  C   UNL     1      -1.791  12.348  18.992  0.00  0.00    +0.000 C 
ATOM      3  C   UNL     1       0.975  13.609  19.385  0.00  0.00    +0.000 A 
ATOM      4  C   UNL     1       2.230  13.601  18.632  0.00  0.00    +0.000 A 
ATOM      5  C   UNL     1       3.236  14.364  19.237  0.00  0.00    +0.000 A 
ATOM      6  S   UNL     1       2.648  15.099  20.678  0.00  0.00    +0.000 S 
ATOM      7  C   UNL     1       1.199  14.239  20.626  0.00  0.00    +0.000 A 
ATOM      8  C   UNL     1       0.205  14.308  21.733  0.00  0.00    +0.000 C 
ATOM      9  O   UNL     1       0.410  14.749  22.856  0.00  0.00    +0.000 OA
ATOM     10  C   UNL     1      -1.122  13.936  21.149  0.00  0.00    +0.000 A 
ATOM     11  C   UNL     1      -1.205  14.506  19.868  0.00  0.00    +0.000 A 
ATOM     12  C   UNL     1      -1.877  15.694  20.687  0.00  0.00    +0.000 A 
ATOM     13  C   UNL     1      -1.802  17.152  20.713  0.00  0.00    +0.000 A 
ATOM     14  C   UNL     1      -2.234  17.874  21.905  0.00  0.00    +0.000 A 
ATOM     15  C   UNL     1      -2.779  17.253  23.038  0.00  0.00    +0.000 A 
ATOM     16  C   UNL     1      -2.930  15.900  23.029  0.00  0.00    +0.000 A 
ATOM     17  C   UNL     1      -2.494  15.238  21.856  0.00  0.00    +0.000 A 
ATOM     18  N   UNL     1      -2.453  13.910  21.620  0.00  0.00    +0.000 N 
ENDROOT
BRANCH   1  22
ATOM     19  C   UNL     1       1.285   8.848  20.437  0.00  0.00    +0.000 A 
ATOM     20  C   UNL     1       1.253   9.246  19.108  0.00  0.00    +0.000 A 
ATOM     21  C   UNL     1       0.804  10.560  18.716  0.00  0.00    +0.000 A 
ATOM     22  C   UNL     1       0.192  11.514  19.626  0.00  0.00    +0.000 A 
ATOM     23  C   UNL     1       0.287  11.056  20.971  0.00  0.00    +0.000 A 
ATOM     24  C   UNL     1       0.850   9.782  21.365  0.00  0.00    +0.000 A 
BRANCH  19  26
ATOM     25  C   UNL     1       2.385   6.883  19.609  0.00  0.00    +0.000 C 
ATOM     26  O   UNL     1       1.759   7.586  20.681  0.00  0.00    +0.000 OA
ENDBRANCH  19  26
ENDBRANCH   1  22
BRANCH   5  27
ATOM     27  C   UNL     1       4.630  14.609  18.846  0.00  0.00    +0.000 C 
ATOM     28  O   UNL     1       5.491  15.151  19.527  0.00  0.00    +0.000 OA
BRANCH  27  29
ATOM     29  O   UNL     1       4.915  14.185  17.578  0.00  0.00    +0.000 OA
ATOM     30  H   UNL     1       4.768  14.879  16.904  0.00  0.00    +0.000 HD
ENDBRANCH  27  29
ENDBRANCH   5  27
BRANCH  18  31
ATOM     31  C   UNL     1      -3.769  13.420  21.034  0.00  0.00    +0.000 C 
BRANCH  31  32
ATOM     32  C   UNL     1      -4.833  12.953  21.995  0.00  0.00    +0.000 A 
ATOM     33  C   UNL     1      -6.171  12.820  21.619  0.00  0.00    +0.000 A 
ATOM     34  C   UNL     1      -7.155  12.619  22.590  0.00  0.00    +0.000 A 
ATOM     35  C   UNL     1      -6.810  12.559  23.939  0.00  0.00    +0.000 A 
ATOM     36  C   UNL     1      -5.468  12.571  24.310  0.00  0.00    +0.000 A 
ATOM     37  C   UNL     1      -4.480  12.697  23.335  0.00  0.00    +0.000 A 
ENDBRANCH  31  32
ENDBRANCH  18  31
TORSDOF 6
ENDMDL
MODEL 6
REMARK VINA RESULT:      -6.6      2.889      8.245
REMARK  Name = 
REMARK  8 active torsions:
REMARK  status: ('A' for Active; 'I' for Inactive)
REMARK    1  A    between atoms: C_1  and  O_2
REMARK    2  A    between atoms: O_2  and  C_3
REMARK    3  A    between atoms: C_6  and  C_7
REMARK    4  A    between atoms: C_7  and  C_8
REMARK    5  A    between atoms: C_11  and  C_12
REMARK    6  A    between atoms: C_12  and  O_14
REMARK    7  A    between atoms: N_27  and  C_28
REMARK    8  A    between atoms: C_28  and  C_29
REMARK                            x       y       z     vdW  Elec       q    Type
REMARK                         _______ _______ _______ _____ _____    ______ ____
ROOT
ATOM      1  C   UNL     1      -2.326  12.576  21.749  0.00  0.00    +0.000 C 
ATOM      2  C   UNL     1      -1.583  13.218  22.936  0.00  0.00    +0.000 C 
ATOM      3  C   UNL     1      -3.018  12.394  20.355  0.00  0.00    +0.000 A 
ATOM      4  C   UNL     1      -2.701  11.506  19.236  0.00  0.00    +0.000 A 
ATOM      5  C   UNL     1      -3.718  11.454  18.274  0.00  0.00    +0.000 A 
ATOM      6  S   UNL     1      -5.042  12.447  18.746  0.00  0.00    +0.000 S 
ATOM      7  C   UNL     1      -4.195  13.106  20.046  0.00  0.00    +0.000 A 
ATOM      8  C   UNL     1      -4.756  14.214  20.867  0.00  0.00    +0.000 C 
ATOM      9  O   UNL     1      -5.710  14.920  20.566  0.00  0.00    +0.000 OA
ATOM     10  C   UNL     1      -4.071  14.159  22.197  0.00  0.00    +0.000 A 
ATOM     11  C   UNL     1      -3.917  12.808  22.548  0.00  0.00    +0.000 A 
ATOM     12  C   UNL     1      -5.318  13.068  23.259  0.00  0.00    +0.000 A 
ATOM     13  C   UNL     1      -6.595  12.373  23.393  0.00  0.00    +0.000 A 
ATOM     14  C   UNL     1      -7.793  13.129  23.747  0.00  0.00    +0.000 A 
ATOM     15  C   UNL     1      -7.793  14.504  24.024  0.00  0.00    +0.000 A 
ATOM     16  C   UNL     1      -6.611  15.178  23.977  0.00  0.00    +0.000 A 
ATOM     17  C   UNL     1      -5.476  14.409  23.625  0.00  0.00    +0.000 A 
ATOM     18  N   UNL     1      -4.212  14.839  23.427  0.00  0.00    +0.000 N 
ENDROOT
BRANCH   1  22
ATOM     19  C   UNL     1       0.544  15.519  19.189  0.00  0.00    +0.000 A 
ATOM     20  C   UNL     1       0.818  14.173  19.386  0.00  0.00    +0.000 A 
ATOM     21  C   UNL     1      -0.099  13.303  20.082  0.00  0.00    +0.000 A 
ATOM     22  C   UNL     1      -1.286  13.766  20.782  0.00  0.00    +0.000 A 
ATOM     23  C   UNL     1      -1.522  15.144  20.511  0.00  0.00    +0.000 A 
ATOM     24  C   UNL     1      -0.655  15.981  19.709  0.00  0.00    +0.000 A 
BRANCH  19  26
ATOM     25  C   UNL     1       2.720  15.595  18.181  0.00  0.00    +0.000 C 
ATOM     26  O   UNL     1       1.480  16.232  18.487  0.00  0.00    +0.000 OA
ENDBRANCH  19  26
ENDBRANCH   1  22
BRANCH   5  27
ATOM     27  C   UNL     1      -3.809  10.725  17.003  0.00  0.00    +0.000 C 
ATOM     28  O   UNL     1      -3.038   9.863  16.603  0.00  0.00    +0.000 OA
BRANCH  27  29
ATOM     29  O   UNL     1      -4.869  11.117  16.234  0.00  0.00    +0.000 OA
ATOM     30  H   UNL     1      -4.813  10.788  15.314  0.00  0.00    +0.000 HD
ENDBRANCH  27  29
ENDBRANCH   5  27
BRANCH  18  31
ATOM     31  C   UNL     1      -3.425  14.837  24.729  0.00  0.00    +0.000 C 
BRANCH  31  32
ATOM     32  C   UNL     1      -2.330  15.862  24.887  0.00  0.00    +0.000 A 
ATOM     33  C   UNL     1      -2.053  16.816  23.907  0.00  0.00    +0.000 A 
ATOM     34  C   UNL     1      -0.890  17.584  23.984  0.00  0.00    +0.000 A 
ATOM     35  C   UNL     1       0.006  17.398  25.035  0.00  0.00    +0.000 A 
ATOM     36  C   UNL     1      -0.321  16.536  26.077  0.00  0.00    +0.000 A 
ATOM     37  C   UNL     1      -1.517  15.823  26.039  0.00  0.00    +0.000 A 
ENDBRANCH  31  32
ENDBRANCH  18  31
TORSDOF 6
ENDMDL
MODEL 7
REMARK VINA RESULT:      -6.6      2.762      8.278
REMARK  Name = 
REMARK  8 active torsions:
REMARK  status: ('A' for Active; 'I' for Inactive)
REMARK    1  A    between atoms: C_1  and  O_2
REMARK    2  A    between atoms: O_2  and  C_3
REMARK    3  A    between atoms: C_6  and  C_7
REMARK    4  A    between atoms: C_7  and  C_8
REMARK    5  A    between atoms: C_11  and  C_12
REMARK    6  A    between atoms: C_12  and  O_14
REMARK    7  A    between atoms: N_27  and  C_28
REMARK    8  A    between atoms: C_28  and  C_29
REMARK                            x       y       z     vdW  Elec       q    Type
REMARK                         _______ _______ _______ _____ _____    ______ ____
ROOT
ATOM      1  C   UNL     1      -1.905  12.686  22.141  0.00  0.00    +0.000 C 
ATOM      2  C   UNL     1      -1.311  13.364  23.390  0.00  0.00    +0.000 C 
ATOM      3  C   UNL     1      -2.453  12.471  20.689  0.00  0.00    +0.000 A 
ATOM      4  C   UNL     1      -1.986  11.602  19.607  0.00  0.00    +0.000 A 
ATOM      5  C   UNL     1      -2.904  11.498  18.555  0.00  0.00    +0.000 A 
ATOM      6  S   UNL     1      -4.317  12.419  18.897  0.00  0.00    +0.000 S 
ATOM      7  C   UNL     1      -3.632  13.120  20.269  0.00  0.00    +0.000 A 
ATOM      8  C   UNL     1      -4.324  14.196  21.030  0.00  0.00    +0.000 C 
ATOM      9  O   UNL     1      -5.282  14.850  20.639  0.00  0.00    +0.000 OA
ATOM     10  C   UNL     1      -3.765  14.174  22.418  0.00  0.00    +0.000 A 
ATOM     11  C   UNL     1      -3.574  12.833  22.787  0.00  0.00    +0.000 A 
ATOM     12  C   UNL     1      -5.047  13.017  23.363  0.00  0.00    +0.000 A 
ATOM     13  C   UNL     1      -6.293  12.256  23.379  0.00  0.00    +0.000 A 
ATOM     14  C   UNL     1      -7.556  12.947  23.617  0.00  0.00    +0.000 A 
ATOM     15  C   UNL     1      -7.655  14.319  23.888  0.00  0.00    +0.000 A 
ATOM     16  C   UNL     1      -6.511  15.055  23.949  0.00  0.00    +0.000 A 
ATOM     17  C   UNL     1      -5.309  14.347  23.708  0.00  0.00    +0.000 A 
ATOM     18  N   UNL     1      -4.056  14.844  23.627  0.00  0.00    +0.000 N 
ENDROOT
BRANCH   1  22
ATOM     19  C   UNL     1       1.038  15.785  19.864  0.00  0.00    +0.000 A 
ATOM     20  C   UNL     1       1.393  14.475  20.156  0.00  0.00    +0.000 A 
ATOM     21  C   UNL     1       0.464  13.551  20.760  0.00  0.00    +0.000 A 
ATOM     22  C   UNL     1      -0.843  13.930  21.271  0.00  0.00    +0.000 A 
ATOM     23  C   UNL     1      -1.152  15.273  20.910  0.00  0.00    +0.000 A 
ATOM     24  C   UNL     1      -0.255  16.156  20.196  0.00  0.00    +0.000 A 
BRANCH  19  26
ATOM     25  C   UNL     1       2.749  15.982  18.193  0.00  0.00    +0.000 C 
ATOM     26  O   UNL     1       2.001  16.554  19.265  0.00  0.00    +0.000 OA
ENDBRANCH  19  26
ENDBRANCH   1  22
BRANCH   5  27
ATOM     27  C   UNL     1      -2.837  10.768  17.283  0.00  0.00    +0.000 C 
ATOM     28  O   UNL     1      -3.194   9.614  17.088  0.00  0.00    +0.000 OA
BRANCH  27  29
ATOM     29  O   UNL     1      -2.292  11.505  16.268  0.00  0.00    +0.000 OA
ATOM     30  H   UNL     1      -1.644  12.167  16.586  0.00  0.00    +0.000 HD
ENDBRANCH  27  29
ENDBRANCH   5  27
BRANCH  18  31
ATOM     31  C   UNL     1      -3.395  14.881  24.997  0.00  0.00    +0.000 C 
BRANCH  31  32
ATOM     32  C   UNL     1      -2.529  16.071  25.325  0.00  0.00    +0.000 A 
ATOM     33  C   UNL     1      -1.349  15.955  26.062  0.00  0.00    +0.000 A 
ATOM     34  C   UNL     1      -0.709  17.099  26.544  0.00  0.00    +0.000 A 
ATOM     35  C   UNL     1      -1.247  18.361  26.301  0.00  0.00    +0.000 A 
ATOM     36  C   UNL     1      -2.354  18.491  25.468  0.00  0.00    +0.000 A 
ATOM     37  C   UNL     1      -2.951  17.356  24.924  0.00  0.00    +0.000 A 
ENDBRANCH  31  32
ENDBRANCH  18  31
TORSDOF 6
ENDMDL
MODEL 8
REMARK VINA RESULT:      -6.5      0.548      1.105
REMARK  Name = 
REMARK  8 active torsions:
REMARK  status: ('A' for Active; 'I' for Inactive)
REMARK    1  A    between atoms: C_1  and  O_2
REMARK    2  A    between atoms: O_2  and  C_3
REMARK    3  A    between atoms: C_6  and  C_7
REMARK    4  A    between atoms: C_7  and  C_8
REMARK    5  A    between atoms: C_11  and  C_12
REMARK    6  A    between atoms: C_12  and  O_14
REMARK    7  A    between atoms: N_27  and  C_28
REMARK    8  A    between atoms: C_28  and  C_29
REMARK                            x       y       z     vdW  Elec       q    Type
REMARK                         _______ _______ _______ _____ _____    ______ ____
ROOT
ATOM      1  C   UNL     1      -1.217  13.045  22.995  0.00  0.00    +0.000 C 
ATOM      2  C   UNL     1      -1.648  11.831  22.150  0.00  0.00    +0.000 C 
ATOM      3  C   UNL     1      -1.140  14.500  23.572  0.00  0.00    +0.000 A 
ATOM      4  C   UNL     1      -1.370  15.008  24.925  0.00  0.00    +0.000 A 
ATOM      5  C   UNL     1      -0.942  16.331  25.092  0.00  0.00    +0.000 A 
ATOM      6  S   UNL     1      -0.247  16.925  23.634  0.00  0.00    +0.000 S 
ATOM      7  C   UNL     1      -0.721  15.568  22.754  0.00  0.00    +0.000 A 
ATOM      8  C   UNL     1      -0.534  15.484  21.279  0.00  0.00    +0.000 C 
ATOM      9  O   UNL     1      -0.279  16.420  20.533  0.00  0.00    +0.000 OA
ATOM     10  C   UNL     1      -0.509  14.030  20.927  0.00  0.00    +0.000 A 
ATOM     11  C   UNL     1       0.198  13.353  21.934  0.00  0.00    +0.000 A 
ATOM     12  C   UNL     1       1.418  13.631  20.949  0.00  0.00    +0.000 A 
ATOM     13  C   UNL     1       2.803  14.080  21.062  0.00  0.00    +0.000 A 
ATOM     14  C   UNL     1       3.476  14.642  19.895  0.00  0.00    +0.000 A 
ATOM     15  C   UNL     1       2.885  14.739  18.627  0.00  0.00    +0.000 A 
ATOM     16  C   UNL     1       1.618  14.270  18.461  0.00  0.00    +0.000 A 
ATOM     17  C   UNL     1       1.001  13.737  19.619  0.00  0.00    +0.000 A 
ATOM     18  N   UNL     1      -0.265  13.286  19.751  0.00  0.00    +0.000 N 
ENDROOT
BRANCH   1  22
ATOM     19  C   UNL     1      -5.919  14.143  22.633  0.00  0.00    +0.000 A 
ATOM     20  C   UNL     1      -5.377  13.473  23.721  0.00  0.00    +0.000 A 
ATOM     21  C   UNL     1      -3.959  13.234  23.839  0.00  0.00    +0.000 A 
ATOM     22  C   UNL     1      -2.999  13.506  22.783  0.00  0.00    +0.000 A 
ATOM     23  C   UNL     1      -3.615  14.220  21.716  0.00  0.00    +0.000 A 
ATOM     24  C   UNL     1      -5.021  14.560  21.663  0.00  0.00    +0.000 A 
BRANCH  19  26
ATOM     25  C   UNL     1      -7.778  15.639  22.376  0.00  0.00    +0.000 C 
ATOM     26  O   UNL     1      -7.276  14.332  22.652  0.00  0.00    +0.000 OA
ENDBRANCH  19  26
ENDBRANCH   1  22
BRANCH   5  27
ATOM     27  C   UNL     1      -0.999  17.226  26.254  0.00  0.00    +0.000 C 
ATOM     28  O   UNL     1      -0.576  16.986  27.377  0.00  0.00    +0.000 OA
BRANCH  27  29
ATOM     29  O   UNL     1      -1.620  18.414  25.987  0.00  0.00    +0.000 OA
ATOM     30  H   UNL     1      -1.695  18.989  26.776  0.00  0.00    +0.000 HD
ENDBRANCH  27  29
ENDBRANCH   5  27
BRANCH  18  31
ATOM     31  C   UNL     1      -0.357  11.809  19.399  0.00  0.00    +0.000 C 
BRANCH  31  32
ATOM     32  C   UNL     1      -1.537  11.356  18.577  0.00  0.00    +0.000 A 
ATOM     33  C   UNL     1      -2.816  11.885  18.754  0.00  0.00    +0.000 A 
ATOM     34  C   UNL     1      -3.917  11.277  18.147  0.00  0.00    +0.000 A 
ATOM     35  C   UNL     1      -3.747  10.134  17.369  0.00  0.00    +0.000 A 
ATOM     36  C   UNL     1      -2.464   9.672  17.090  0.00  0.00    +0.000 A 
ATOM     37  C   UNL     1      -1.359  10.322  17.635  0.00  0.00    +0.000 A 
ENDBRANCH  31  32
ENDBRANCH  18  31
TORSDOF 6
ENDMDL
MODEL 9
REMARK VINA RESULT:      -6.5      3.002      8.257
REMARK  Name = 
REMARK  8 active torsions:
REMARK  status: ('A' for Active; 'I' for Inactive)
REMARK    1  A    between atoms: C_1  and  O_2
REMARK    2  A    between atoms: O_2  and  C_3
REMARK    3  A    between atoms: C_6  and  C_7
REMARK    4  A    between atoms: C_7  and  C_8
REMARK    5  A    between atoms: C_11  and  C_12
REMARK    6  A    between atoms: C_12  and  O_14
REMARK    7  A    between atoms: N_27  and  C_28
REMARK    8  A    between atoms: C_28  and  C_29
REMARK                            x       y       z     vdW  Elec       q    Type
REMARK                         _______ _______ _______ _____ _____    ______ ____
ROOT
ATOM      1  C   UNL     1      -2.356  12.748  21.620  0.00  0.00    +0.000 C 
ATOM      2  C   UNL     1      -1.607  13.462  22.761  0.00  0.00    +0.000 C 
ATOM      3  C   UNL     1      -3.091  12.492  20.260  0.00  0.00    +0.000 A 
ATOM      4  C   UNL     1      -2.764  11.601  19.146  0.00  0.00    +0.000 A 
ATOM      5  C   UNL     1      -3.814  11.463  18.230  0.00  0.00    +0.000 A 
ATOM      6  S   UNL     1      -5.179  12.380  18.738  0.00  0.00    +0.000 S 
ATOM      7  C   UNL     1      -4.323  13.120  19.988  0.00  0.00    +0.000 A 
ATOM      8  C   UNL     1      -4.920  14.209  20.809  0.00  0.00    +0.000 C 
ATOM      9  O   UNL     1      -5.929  14.845  20.536  0.00  0.00    +0.000 OA
ATOM     10  C   UNL     1      -4.178  14.227  22.110  0.00  0.00    +0.000 A 
ATOM     11  C   UNL     1      -3.924  12.897  22.481  0.00  0.00    +0.000 A 
ATOM     12  C   UNL     1      -5.308  13.084  23.246  0.00  0.00    +0.000 A 
ATOM     13  C   UNL     1      -6.532  12.312  23.447  0.00  0.00    +0.000 A 
ATOM     14  C   UNL     1      -7.759  12.998  23.837  0.00  0.00    +0.000 A 
ATOM     15  C   UNL     1      -7.837  14.376  24.087  0.00  0.00    +0.000 A 
ATOM     16  C   UNL     1      -6.704  15.123  23.976  0.00  0.00    +0.000 A 
ATOM     17  C   UNL     1      -5.537  14.419  23.592  0.00  0.00    +0.000 A 
ATOM     18  N   UNL     1      -4.313  14.924  23.331  0.00  0.00    +0.000 N 
ENDROOT
BRANCH   1  22
ATOM     19  C   UNL     1      -0.089  16.126  18.992  0.00  0.00    +0.000 A 
ATOM     20  C   UNL     1      -1.140  16.411  19.853  0.00  0.00    +0.000 A 
ATOM     21  C   UNL     1      -1.740  15.396  20.685  0.00  0.00    +0.000 A 
ATOM     22  C   UNL     1      -1.434  13.979  20.586  0.00  0.00    +0.000 A 
ATOM     23  C   UNL     1      -0.331  13.764  19.712  0.00  0.00    +0.000 A 
ATOM     24  C   UNL     1       0.343  14.808  18.971  0.00  0.00    +0.000 A 
BRANCH  19  26
ATOM     25  C   UNL     1      -0.482  17.913  17.440  0.00  0.00    +0.000 C 
ATOM     26  O   UNL     1       0.412  17.181  18.277  0.00  0.00    +0.000 OA
ENDBRANCH  19  26
ENDBRANCH   1  22
BRANCH   5  27
ATOM     27  C   UNL     1      -3.910  10.701  16.978  0.00  0.00    +0.000 C 
ATOM     28  O   UNL     1      -3.164   9.801  16.616  0.00  0.00    +0.000 OA
BRANCH  27  29
ATOM     29  O   UNL     1      -4.944  11.107  16.181  0.00  0.00    +0.000 OA
ATOM     30  H   UNL     1      -4.878  12.050  15.925  0.00  0.00    +0.000 HD
ENDBRANCH  27  29
ENDBRANCH   5  27
BRANCH  18  31
ATOM     31  C   UNL     1      -3.474  15.001  24.598  0.00  0.00    +0.000 C 
BRANCH  31  32
ATOM     32  C   UNL     1      -2.559  16.189  24.762  0.00  0.00    +0.000 A 
ATOM     33  C   UNL     1      -1.695  16.321  25.850  0.00  0.00    +0.000 A 
ATOM     34  C   UNL     1      -1.047  17.536  26.087  0.00  0.00    +0.000 A 
ATOM     35  C   UNL     1      -1.265  18.624  25.245  0.00  0.00    +0.000 A 
ATOM     36  C   UNL     1      -2.029  18.465  24.093  0.00  0.00    +0.000 A 
ATOM     37  C   UNL     1      -2.617  17.232  23.815  0.00  0.00    +0.000 A 
ENDBRANCH  31  32
ENDBRANCH  18  31
TORSDOF 6
ENDMDL
