MODEL 1
REMARK VINA RESULT:      -6.0      0.000      0.000
REMARK  Name = 
REMARK  8 active torsions:
REMARK  status: ('A' for Active; 'I' for Inactive)
REMARK    1  A    between atoms: C_1  and  C_2
REMARK    2  A    between atoms: C_14  and  C_15
REMARK    3  A    between atoms: C_18  and  O_19
REMARK    4  A    between atoms: C_21  and  C_22
REMARK    5  A    between atoms: C_23  and  O_24
REMARK    6  A    between atoms: C_23  and  C_25
REMARK    7  A    between atoms: C_25  and  C_27
REMARK    8  A    between atoms: C_27  and  O_28
REMARK                            x       y       z     vdW  Elec       q    Type
REMARK                         _______ _______ _______ _____ _____    ______ ____
ROOT
ATOM      1  C   UNL     1      -1.537  11.219  19.389  0.00  0.00    +0.000 C 
ATOM      2  C   UNL     1      -2.287  11.949  20.476  0.00  0.00    +0.000 C 
ATOM      3  C   UNL     1      -3.568  12.569  19.995  0.00  0.00    +0.000 C 
ATOM      4  C   UNL     1      -4.144  13.217  21.277  0.00  0.00    +0.000 C 
ATOM      5  C   UNL     1      -4.951  14.503  20.866  0.00  0.00    +0.000 C 
ATOM      6  C   UNL     1      -5.993  14.173  19.747  0.00  0.00    +0.000 C 
ATOM      7  C   UNL     1      -7.432  14.505  20.068  0.00  0.00    +0.000 C 
ATOM      8  C   UNL     1      -7.581  14.093  21.497  0.00  0.00    +0.000 C 
ATOM      9  C   UNL     1      -7.916  12.824  21.801  0.00  0.00    +0.000 C 
ATOM     10  C   UNL     1      -7.742  12.311  23.174  0.00  0.00    +0.000 C 
ATOM     11  O   UNL     1      -7.715  11.113  23.419  0.00  0.00    +0.000 OA
ATOM     12  C   UNL     1      -7.601  13.329  24.235  0.00  0.00    +0.000 C 
ATOM     13  C   UNL     1      -7.303  14.598  23.917  0.00  0.00    +0.000 C 
ATOM     14  C   UNL     1      -7.007  15.089  22.503  0.00  0.00    +0.000 C 
ATOM     15  C   UNL     1      -7.796  16.431  22.389  0.00  0.00    +0.000 C 
ATOM     16  C   UNL     1      -5.444  15.338  22.128  0.00  0.00    +0.000 C 
ATOM     17  F   UNL     1      -5.373  16.656  21.702  0.00  0.00    +0.000 F 
ATOM     18  C   UNL     1      -4.325  15.219  23.220  0.00  0.00    +0.000 C 
ATOM     19  C   UNL     1      -3.076  14.925  22.789  0.00  0.00    +0.000 C 
ATOM     20  C   UNL     1      -2.873  13.480  22.247  0.00  0.00    +0.000 C 
ATOM     21  C   UNL     1      -2.828  12.513  23.459  0.00  0.00    +0.000 C 
ATOM     22  C   UNL     1      -1.669  13.162  21.257  0.00  0.00    +0.000 C 
ENDROOT
BRANCH  18  23
ATOM     23  O   UNL     1      -4.697  14.693  24.446  0.00  0.00    +0.000 OA
ATOM     24  H   UNL     1      -4.058  15.022  25.104  0.00  0.00    +0.000 HD
ENDBRANCH  18  23
BRANCH  22  25
ATOM     25  O   UNL     1      -1.503  14.334  20.419  0.00  0.00    +0.000 OA
ATOM     26  H   UNL     1      -2.395  14.600  20.122  0.00  0.00    +0.000 HD
ENDBRANCH  22  25
BRANCH  22  27
ATOM     27  C   UNL     1      -0.224  12.758  21.632  0.00  0.00    +0.000 C 
ATOM     28  O   UNL     1       0.103  11.633  22.002  0.00  0.00    +0.000 OA
BRANCH  27  29
ATOM     29  C   UNL     1       0.842  13.875  21.423  0.00  0.00    +0.000 C 
BRANCH  29  30
ATOM     30  O   UNL     1       0.829  14.942  22.349  0.00  0.00    +0.000 OA
ATOM     31  H   UNL     1       0.171  14.724  23.029  0.00  0.00    +0.000 HD
ENDBRANCH  29  30
ENDBRANCH  27  29
ENDBRANCH  22  27
TORSDOF 5
ENDMDL
MODEL 2
REMARK VINA RESULT:      -6.0     11.162     14.153
REMARK  Name = 
REMARK  8 active torsions:
REMARK  status: ('A' for Active; 'I' for Inactive)
REMARK    1  A    between atoms: C_1  and  C_2
REMARK    2  A    between atoms: C_14  and  C_15
REMARK    3  A    between atoms: C_18  and  O_19
REMARK    4  A    between atoms: C_21  and  C_22
REMARK    5  A    between atoms: C_23  and  O_24
REMARK    6  A    between atoms: C_23  and  C_25
REMARK    7  A    between atoms: C_25  and  C_27
REMARK    8  A    between atoms: C_27  and  O_28
REMARK                            x       y       z     vdW  Elec       q    Type
REMARK                         _______ _______ _______ _____ _____    ______ ____
ROOT
ATOM      1  C   UNL     1       6.259  11.448  24.287  0.00  0.00    +0.000 C 
ATOM      2  C   UNL     1       6.767  12.441  23.270  0.00  0.00    +0.000 C 
ATOM      3  C   UNL     1       8.038  12.002  22.600  0.00  0.00    +0.000 C 
ATOM      4  C   UNL     1       8.324  13.156  21.608  0.00  0.00    +0.000 C 
ATOM      5  C   UNL     1       9.882  13.296  21.442  0.00  0.00    +0.000 C 
ATOM      6  C   UNL     1      10.530  11.918  21.084  0.00  0.00    +0.000 C 
ATOM      7  C   UNL     1      11.332  11.881  19.804  0.00  0.00    +0.000 C 
ATOM      8  C   UNL     1      10.518  12.695  18.850  0.00  0.00    +0.000 C 
ATOM      9  C   UNL     1       9.539  12.112  18.131  0.00  0.00    +0.000 C 
ATOM     10  C   UNL     1       8.518  12.932  17.451  0.00  0.00    +0.000 C 
ATOM     11  O   UNL     1       7.453  12.461  17.078  0.00  0.00    +0.000 OA
ATOM     12  C   UNL     1       8.856  14.355  17.250  0.00  0.00    +0.000 C 
ATOM     13  C   UNL     1       9.857  14.916  17.946  0.00  0.00    +0.000 C 
ATOM     14  C   UNL     1      10.661  14.205  19.031  0.00  0.00    +0.000 C 
ATOM     15  C   UNL     1      12.140  14.609  18.740  0.00  0.00    +0.000 C 
ATOM     16  C   UNL     1      10.287  14.565  20.572  0.00  0.00    +0.000 C 
ATOM     17  F   UNL     1      11.473  14.996  21.147  0.00  0.00    +0.000 F 
ATOM     18  C   UNL     1       9.255  15.697  20.906  0.00  0.00    +0.000 C 
ATOM     19  C   UNL     1       8.613  15.610  22.096  0.00  0.00    +0.000 C 
ATOM     20  C   UNL     1       7.575  14.457  22.217  0.00  0.00    +0.000 C 
ATOM     21  C   UNL     1       6.311  14.859  21.411  0.00  0.00    +0.000 C 
ATOM     22  C   UNL     1       7.150  13.915  23.652  0.00  0.00    +0.000 C 
ENDROOT
BRANCH  18  23
ATOM     23  O   UNL     1       8.531  16.221  19.848  0.00  0.00    +0.000 OA
ATOM     24  H   UNL     1       7.595  16.002  20.007  0.00  0.00    +0.000 HD
ENDBRANCH  18  23
BRANCH  22  25
ATOM     25  O   UNL     1       8.336  13.981  24.485  0.00  0.00    +0.000 OA
ATOM     26  H   UNL     1       8.727  14.867  24.353  0.00  0.00    +0.000 HD
ENDBRANCH  22  25
BRANCH  22  27
ATOM     27  C   UNL     1       6.019  14.447  24.562  0.00  0.00    +0.000 C 
ATOM     28  O   UNL     1       4.833  14.477  24.240  0.00  0.00    +0.000 OA
BRANCH  27  29
ATOM     29  C   UNL     1       6.474  14.875  25.989  0.00  0.00    +0.000 C 
BRANCH  29  30
ATOM     30  O   UNL     1       6.776  13.835  26.894  0.00  0.00    +0.000 OA
ATOM     31  H   UNL     1       7.216  13.132  26.388  0.00  0.00    +0.000 HD
ENDBRANCH  29  30
ENDBRANCH  27  29
ENDBRANCH  22  27
TORSDOF 5
ENDMDL
MODEL 3
REMARK VINA RESULT:      -6.0      9.238     14.453
REMARK  Name = 
REMARK  8 active torsions:
REMARK  status: ('A' for Active; 'I' for Inactive)
REMARK    1  A    between atoms: C_1  and  C_2
REMARK    2  A    between atoms: C_14  and  C_15
REMARK    3  A    between atoms: C_18  and  O_19
REMARK    4  A    between atoms: C_21  and  C_22
REMARK    5  A    between atoms: C_23  and  O_24
REMARK    6  A    between atoms: C_23  and  C_25
REMARK    7  A    between atoms: C_25  and  C_27
REMARK    8  A    between atoms: C_27  and  O_28
REMARK                            x       y       z     vdW  Elec       q    Type
REMARK                         _______ _______ _______ _____ _____    ______ ____
ROOT
ATOM      1  C   UNL     1       4.366  15.689  17.553  0.00  0.00    +0.000 C 
ATOM      2  C   UNL     1       5.693  15.704  18.271  0.00  0.00    +0.000 C 
ATOM      3  C   UNL     1       6.550  14.512  17.953  0.00  0.00    +0.000 C 
ATOM      4  C   UNL     1       7.835  14.777  18.776  0.00  0.00    +0.000 C 
ATOM      5  C   UNL     1       8.441  13.394  19.215  0.00  0.00    +0.000 C 
ATOM      6  C   UNL     1       8.608  12.443  17.984  0.00  0.00    +0.000 C 
ATOM      7  C   UNL     1      10.006  11.925  17.739  0.00  0.00    +0.000 C 
ATOM      8  C   UNL     1      10.877  13.110  18.004  0.00  0.00    +0.000 C 
ATOM      9  C   UNL     1      11.142  13.987  17.016  0.00  0.00    +0.000 C 
ATOM     10  C   UNL     1      11.704  15.316  17.324  0.00  0.00    +0.000 C 
ATOM     11  O   UNL     1      11.651  16.242  16.526  0.00  0.00    +0.000 OA
ATOM     12  C   UNL     1      12.332  15.465  18.652  0.00  0.00    +0.000 C 
ATOM     13  C   UNL     1      12.089  14.565  19.618  0.00  0.00    +0.000 C 
ATOM     14  C   UNL     1      11.119  13.395  19.486  0.00  0.00    +0.000 C 
ATOM     15  C   UNL     1      11.885  12.187  20.111  0.00  0.00    +0.000 C 
ATOM     16  C   UNL     1       9.672  13.560  20.209  0.00  0.00    +0.000 C 
ATOM     17  F   UNL     1       9.560  12.471  21.060  0.00  0.00    +0.000 F 
ATOM     18  C   UNL     1       9.363  14.800  21.117  0.00  0.00    +0.000 C 
ATOM     19  C   UNL     1       8.062  15.150  21.256  0.00  0.00    +0.000 C 
ATOM     20  C   UNL     1       7.387  15.752  19.989  0.00  0.00    +0.000 C 
ATOM     21  C   UNL     1       7.899  17.207  19.817  0.00  0.00    +0.000 C 
ATOM     22  C   UNL     1       5.804  15.715  19.836  0.00  0.00    +0.000 C 
ENDROOT
BRANCH  18  23
ATOM     23  O   UNL     1      10.284  15.835  21.103  0.00  0.00    +0.000 OA
ATOM     24  H   UNL     1      10.744  15.819  21.961  0.00  0.00    +0.000 HD
ENDBRANCH  18  23
BRANCH  22  25
ATOM     25  O   UNL     1       5.361  14.468  20.432  0.00  0.00    +0.000 OA
ATOM     26  H   UNL     1       6.147  14.050  20.834  0.00  0.00    +0.000 HD
ENDBRANCH  22  25
BRANCH  22  27
ATOM     27  C   UNL     1       4.784  16.760  20.347  0.00  0.00    +0.000 C 
ATOM     28  O   UNL     1       4.769  17.937  19.993  0.00  0.00    +0.000 OA
BRANCH  27  29
ATOM     29  C   UNL     1       3.689  16.194  21.299  0.00  0.00    +0.000 C 
BRANCH  29  30
ATOM     30  O   UNL     1       2.590  15.552  20.688  0.00  0.00    +0.000 OA
ATOM     31  H   UNL     1       2.308  14.837  21.281  0.00  0.00    +0.000 HD
ENDBRANCH  29  30
ENDBRANCH  27  29
ENDBRANCH  22  27
TORSDOF 5
ENDMDL
MODEL 4
REMARK VINA RESULT:      -5.9      2.961      6.430
REMARK  Name = 
REMARK  8 active torsions:
REMARK  status: ('A' for Active; 'I' for Inactive)
REMARK    1  A    between atoms: C_1  and  C_2
REMARK    2  A    between atoms: C_14  and  C_15
REMARK    3  A    between atoms: C_18  and  O_19
REMARK    4  A    between atoms: C_21  and  C_22
REMARK    5  A    between atoms: C_23  and  O_24
REMARK    6  A    between atoms: C_23  and  C_25
REMARK    7  A    between atoms: C_25  and  C_27
REMARK    8  A    between atoms: C_27  and  O_28
REMARK                            x       y       z     vdW  Elec       q    Type
REMARK                         _______ _______ _______ _____ _____    ______ ____
ROOT
ATOM      1  C   UNL     1      -4.573  12.411  24.961  0.00  0.00    +0.000 C 
ATOM      2  C   UNL     1      -3.881  12.877  23.704  0.00  0.00    +0.000 C 
ATOM      3  C   UNL     1      -2.694  12.033  23.335  0.00  0.00    +0.000 C 
ATOM      4  C   UNL     1      -2.192  12.691  22.027  0.00  0.00    +0.000 C 
ATOM      5  C   UNL     1      -0.631  12.515  21.949  0.00  0.00    +0.000 C 
ATOM      6  C   UNL     1      -0.228  11.018  22.153  0.00  0.00    +0.000 C 
ATOM      7  C   UNL     1       0.580  10.396  21.037  0.00  0.00    +0.000 C 
ATOM      8  C   UNL     1      -0.061  10.927  19.796  0.00  0.00    +0.000 C 
ATOM      9  C   UNL     1      -1.113  10.285  19.252  0.00  0.00    +0.000 C 
ATOM     10  C   UNL     1      -1.962  10.953  18.246  0.00  0.00    +0.000 C 
ATOM     11  O   UNL     1      -3.086  10.551  17.979  0.00  0.00    +0.000 OA
ATOM     12  C   UNL     1      -1.377  12.136  17.584  0.00  0.00    +0.000 C 
ATOM     13  C   UNL     1      -0.306  12.746  18.116  0.00  0.00    +0.000 C 
ATOM     14  C   UNL     1       0.340  12.358  19.443  0.00  0.00    +0.000 C 
ATOM     15  C   UNL     1       1.873  12.392  19.148  0.00  0.00    +0.000 C 
ATOM     16  C   UNL     1       0.006  13.305  20.723  0.00  0.00    +0.000 C 
ATOM     17  F   UNL     1       1.239  13.722  21.202  0.00  0.00    +0.000 F 
ATOM     18  C   UNL     1      -0.817  14.627  20.552  0.00  0.00    +0.000 C 
ATOM     19  C   UNL     1      -1.487  15.077  21.640  0.00  0.00    +0.000 C 
ATOM     20  C   UNL     1      -2.713  14.223  22.077  0.00  0.00    +0.000 C 
ATOM     21  C   UNL     1      -3.871  14.500  21.081  0.00  0.00    +0.000 C 
ATOM     22  C   UNL     1      -3.253  14.309  23.571  0.00  0.00    +0.000 C 
ENDROOT
BRANCH  18  23
ATOM     23  O   UNL     1      -1.419  14.840  19.323  0.00  0.00    +0.000 OA
ATOM     24  H   UNL     1      -2.327  14.494  19.386  0.00  0.00    +0.000 HD
ENDBRANCH  18  23
BRANCH  22  25
ATOM     25  O   UNL     1      -2.090  14.486  24.420  0.00  0.00    +0.000 OA
ATOM     26  H   UNL     1      -1.305  14.436  23.840  0.00  0.00    +0.000 HD
ENDBRANCH  22  25
BRANCH  22  27
ATOM     27  C   UNL     1      -4.291  15.305  24.141  0.00  0.00    +0.000 C 
ATOM     28  O   UNL     1      -5.495  15.258  23.899  0.00  0.00    +0.000 OA
BRANCH  27  29
ATOM     29  C   UNL     1      -3.713  16.351  25.140  0.00  0.00    +0.000 C 
BRANCH  29  30
ATOM     30  O   UNL     1      -2.951  17.402  24.584  0.00  0.00    +0.000 OA
ATOM     31  H   UNL     1      -2.329  17.699  25.268  0.00  0.00    +0.000 HD
ENDBRANCH  29  30
ENDBRANCH  27  29
ENDBRANCH  22  27
TORSDOF 5
ENDMDL
MODEL 5
REMARK VINA RESULT:      -5.9     11.869     14.302
REMARK  Name = 
REMARK  8 active torsions:
REMARK  status: ('A' for Active; 'I' for Inactive)
REMARK    1  A    between atoms: C_1  and  C_2
REMARK    2  A    between atoms: C_14  and  C_15
REMARK    3  A    between atoms: C_18  and  O_19
REMARK    4  A    between atoms: C_21  and  C_22
REMARK    5  A    between atoms: C_23  and  O_24
REMARK    6  A    between atoms: C_23  and  C_25
REMARK    7  A    between atoms: C_25  and  C_27
REMARK    8  A    between atoms: C_27  and  O_28
REMARK                            x       y       z     vdW  Elec       q    Type
REMARK                         _______ _______ _______ _____ _____    ______ ____
ROOT
ATOM      1  C   UNL     1       6.279  11.606  24.364  0.00  0.00    +0.000 C 
ATOM      2  C   UNL     1       7.023  12.535  23.437  0.00  0.00    +0.000 C 
ATOM      3  C   UNL     1       7.748  11.815  22.336  0.00  0.00    +0.000 C 
ATOM      4  C   UNL     1       8.392  12.969  21.530  0.00  0.00    +0.000 C 
ATOM      5  C   UNL     1       9.745  12.453  20.914  0.00  0.00    +0.000 C 
ATOM      6  C   UNL     1       9.526  11.117  20.130  0.00  0.00    +0.000 C 
ATOM      7  C   UNL     1       9.948  11.131  18.678  0.00  0.00    +0.000 C 
ATOM      8  C   UNL     1       9.500  12.470  18.190  0.00  0.00    +0.000 C 
ATOM      9  C   UNL     1       8.248  12.633  17.719  0.00  0.00    +0.000 C 
ATOM     10  C   UNL     1       7.679  13.984  17.551  0.00  0.00    +0.000 C 
ATOM     11  O   UNL     1       6.475  14.171  17.450  0.00  0.00    +0.000 OA
ATOM     12  C   UNL     1       8.649  15.098  17.515  0.00  0.00    +0.000 C 
ATOM     13  C   UNL     1       9.904  14.914  17.954  0.00  0.00    +0.000 C 
ATOM     14  C   UNL     1      10.419  13.625  18.586  0.00  0.00    +0.000 C 
ATOM     15  C   UNL     1      11.816  13.404  17.926  0.00  0.00    +0.000 C 
ATOM     16  C   UNL     1      10.570  13.615  20.206  0.00  0.00    +0.000 C 
ATOM     17  F   UNL     1      11.893  13.277  20.450  0.00  0.00    +0.000 F 
ATOM     18  C   UNL     1      10.336  14.918  21.044  0.00  0.00    +0.000 C 
ATOM     19  C   UNL     1       9.969  14.759  22.338  0.00  0.00    +0.000 C 
ATOM     20  C   UNL     1       8.532  14.205  22.567  0.00  0.00    +0.000 C 
ATOM     21  C   UNL     1       7.525  15.350  22.281  0.00  0.00    +0.000 C 
ATOM     22  C   UNL     1       8.163  13.490  23.939  0.00  0.00    +0.000 C 
ENDROOT
BRANCH  18  23
ATOM     23  O   UNL     1       9.798  16.006  20.377  0.00  0.00    +0.000 OA
ATOM     24  H   UNL     1       8.870  16.085  20.662  0.00  0.00    +0.000 HD
ENDBRANCH  18  23
BRANCH  22  25
ATOM     25  O   UNL     1       9.348  12.766  24.359  0.00  0.00    +0.000 OA
ATOM     26  H   UNL     1       9.090  12.219  25.125  0.00  0.00    +0.000 HD
ENDBRANCH  22  25
BRANCH  22  27
ATOM     27  C   UNL     1       7.647  14.154  25.237  0.00  0.00    +0.000 C 
ATOM     28  O   UNL     1       6.617  14.821  25.307  0.00  0.00    +0.000 OA
BRANCH  27  29
ATOM     29  C   UNL     1       8.490  13.845  26.510  0.00  0.00    +0.000 C 
BRANCH  29  30
ATOM     30  O   UNL     1       8.208  12.631  27.174  0.00  0.00    +0.000 OA
ATOM     31  H   UNL     1       8.658  12.662  28.034  0.00  0.00    +0.000 HD
ENDBRANCH  29  30
ENDBRANCH  27  29
ENDBRANCH  22  27
TORSDOF 5
ENDMDL
MODEL 6
REMARK VINA RESULT:      -5.8      0.657      1.139
REMARK  Name = 
REMARK  8 active torsions:
REMARK  status: ('A' for Active; 'I' for Inactive)
REMARK    1  A    between atoms: C_1  and  C_2
REMARK    2  A    between atoms: C_14  and  C_15
REMARK    3  A    between atoms: C_18  and  O_19
REMARK    4  A    between atoms: C_21  and  C_22
REMARK    5  A    between atoms: C_23  and  O_24
REMARK    6  A    between atoms: C_23  and  C_25
REMARK    7  A    between atoms: C_25  and  C_27
REMARK    8  A    between atoms: C_27  and  O_28
REMARK                            x       y       z     vdW  Elec       q    Type
REMARK                         _______ _______ _______ _____ _____    ______ ____
ROOT
ATOM      1  C   UNL     1      -1.687  11.222  19.198  0.00  0.00    +0.000 C 
ATOM      2  C   UNL     1      -2.377  11.893  20.360  0.00  0.00    +0.000 C 
ATOM      3  C   UNL     1      -3.602  12.662  19.956  0.00  0.00    +0.000 C 
ATOM      4  C   UNL     1      -4.125  13.217  21.304  0.00  0.00    +0.000 C 
ATOM      5  C   UNL     1      -4.824  14.600  21.036  0.00  0.00    +0.000 C 
ATOM      6  C   UNL     1      -5.888  14.474  19.895  0.00  0.00    +0.000 C 
ATOM      7  C   UNL     1      -7.296  14.886  20.261  0.00  0.00    +0.000 C 
ATOM      8  C   UNL     1      -7.480  14.341  21.640  0.00  0.00    +0.000 C 
ATOM      9  C   UNL     1      -7.916  13.078  21.813  0.00  0.00    +0.000 C 
ATOM     10  C   UNL     1      -7.786  12.412  23.124  0.00  0.00    +0.000 C 
ATOM     11  O   UNL     1      -7.857  11.197  23.242  0.00  0.00    +0.000 OA
ATOM     12  C   UNL     1      -7.564  13.298  24.284  0.00  0.00    +0.000 C 
ATOM     13  C   UNL     1      -7.163  14.566  24.097  0.00  0.00    +0.000 C 
ATOM     14  C   UNL     1      -6.827  15.176  22.740  0.00  0.00    +0.000 C 
ATOM     15  C   UNL     1      -7.504  16.582  22.773  0.00  0.00    +0.000 C 
ATOM     16  C   UNL     1      -5.248  15.335  22.381  0.00  0.00    +0.000 C 
ATOM     17  F   UNL     1      -5.071  16.681  22.094  0.00  0.00    +0.000 F 
ATOM     18  C   UNL     1      -4.144  15.013  23.446  0.00  0.00    +0.000 C 
ATOM     19  C   UNL     1      -2.922  14.665  22.977  0.00  0.00    +0.000 C 
ATOM     20  C   UNL     1      -2.838  13.273  22.286  0.00  0.00    +0.000 C 
ATOM     21  C   UNL     1      -2.873  12.184  23.391  0.00  0.00    +0.000 C 
ATOM     22  C   UNL     1      -1.663  12.964  21.259  0.00  0.00    +0.000 C 
ENDROOT
BRANCH  18  23
ATOM     23  O   UNL     1      -4.559  14.394  24.614  0.00  0.00    +0.000 OA
ATOM     24  H   UNL     1      -3.770  13.989  25.017  0.00  0.00    +0.000 HD
ENDBRANCH  18  23
BRANCH  22  25
ATOM     25  O   UNL     1      -1.401  14.200  20.547  0.00  0.00    +0.000 OA
ATOM     26  H   UNL     1      -1.964  14.193  19.749  0.00  0.00    +0.000 HD
ENDBRANCH  22  25
BRANCH  22  27
ATOM     27  C   UNL     1      -0.255  12.408  21.579  0.00  0.00    +0.000 C 
ATOM     28  O   UNL     1       0.751  13.105  21.692  0.00  0.00    +0.000 OA
BRANCH  27  29
ATOM     29  C   UNL     1      -0.203  10.874  21.844  0.00  0.00    +0.000 C 
BRANCH  29  30
ATOM     30  O   UNL     1       0.112  10.471  23.161  0.00  0.00    +0.000 OA
ATOM     31  H   UNL     1       0.383   9.539  23.119  0.00  0.00    +0.000 HD
ENDBRANCH  29  30
ENDBRANCH  27  29
ENDBRANCH  22  27
TORSDOF 5
ENDMDL
MODEL 7
REMARK VINA RESULT:      -5.8      2.679      6.549
REMARK  Name = 
REMARK  8 active torsions:
REMARK  status: ('A' for Active; 'I' for Inactive)
REMARK    1  A    between atoms: C_1  and  C_2
REMARK    2  A    between atoms: C_14  and  C_15
REMARK    3  A    between atoms: C_18  and  O_19
REMARK    4  A    between atoms: C_21  and  C_22
REMARK    5  A    between atoms: C_23  and  O_24
REMARK    6  A    between atoms: C_23  and  C_25
REMARK    7  A    between atoms: C_25  and  C_27
REMARK    8  A    between atoms: C_27  and  O_28
REMARK                            x       y       z     vdW  Elec       q    Type
REMARK                         _______ _______ _______ _____ _____    ______ ____
ROOT
ATOM      1  C   UNL     1      -4.579  12.355  24.969  0.00  0.00    +0.000 C 
ATOM      2  C   UNL     1      -3.883  12.838  23.720  0.00  0.00    +0.000 C 
ATOM      3  C   UNL     1      -2.695  11.998  23.344  0.00  0.00    +0.000 C 
ATOM      4  C   UNL     1      -2.189  12.673  22.046  0.00  0.00    +0.000 C 
ATOM      5  C   UNL     1      -0.627  12.499  21.970  0.00  0.00    +0.000 C 
ATOM      6  C   UNL     1      -0.225  10.998  22.156  0.00  0.00    +0.000 C 
ATOM      7  C   UNL     1       0.586  10.391  21.034  0.00  0.00    +0.000 C 
ATOM      8  C   UNL     1      -0.051  10.938  19.798  0.00  0.00    +0.000 C 
ATOM      9  C   UNL     1      -1.102  10.304  19.242  0.00  0.00    +0.000 C 
ATOM     10  C   UNL     1      -1.948  10.985  18.243  0.00  0.00    +0.000 C 
ATOM     11  O   UNL     1      -3.071  10.587  17.967  0.00  0.00    +0.000 OA
ATOM     12  C   UNL     1      -1.360  12.176  17.598  0.00  0.00    +0.000 C 
ATOM     13  C   UNL     1      -0.291  12.780  18.142  0.00  0.00    +0.000 C 
ATOM     14  C   UNL     1       0.351  12.375  19.465  0.00  0.00    +0.000 C 
ATOM     15  C   UNL     1       1.884  12.412  19.176  0.00  0.00    +0.000 C 
ATOM     16  C   UNL     1       0.013  13.304  20.756  0.00  0.00    +0.000 C 
ATOM     17  F   UNL     1       1.244  13.715  21.245  0.00  0.00    +0.000 F 
ATOM     18  C   UNL     1      -0.810  14.629  20.601  0.00  0.00    +0.000 C 
ATOM     19  C   UNL     1      -1.483  15.064  21.692  0.00  0.00    +0.000 C 
ATOM     20  C   UNL     1      -2.710  14.205  22.114  0.00  0.00    +0.000 C 
ATOM     21  C   UNL     1      -3.865  14.495  21.119  0.00  0.00    +0.000 C 
ATOM     22  C   UNL     1      -3.254  14.272  23.608  0.00  0.00    +0.000 C 
ENDROOT
BRANCH  18  23
ATOM     23  O   UNL     1      -1.407  14.858  19.373  0.00  0.00    +0.000 OA
ATOM     24  H   UNL     1      -0.725  14.716  18.692  0.00  0.00    +0.000 HD
ENDBRANCH  18  23
BRANCH  22  25
ATOM     25  O   UNL     1      -2.094  14.437  24.462  0.00  0.00    +0.000 OA
ATOM     26  H   UNL     1      -1.749  15.337  24.302  0.00  0.00    +0.000 HD
ENDBRANCH  22  25
BRANCH  22  27
ATOM     27  C   UNL     1      -4.294  15.259  24.187  0.00  0.00    +0.000 C 
ATOM     28  O   UNL     1      -4.048  16.078  25.070  0.00  0.00    +0.000 OA
BRANCH  27  29
ATOM     29  C   UNL     1      -5.693  15.213  23.504  0.00  0.00    +0.000 C 
BRANCH  29  30
ATOM     30  O   UNL     1      -6.791  14.902  24.334  0.00  0.00    +0.000 OA
ATOM     31  H   UNL     1      -6.436  14.676  25.209  0.00  0.00    +0.000 HD
ENDBRANCH  29  30
ENDBRANCH  27  29
ENDBRANCH  22  27
TORSDOF 5
ENDMDL
MODEL 8
REMARK VINA RESULT:      -5.7      2.113      6.598
REMARK  Name = 
REMARK  8 active torsions:
REMARK  status: ('A' for Active; 'I' for Inactive)
REMARK    1  A    between atoms: C_1  and  C_2
REMARK    2  A    between atoms: C_14  and  C_15
REMARK    3  A    between atoms: C_18  and  O_19
REMARK    4  A    between atoms: C_21  and  C_22
REMARK    5  A    between atoms: C_23  and  O_24
REMARK    6  A    between atoms: C_23  and  C_25
REMARK    7  A    between atoms: C_25  and  C_27
REMARK    8  A    between atoms: C_27  and  O_28
REMARK                            x       y       z     vdW  Elec       q    Type
REMARK                         _______ _______ _______ _____ _____    ______ ____
ROOT
ATOM      1  C   UNL     1      -7.192  13.810  20.049  0.00  0.00    +0.000 C 
ATOM      2  C   UNL     1      -5.801  13.885  20.630  0.00  0.00    +0.000 C 
ATOM      3  C   UNL     1      -4.799  13.065  19.869  0.00  0.00    +0.000 C 
ATOM      4  C   UNL     1      -3.479  13.329  20.634  0.00  0.00    +0.000 C 
ATOM      5  C   UNL     1      -2.581  12.042  20.539  0.00  0.00    +0.000 C 
ATOM      6  C   UNL     1      -2.422  11.583  19.052  0.00  0.00    +0.000 C 
ATOM      7  C   UNL     1      -1.002  11.479  18.544  0.00  0.00    +0.000 C 
ATOM      8  C   UNL     1      -0.328  12.680  19.124  0.00  0.00    +0.000 C 
ATOM      9  C   UNL     1      -0.366  13.857  18.470  0.00  0.00    +0.000 C 
ATOM     10  C   UNL     1      -0.012  15.112  19.161  0.00  0.00    +0.000 C 
ATOM     11  O   UNL     1      -0.342  16.206  18.725  0.00  0.00    +0.000 OA
ATOM     12  C   UNL     1       0.760  14.969  20.412  0.00  0.00    +0.000 C 
ATOM     13  C   UNL     1       0.820  13.783  21.036  0.00  0.00    +0.000 C 
ATOM     14  C   UNL     1       0.066  12.533  20.593  0.00  0.00    +0.000 C 
ATOM     15  C   UNL     1       1.115  11.385  20.719  0.00  0.00    +0.000 C 
ATOM     16  C   UNL     1      -1.271  12.149  21.436  0.00  0.00    +0.000 C 
ATOM     17  F   UNL     1      -1.066  10.851  21.880  0.00  0.00    +0.000 F 
ATOM     18  C   UNL     1      -1.665  12.947  22.727  0.00  0.00    +0.000 C 
ATOM     19  C   UNL     1      -2.975  12.948  23.072  0.00  0.00    +0.000 C 
ATOM     20  C   UNL     1      -3.918  13.756  22.134  0.00  0.00    +0.000 C 
ATOM     21  C   UNL     1      -3.703  15.266  22.420  0.00  0.00    +0.000 C 
ATOM     22  C   UNL     1      -5.475  13.429  22.096  0.00  0.00    +0.000 C 
ENDROOT
BRANCH  18  23
ATOM     23  O   UNL     1      -0.955  14.106  22.991  0.00  0.00    +0.000 OA
ATOM     24  H   UNL     1      -1.591  14.843  22.962  0.00  0.00    +0.000 HD
ENDBRANCH  18  23
BRANCH  22  25
ATOM     25  O   UNL     1      -5.600  11.995  22.271  0.00  0.00    +0.000 OA
ATOM     26  H   UNL     1      -4.887  11.581  21.747  0.00  0.00    +0.000 HD
ENDBRANCH  22  25
BRANCH  22  27
ATOM     27  C   UNL     1      -6.582  14.018  23.001  0.00  0.00    +0.000 C 
ATOM     28  O   UNL     1      -7.127  15.103  22.806  0.00  0.00    +0.000 OA
BRANCH  27  29
ATOM     29  C   UNL     1      -7.043  13.087  24.162  0.00  0.00    +0.000 C 
BRANCH  29  30
ATOM     30  O   UNL     1      -7.912  12.030  23.816  0.00  0.00    +0.000 OA
ATOM     31  H   UNL     1      -8.234  11.639  24.645  0.00  0.00    +0.000 HD
ENDBRANCH  29  30
ENDBRANCH  27  29
ENDBRANCH  22  27
TORSDOF 5
ENDMDL
MODEL 9
REMARK VINA RESULT:      -5.6      2.842      4.644
REMARK  Name = 
REMARK  8 active torsions:
REMARK  status: ('A' for Active; 'I' for Inactive)
REMARK    1  A    between atoms: C_1  and  C_2
REMARK    2  A    between atoms: C_14  and  C_15
REMARK    3  A    between atoms: C_18  and  O_19
REMARK    4  A    between atoms: C_21  and  C_22
REMARK    5  A    between atoms: C_23  and  O_24
REMARK    6  A    between atoms: C_23  and  C_25
REMARK    7  A    between atoms: C_25  and  C_27
REMARK    8  A    between atoms: C_27  and  O_28
REMARK                            x       y       z     vdW  Elec       q    Type
REMARK                         _______ _______ _______ _____ _____    ______ ____
ROOT
ATOM      1  C   UNL     1       0.781   9.541  21.874  0.00  0.00    +0.000 C 
ATOM      2  C   UNL     1       0.221  10.939  21.776  0.00  0.00    +0.000 C 
ATOM      3  C   UNL     1      -0.997  11.148  22.629  0.00  0.00    +0.000 C 
ATOM      4  C   UNL     1      -1.350  12.634  22.373  0.00  0.00    +0.000 C 
ATOM      5  C   UNL     1      -2.910  12.802  22.482  0.00  0.00    +0.000 C 
ATOM      6  C   UNL     1      -3.442  12.200  23.825  0.00  0.00    +0.000 C 
ATOM      7  C   UNL     1      -4.211  13.151  24.713  0.00  0.00    +0.000 C 
ATOM      8  C   UNL     1      -3.442  14.428  24.617  0.00  0.00    +0.000 C 
ATOM      9  C   UNL     1      -2.406  14.656  25.448  0.00  0.00    +0.000 C 
ATOM     10  C   UNL     1      -1.436  15.730  25.161  0.00  0.00    +0.000 C 
ATOM     11  O   UNL     1      -0.330  15.760  25.683  0.00  0.00    +0.000 OA
ATOM     12  C   UNL     1      -1.878  16.767  24.206  0.00  0.00    +0.000 C 
ATOM     13  C   UNL     1      -2.933  16.542  23.408  0.00  0.00    +0.000 C 
ATOM     14  C   UNL     1      -3.704  15.227  23.341  0.00  0.00    +0.000 C 
ATOM     15  C   UNL     1      -5.203  15.660  23.318  0.00  0.00    +0.000 C 
ATOM     16  C   UNL     1      -3.392  14.262  22.070  0.00  0.00    +0.000 C 
ATOM     17  F   UNL     1      -4.620  14.045  21.463  0.00  0.00    +0.000 F 
ATOM     18  C   UNL     1      -2.458  14.740  20.906  0.00  0.00    +0.000 C 
ATOM     19  C   UNL     1      -1.836  13.778  20.183  0.00  0.00    +0.000 C 
ATOM     20  C   UNL     1      -0.716  12.995  20.927  0.00  0.00    +0.000 C 
ATOM     21  C   UNL     1       0.530  13.915  21.026  0.00  0.00    +0.000 C 
ATOM     22  C   UNL     1      -0.282  11.550  20.420  0.00  0.00    +0.000 C 
ENDROOT
BRANCH  18  23
ATOM     23  O   UNL     1      -1.753  15.915  21.108  0.00  0.00    +0.000 OA
ATOM     24  H   UNL     1      -0.945  15.683  21.599  0.00  0.00    +0.000 HD
ENDBRANCH  18  23
BRANCH  22  25
ATOM     25  O   UNL     1      -1.487  10.905  19.934  0.00  0.00    +0.000 OA
ATOM     26  H   UNL     1      -1.268  10.512  19.067  0.00  0.00    +0.000 HD
ENDBRANCH  22  25
BRANCH  22  27
ATOM     27  C   UNL     1       0.786  11.208  19.354  0.00  0.00    +0.000 C 
ATOM     28  O   UNL     1       1.878  11.765  19.271  0.00  0.00    +0.000 OA
BRANCH  27  29
ATOM     29  C   UNL     1       0.418  10.019  18.419  0.00  0.00    +0.000 C 
BRANCH  29  30
ATOM     30  O   UNL     1      -0.575  10.265  17.445  0.00  0.00    +0.000 OA
ATOM     31  H   UNL     1      -0.149  10.193  16.575  0.00  0.00    +0.000 HD
ENDBRANCH  29  30
ENDBRANCH  27  29
ENDBRANCH  22  27
TORSDOF 5
ENDMDL
