MODEL 1
REMARK VINA RESULT:      -7.0      0.000      0.000
REMARK  Name = 
REMARK  11 active torsions:
REMARK  status: ('A' for Active; 'I' for Inactive)
REMARK    1  A    between atoms: C_1  and  C_2
REMARK    2  A    between atoms: C_2  and  C_3
REMARK    3  A    between atoms: C_2  and  C_4
REMARK    4  A    between atoms: N_6  and  C_7
REMARK    5  A    between atoms: N_6  and  C_26
REMARK    6  A    between atoms: C_7  and  C_8
REMARK    7  A    between atoms: N_10  and  C_11
REMARK    8  A    between atoms: C_11  and  C_12
REMARK    9  A    between atoms: C_18  and  C_19
REMARK   10  A    between atoms: C_26  and  C_27
REMARK   11  A    between atoms: C_26  and  C_28
REMARK                            x       y       z     vdW  Elec       q    Type
REMARK                         _______ _______ _______ _____ _____    ______ ____
ROOT
ATOM      1  C   UNL     1       4.009   6.188  17.788  0.00  0.00    +0.000 C 
ATOM      2  C   UNL     1       3.651   7.091  18.962  0.00  0.00    +0.000 C 
ATOM      3  N   UNL     1       2.355   7.691  18.597  0.00  0.00    +0.000 NA
ATOM      4  C   UNL     1       1.643   6.661  17.800  0.00  0.00    +0.000 C 
ATOM      5  C   UNL     1       2.648   5.527  17.481  0.00  0.00    +0.000 C 
ENDROOT
BRANCH   5   6
ATOM      6  C   UNL     1       2.400   4.212  18.203  0.00  0.00    +0.000 A 
ATOM      7  C   UNL     1       2.650   2.952  17.630  0.00  0.00    +0.000 A 
ATOM      8  C   UNL     1       2.332   1.773  18.312  0.00  0.00    +0.000 A 
ATOM      9  C   UNL     1       1.763   1.833  19.581  0.00  0.00    +0.000 A 
ATOM     10  C   UNL     1       1.529   3.071  20.160  0.00  0.00    +0.000 A 
ATOM     11  F   UNL     1       0.979   3.136  21.379  0.00  0.00    +0.000 F 
ATOM     12  C   UNL     1       1.850   4.250  19.494  0.00  0.00    +0.000 A 
ENDBRANCH   5   6
BRANCH   1  13
ATOM     13  C   UNL     1       5.210   5.261  18.023  0.00  0.00    +0.000 C 
BRANCH  13  16
ATOM     14  C   UNL     1       6.493   5.287  15.819  0.00  0.00    +0.000 C 
ATOM     15  O   UNL     1       7.406   5.748  15.126  0.00  0.00    +0.000 OA
ATOM     16  N   UNL     1       6.388   5.575  17.183  0.00  0.00    +0.000 N 
BRANCH  14  18
ATOM     17  C   UNL     1       5.728   4.207  13.675  0.00  0.00    +0.000 C 
ATOM     18  C   UNL     1       5.483   4.347  15.173  0.00  0.00    +0.000 C 
ATOM     19  C   UNL     1       5.577   2.982  15.863  0.00  0.00    +0.000 C 
ENDBRANCH  14  18
BRANCH  16  20
ATOM     20  C   UNL     1       7.525   6.260  17.848  0.00  0.00    +0.000 C 
ATOM     21  C   UNL     1       7.452   7.779  17.661  0.00  0.00    +0.000 C 
ATOM     22  C   UNL     1       7.696   5.891  19.325  0.00  0.00    +0.000 C 
ENDBRANCH  16  20
ENDBRANCH  13  16
ENDBRANCH   1  13
BRANCH   3  23
ATOM     23  C   UNL     1       2.570   8.940  17.834  0.00  0.00    +0.000 C 
BRANCH  23  24
ATOM     24  C   UNL     1       1.634  10.026  18.234  0.00  0.00    +0.000 A 
ATOM     25  C   UNL     1       0.290  10.063  18.540  0.00  0.00    +0.000 A 
ATOM     26  C   UNL     1      -0.020  11.418  18.804  0.00  0.00    +0.000 A 
ATOM     27  C   UNL     1       1.154  12.118  18.659  0.00  0.00    +0.000 A 
ATOM     28  O   UNL     1       2.166  11.281  18.317  0.00  0.00    +0.000 OA
ENDBRANCH  23  24
ENDBRANCH   3  23
TORSDOF 7
ENDMDL
MODEL 2
REMARK VINA RESULT:      -6.8      0.930      1.282
REMARK  Name = 
REMARK  11 active torsions:
REMARK  status: ('A' for Active; 'I' for Inactive)
REMARK    1  A    between atoms: C_1  and  C_2
REMARK    2  A    between atoms: C_2  and  C_3
REMARK    3  A    between atoms: C_2  and  C_4
REMARK    4  A    between atoms: N_6  and  C_7
REMARK    5  A    between atoms: N_6  and  C_26
REMARK    6  A    between atoms: C_7  and  C_8
REMARK    7  A    between atoms: N_10  and  C_11
REMARK    8  A    between atoms: C_11  and  C_12
REMARK    9  A    between atoms: C_18  and  C_19
REMARK   10  A    between atoms: C_26  and  C_27
REMARK   11  A    between atoms: C_26  and  C_28
REMARK                            x       y       z     vdW  Elec       q    Type
REMARK                         _______ _______ _______ _____ _____    ______ ____
ROOT
ATOM      1  C   UNL     1       4.009   6.112  17.787  0.00  0.00    +0.000 C 
ATOM      2  C   UNL     1       3.694   7.077  18.923  0.00  0.00    +0.000 C 
ATOM      3  N   UNL     1       2.374   7.642  18.585  0.00  0.00    +0.000 NA
ATOM      4  C   UNL     1       1.640   6.560  17.882  0.00  0.00    +0.000 C 
ATOM      5  C   UNL     1       2.644   5.421  17.581  0.00  0.00    +0.000 C 
ENDROOT
BRANCH   5   6
ATOM      6  C   UNL     1       2.448   4.146  18.388  0.00  0.00    +0.000 A 
ATOM      7  C   UNL     1       1.632   4.070  19.532  0.00  0.00    +0.000 A 
ATOM      8  C   UNL     1       1.548   2.891  20.280  0.00  0.00    +0.000 A 
ATOM      9  C   UNL     1       2.272   1.767  19.896  0.00  0.00    +0.000 A 
ATOM     10  C   UNL     1       3.065   1.829  18.759  0.00  0.00    +0.000 A 
ATOM     11  F   UNL     1       3.767   0.752  18.385  0.00  0.00    +0.000 F 
ATOM     12  C   UNL     1       3.150   2.994  18.002  0.00  0.00    +0.000 A 
ENDBRANCH   5   6
BRANCH   1  13
ATOM     13  C   UNL     1       5.233   5.214  18.017  0.00  0.00    +0.000 C 
BRANCH  13  16
ATOM     14  C   UNL     1       6.499   5.273  15.805  0.00  0.00    +0.000 C 
ATOM     15  O   UNL     1       7.398   5.754  15.107  0.00  0.00    +0.000 OA
ATOM     16  N   UNL     1       6.399   5.552  17.171  0.00  0.00    +0.000 N 
BRANCH  14  18
ATOM     17  C   UNL     1       5.698   4.237  13.652  0.00  0.00    +0.000 C 
ATOM     18  C   UNL     1       5.500   4.319  15.161  0.00  0.00    +0.000 C 
ATOM     19  C   UNL     1       5.667   2.936  15.800  0.00  0.00    +0.000 C 
ENDBRANCH  14  18
BRANCH  16  20
ATOM     20  C   UNL     1       7.529   6.254  17.831  0.00  0.00    +0.000 C 
ATOM     21  C   UNL     1       7.402   7.775  17.693  0.00  0.00    +0.000 C 
ATOM     22  C   UNL     1       7.746   5.846  19.291  0.00  0.00    +0.000 C 
ENDBRANCH  16  20
ENDBRANCH  13  16
ENDBRANCH   1  13
BRANCH   3  23
ATOM     23  C   UNL     1       2.536   8.847  17.743  0.00  0.00    +0.000 C 
BRANCH  23  24
ATOM     24  C   UNL     1       1.663   9.971  18.175  0.00  0.00    +0.000 A 
ATOM     25  C   UNL     1       0.331  10.069  18.517  0.00  0.00    +0.000 A 
ATOM     26  C   UNL     1       0.091  11.435  18.798  0.00  0.00    +0.000 A 
ATOM     27  C   UNL     1       1.293  12.080  18.628  0.00  0.00    +0.000 A 
ATOM     28  O   UNL     1       2.256  11.200  18.254  0.00  0.00    +0.000 OA
ENDBRANCH  23  24
ENDBRANCH   3  23
TORSDOF 7
ENDMDL
MODEL 3
REMARK VINA RESULT:      -6.7      3.157      7.794
REMARK  Name = 
REMARK  11 active torsions:
REMARK  status: ('A' for Active; 'I' for Inactive)
REMARK    1  A    between atoms: C_1  and  C_2
REMARK    2  A    between atoms: C_2  and  C_3
REMARK    3  A    between atoms: C_2  and  C_4
REMARK    4  A    between atoms: N_6  and  C_7
REMARK    5  A    between atoms: N_6  and  C_26
REMARK    6  A    between atoms: C_7  and  C_8
REMARK    7  A    between atoms: N_10  and  C_11
REMARK    8  A    between atoms: C_11  and  C_12
REMARK    9  A    between atoms: C_18  and  C_19
REMARK   10  A    between atoms: C_26  and  C_27
REMARK   11  A    between atoms: C_26  and  C_28
REMARK                            x       y       z     vdW  Elec       q    Type
REMARK                         _______ _______ _______ _____ _____    ______ ____
ROOT
ATOM      1  C   UNL     1       5.029   4.446  16.174  0.00  0.00    +0.000 C 
ATOM      2  C   UNL     1       5.975   3.478  15.474  0.00  0.00    +0.000 C 
ATOM      3  N   UNL     1       6.377   4.171  14.236  0.00  0.00    +0.000 NA
ATOM      4  C   UNL     1       6.402   5.617  14.571  0.00  0.00    +0.000 C 
ATOM      5  C   UNL     1       5.756   5.793  15.967  0.00  0.00    +0.000 C 
ENDROOT
BRANCH   5   6
ATOM      6  C   UNL     1       6.712   6.178  17.085  0.00  0.00    +0.000 A 
ATOM      7  C   UNL     1       7.048   5.322  18.150  0.00  0.00    +0.000 A 
ATOM      8  C   UNL     1       7.874   5.756  19.191  0.00  0.00    +0.000 A 
ATOM      9  C   UNL     1       8.383   7.051  19.185  0.00  0.00    +0.000 A 
ATOM     10  C   UNL     1       8.071   7.896  18.130  0.00  0.00    +0.000 A 
ATOM     11  F   UNL     1       8.555   9.144  18.119  0.00  0.00    +0.000 F 
ATOM     12  C   UNL     1       7.258   7.471  17.084  0.00  0.00    +0.000 A 
ENDBRANCH   5   6
BRANCH   1  13
ATOM     13  C   UNL     1       4.647   4.058  17.609  0.00  0.00    +0.000 C 
BRANCH  13  16
ATOM     14  C   UNL     1       2.355   5.059  18.105  0.00  0.00    +0.000 C 
ATOM     15  O   UNL     1       1.124   4.954  18.091  0.00  0.00    +0.000 OA
ATOM     16  N   UNL     1       3.189   3.968  17.843  0.00  0.00    +0.000 N 
BRANCH  14  18
ATOM     17  C   UNL     1       2.491   7.507  17.523  0.00  0.00    +0.000 C 
ATOM     18  C   UNL     1       2.974   6.406  18.459  0.00  0.00    +0.000 C 
ATOM     19  C   UNL     1       2.615   6.740  19.911  0.00  0.00    +0.000 C 
ENDBRANCH  14  18
BRANCH  16  20
ATOM     20  C   UNL     1       2.579   2.616  17.773  0.00  0.00    +0.000 C 
ATOM     21  C   UNL     1       3.636   1.515  17.915  0.00  0.00    +0.000 C 
ATOM     22  C   UNL     1       1.423   2.404  18.756  0.00  0.00    +0.000 C 
ENDBRANCH  16  20
ENDBRANCH  13  16
ENDBRANCH   1  13
BRANCH   3  23
ATOM     23  C   UNL     1       5.423   3.864  13.148  0.00  0.00    +0.000 C 
BRANCH  23  24
ATOM     24  C   UNL     1       5.963   2.879  12.172  0.00  0.00    +0.000 A 
ATOM     25  C   UNL     1       5.421   1.801  11.505  0.00  0.00    +0.000 A 
ATOM     26  C   UNL     1       6.470   1.237  10.741  0.00  0.00    +0.000 A 
ATOM     27  C   UNL     1       7.579   2.015  10.975  0.00  0.00    +0.000 A 
ATOM     28  O   UNL     1       7.281   3.018  11.839  0.00  0.00    +0.000 OA
ENDBRANCH  23  24
ENDBRANCH   3  23
TORSDOF 7
ENDMDL
MODEL 4
REMARK VINA RESULT:      -6.5      2.444      6.492
REMARK  Name = 
REMARK  11 active torsions:
REMARK  status: ('A' for Active; 'I' for Inactive)
REMARK    1  A    between atoms: C_1  and  C_2
REMARK    2  A    between atoms: C_2  and  C_3
REMARK    3  A    between atoms: C_2  and  C_4
REMARK    4  A    between atoms: N_6  and  C_7
REMARK    5  A    between atoms: N_6  and  C_26
REMARK    6  A    between atoms: C_7  and  C_8
REMARK    7  A    between atoms: N_10  and  C_11
REMARK    8  A    between atoms: C_11  and  C_12
REMARK    9  A    between atoms: C_18  and  C_19
REMARK   10  A    between atoms: C_26  and  C_27
REMARK   11  A    between atoms: C_26  and  C_28
REMARK                            x       y       z     vdW  Elec       q    Type
REMARK                         _______ _______ _______ _____ _____    ______ ____
ROOT
ATOM      1  C   UNL     1       4.518   4.985  18.515  0.00  0.00    +0.000 C 
ATOM      2  C   UNL     1       5.747   5.555  19.212  0.00  0.00    +0.000 C 
ATOM      3  N   UNL     1       6.519   6.212  18.141  0.00  0.00    +0.000 NA
ATOM      4  C   UNL     1       5.515   6.729  17.178  0.00  0.00    +0.000 C 
ATOM      5  C   UNL     1       4.136   6.142  17.567  0.00  0.00    +0.000 C 
ENDROOT
BRANCH   5   6
ATOM      6  C   UNL     1       3.142   7.138  18.145  0.00  0.00    +0.000 A 
ATOM      7  C   UNL     1       2.660   8.254  17.437  0.00  0.00    +0.000 A 
ATOM      8  C   UNL     1       1.805   9.179  18.043  0.00  0.00    +0.000 A 
ATOM      9  C   UNL     1       1.413   9.003  19.367  0.00  0.00    +0.000 A 
ATOM     10  C   UNL     1       1.870   7.896  20.067  0.00  0.00    +0.000 A 
ATOM     11  F   UNL     1       1.499   7.722  21.341  0.00  0.00    +0.000 F 
ATOM     12  C   UNL     1       2.713   6.964  19.470  0.00  0.00    +0.000 A 
ENDBRANCH   5   6
BRANCH   1  13
ATOM     13  C   UNL     1       3.429   4.447  19.454  0.00  0.00    +0.000 C 
BRANCH  13  16
ATOM     14  C   UNL     1       1.696   2.580  19.568  0.00  0.00    +0.000 C 
ATOM     15  O   UNL     1       1.151   1.603  19.046  0.00  0.00    +0.000 OA
ATOM     16  N   UNL     1       2.855   3.150  19.033  0.00  0.00    +0.000 N 
BRANCH  14  18
ATOM     17  C   UNL     1       2.117   3.118  21.994  0.00  0.00    +0.000 C 
ATOM     18  C   UNL     1       1.107   3.150  20.854  0.00  0.00    +0.000 C 
ATOM     19  C   UNL     1       0.648   4.587  20.583  0.00  0.00    +0.000 C 
ENDBRANCH  14  18
BRANCH  16  20
ATOM     20  C   UNL     1       3.563   2.420  17.951  0.00  0.00    +0.000 C 
ATOM     21  C   UNL     1       3.947   1.002  18.389  0.00  0.00    +0.000 C 
ATOM     22  C   UNL     1       2.812   2.403  16.617  0.00  0.00    +0.000 C 
ENDBRANCH  16  20
ENDBRANCH  13  16
ENDBRANCH   1  13
BRANCH   3  23
ATOM     23  C   UNL     1       7.448   5.245  17.517  0.00  0.00    +0.000 C 
BRANCH  23  24
ATOM     24  C   UNL     1       7.017   4.833  16.153  0.00  0.00    +0.000 A 
ATOM     25  C   UNL     1       6.159   3.867  15.674  0.00  0.00    +0.000 A 
ATOM     26  C   UNL     1       6.211   3.953  14.262  0.00  0.00    +0.000 A 
ATOM     27  C   UNL     1       7.083   4.975  13.971  0.00  0.00    +0.000 A 
ATOM     28  O   UNL     1       7.575   5.520  15.112  0.00  0.00    +0.000 OA
ENDBRANCH  23  24
ENDBRANCH   3  23
TORSDOF 7
ENDMDL
MODEL 5
REMARK VINA RESULT:      -6.5      2.952      7.696
REMARK  Name = 
REMARK  11 active torsions:
REMARK  status: ('A' for Active; 'I' for Inactive)
REMARK    1  A    between atoms: C_1  and  C_2
REMARK    2  A    between atoms: C_2  and  C_3
REMARK    3  A    between atoms: C_2  and  C_4
REMARK    4  A    between atoms: N_6  and  C_7
REMARK    5  A    between atoms: N_6  and  C_26
REMARK    6  A    between atoms: C_7  and  C_8
REMARK    7  A    between atoms: N_10  and  C_11
REMARK    8  A    between atoms: C_11  and  C_12
REMARK    9  A    between atoms: C_18  and  C_19
REMARK   10  A    between atoms: C_26  and  C_27
REMARK   11  A    between atoms: C_26  and  C_28
REMARK                            x       y       z     vdW  Elec       q    Type
REMARK                         _______ _______ _______ _____ _____    ______ ____
ROOT
ATOM      1  C   UNL     1       4.980   4.461  16.255  0.00  0.00    +0.000 C 
ATOM      2  C   UNL     1       5.998   3.564  15.562  0.00  0.00    +0.000 C 
ATOM      3  N   UNL     1       6.268   4.224  14.271  0.00  0.00    +0.000 NA
ATOM      4  C   UNL     1       6.145   5.681  14.529  0.00  0.00    +0.000 C 
ATOM      5  C   UNL     1       5.542   5.865  15.943  0.00  0.00    +0.000 C 
ENDROOT
BRANCH   5   6
ATOM      6  C   UNL     1       6.496   6.416  16.992  0.00  0.00    +0.000 A 
ATOM      7  C   UNL     1       6.965   7.743  16.995  0.00  0.00    +0.000 A 
ATOM      8  C   UNL     1       7.900   8.175  17.940  0.00  0.00    +0.000 A 
ATOM      9  C   UNL     1       8.379   7.292  18.903  0.00  0.00    +0.000 A 
ATOM     10  C   UNL     1       7.909   5.987  18.918  0.00  0.00    +0.000 A 
ATOM     11  F   UNL     1       8.369   5.131  19.838  0.00  0.00    +0.000 F 
ATOM     12  C   UNL     1       6.972   5.548  17.987  0.00  0.00    +0.000 A 
ENDBRANCH   5   6
BRANCH   1  13
ATOM     13  C   UNL     1       4.704   4.117  17.725  0.00  0.00    +0.000 C 
BRANCH  13  16
ATOM     14  C   UNL     1       2.414   4.977  18.445  0.00  0.00    +0.000 C 
ATOM     15  O   UNL     1       1.190   4.820  18.504  0.00  0.00    +0.000 OA
ATOM     16  N   UNL     1       3.270   3.946  18.047  0.00  0.00    +0.000 N 
BRANCH  14  18
ATOM     17  C   UNL     1       2.847   7.362  17.758  0.00  0.00    +0.000 C 
ATOM     18  C   UNL     1       3.003   6.320  18.859  0.00  0.00    +0.000 C 
ATOM     19  C   UNL     1       2.303   6.785  20.141  0.00  0.00    +0.000 C 
ENDBRANCH  14  18
BRANCH  16  20
ATOM     20  C   UNL     1       2.709   2.577  17.915  0.00  0.00    +0.000 C 
ATOM     21  C   UNL     1       3.799   1.509  18.053  0.00  0.00    +0.000 C 
ATOM     22  C   UNL     1       1.533   2.293  18.855  0.00  0.00    +0.000 C 
ENDBRANCH  16  20
ENDBRANCH  13  16
ENDBRANCH   1  13
BRANCH   3  23
ATOM     23  C   UNL     1       5.309   3.753  13.248  0.00  0.00    +0.000 C 
BRANCH  23  24
ATOM     24  C   UNL     1       5.940   2.862  12.237  0.00  0.00    +0.000 A 
ATOM     25  C   UNL     1       5.499   1.771  11.518  0.00  0.00    +0.000 A 
ATOM     26  C   UNL     1       6.600   1.334  10.743  0.00  0.00    +0.000 A 
ATOM     27  C   UNL     1       7.635   2.193  11.025  0.00  0.00    +0.000 A 
ATOM     28  O   UNL     1       7.244   3.128  11.927  0.00  0.00    +0.000 OA
ENDBRANCH  23  24
ENDBRANCH   3  23
TORSDOF 7
ENDMDL
MODEL 6
REMARK VINA RESULT:      -6.4      2.774      6.647
REMARK  Name = 
REMARK  11 active torsions:
REMARK  status: ('A' for Active; 'I' for Inactive)
REMARK    1  A    between atoms: C_1  and  C_2
REMARK    2  A    between atoms: C_2  and  C_3
REMARK    3  A    between atoms: C_2  and  C_4
REMARK    4  A    between atoms: N_6  and  C_7
REMARK    5  A    between atoms: N_6  and  C_26
REMARK    6  A    between atoms: C_7  and  C_8
REMARK    7  A    between atoms: N_10  and  C_11
REMARK    8  A    between atoms: C_11  and  C_12
REMARK    9  A    between atoms: C_18  and  C_19
REMARK   10  A    between atoms: C_26  and  C_27
REMARK   11  A    between atoms: C_26  and  C_28
REMARK                            x       y       z     vdW  Elec       q    Type
REMARK                         _______ _______ _______ _____ _____    ______ ____
ROOT
ATOM      1  C   UNL     1       4.609   4.868  18.579  0.00  0.00    +0.000 C 
ATOM      2  C   UNL     1       5.873   5.382  19.255  0.00  0.00    +0.000 C 
ATOM      3  N   UNL     1       6.628   6.059  18.184  0.00  0.00    +0.000 NA
ATOM      4  C   UNL     1       5.607   6.636  17.274  0.00  0.00    +0.000 C 
ATOM      5  C   UNL     1       4.226   6.069  17.686  0.00  0.00    +0.000 C 
ENDROOT
BRANCH   5   6
ATOM      6  C   UNL     1       3.277   7.066  18.333  0.00  0.00    +0.000 A 
ATOM      7  C   UNL     1       2.780   6.929  19.642  0.00  0.00    +0.000 A 
ATOM      8  C   UNL     1       1.851   7.837  20.159  0.00  0.00    +0.000 A 
ATOM      9  C   UNL     1       1.405   8.900  19.379  0.00  0.00    +0.000 A 
ATOM     10  C   UNL     1       1.903   9.052  18.094  0.00  0.00    +0.000 A 
ATOM     11  F   UNL     1       1.477  10.071  17.337  0.00  0.00    +0.000 F 
ATOM     12  C   UNL     1       2.836   8.160  17.573  0.00  0.00    +0.000 A 
ENDBRANCH   5   6
BRANCH   1  13
ATOM     13  C   UNL     1       3.537   4.323  19.533  0.00  0.00    +0.000 C 
BRANCH  13  16
ATOM     14  C   UNL     1       1.687   2.567  19.565  0.00  0.00    +0.000 C 
ATOM     15  O   UNL     1       1.092   1.641  19.006  0.00  0.00    +0.000 OA
ATOM     16  N   UNL     1       2.890   3.076  19.066  0.00  0.00    +0.000 N 
BRANCH  14  18
ATOM     17  C   UNL     1       2.128   3.093  21.990  0.00  0.00    +0.000 C 
ATOM     18  C   UNL     1       1.111   3.139  20.856  0.00  0.00    +0.000 C 
ATOM     19  C   UNL     1       0.664   4.581  20.593  0.00  0.00    +0.000 C 
ENDBRANCH  14  18
BRANCH  16  20
ATOM     20  C   UNL     1       3.571   2.332  17.977  0.00  0.00    +0.000 C 
ATOM     21  C   UNL     1       3.955   0.916  18.419  0.00  0.00    +0.000 C 
ATOM     22  C   UNL     1       2.793   2.310  16.658  0.00  0.00    +0.000 C 
ENDBRANCH  16  20
ENDBRANCH  13  16
ENDBRANCH   1  13
BRANCH   3  23
ATOM     23  C   UNL     1       7.511   5.093  17.495  0.00  0.00    +0.000 C 
BRANCH  23  24
ATOM     24  C   UNL     1       7.032   4.751  16.128  0.00  0.00    +0.000 A 
ATOM     25  C   UNL     1       6.129   3.834  15.635  0.00  0.00    +0.000 A 
ATOM     26  C   UNL     1       6.148   3.974  14.227  0.00  0.00    +0.000 A 
ATOM     27  C   UNL     1       7.046   4.978  13.952  0.00  0.00    +0.000 A 
ATOM     28  O   UNL     1       7.586   5.460  15.100  0.00  0.00    +0.000 OA
ENDBRANCH  23  24
ENDBRANCH   3  23
TORSDOF 7
ENDMDL
MODEL 7
REMARK VINA RESULT:      -6.4      1.270      1.626
REMARK  Name = 
REMARK  11 active torsions:
REMARK  status: ('A' for Active; 'I' for Inactive)
REMARK    1  A    between atoms: C_1  and  C_2
REMARK    2  A    between atoms: C_2  and  C_3
REMARK    3  A    between atoms: C_2  and  C_4
REMARK    4  A    between atoms: N_6  and  C_7
REMARK    5  A    between atoms: N_6  and  C_26
REMARK    6  A    between atoms: C_7  and  C_8
REMARK    7  A    between atoms: N_10  and  C_11
REMARK    8  A    between atoms: C_11  and  C_12
REMARK    9  A    between atoms: C_18  and  C_19
REMARK   10  A    between atoms: C_26  and  C_27
REMARK   11  A    between atoms: C_26  and  C_28
REMARK                            x       y       z     vdW  Elec       q    Type
REMARK                         _______ _______ _______ _____ _____    ______ ____
ROOT
ATOM      1  C   UNL     1       4.092   6.024  18.051  0.00  0.00    +0.000 C 
ATOM      2  C   UNL     1       3.833   7.203  18.979  0.00  0.00    +0.000 C 
ATOM      3  N   UNL     1       2.439   7.600  18.707  0.00  0.00    +0.000 NA
ATOM      4  C   UNL     1       1.722   6.347  18.365  0.00  0.00    +0.000 C 
ATOM      5  C   UNL     1       2.777   5.227  18.188  0.00  0.00    +0.000 C 
ENDROOT
BRANCH   5   6
ATOM      6  C   UNL     1       2.787   4.162  19.274  0.00  0.00    +0.000 A 
ATOM      7  C   UNL     1       1.865   4.128  20.337  0.00  0.00    +0.000 A 
ATOM      8  C   UNL     1       1.967   3.169  21.349  0.00  0.00    +0.000 A 
ATOM      9  C   UNL     1       2.990   2.225  21.316  0.00  0.00    +0.000 A 
ATOM     10  C   UNL     1       3.892   2.242  20.263  0.00  0.00    +0.000 A 
ATOM     11  F   UNL     1       4.880   1.339  20.227  0.00  0.00    +0.000 F 
ATOM     12  C   UNL     1       3.794   3.186  19.245  0.00  0.00    +0.000 A 
ENDBRANCH   5   6
BRANCH   1  13
ATOM     13  C   UNL     1       5.407   5.272  18.305  0.00  0.00    +0.000 C 
BRANCH  13  16
ATOM     14  C   UNL     1       6.465   5.334  15.986  0.00  0.00    +0.000 C 
ATOM     15  O   UNL     1       7.297   5.816  15.210  0.00  0.00    +0.000 OA
ATOM     16  N   UNL     1       6.490   5.611  17.356  0.00  0.00    +0.000 N 
BRANCH  14  18
ATOM     17  C   UNL     1       5.517   4.247  13.921  0.00  0.00    +0.000 C 
ATOM     18  C   UNL     1       5.412   4.381  15.435  0.00  0.00    +0.000 C 
ATOM     19  C   UNL     1       5.591   3.016  16.108  0.00  0.00    +0.000 C 
ENDBRANCH  14  18
BRANCH  16  20
ATOM     20  C   UNL     1       7.676   6.313  17.911  0.00  0.00    +0.000 C 
ATOM     21  C   UNL     1       7.566   7.830  17.730  0.00  0.00    +0.000 C 
ATOM     22  C   UNL     1       7.989   5.949  19.366  0.00  0.00    +0.000 C 
ENDBRANCH  16  20
ENDBRANCH  13  16
ENDBRANCH   1  13
BRANCH   3  23
ATOM     23  C   UNL     1       2.397   8.588  17.607  0.00  0.00    +0.000 C 
BRANCH  23  24
ATOM     24  C   UNL     1       1.929   9.928  18.056  0.00  0.00    +0.000 A 
ATOM     25  C   UNL     1       2.379  11.214  17.851  0.00  0.00    +0.000 A 
ATOM     26  C   UNL     1       1.517  12.060  18.588  0.00  0.00    +0.000 A 
ATOM     27  C   UNL     1       0.588  11.239  19.182  0.00  0.00    +0.000 A 
ATOM     28  O   UNL     1       0.825   9.943  18.862  0.00  0.00    +0.000 OA
ENDBRANCH  23  24
ENDBRANCH   3  23
TORSDOF 7
ENDMDL
MODEL 8
REMARK VINA RESULT:      -6.3      0.925      2.586
REMARK  Name = 
REMARK  11 active torsions:
REMARK  status: ('A' for Active; 'I' for Inactive)
REMARK    1  A    between atoms: C_1  and  C_2
REMARK    2  A    between atoms: C_2  and  C_3
REMARK    3  A    between atoms: C_2  and  C_4
REMARK    4  A    between atoms: N_6  and  C_7
REMARK    5  A    between atoms: N_6  and  C_26
REMARK    6  A    between atoms: C_7  and  C_8
REMARK    7  A    between atoms: N_10  and  C_11
REMARK    8  A    between atoms: C_11  and  C_12
REMARK    9  A    between atoms: C_18  and  C_19
REMARK   10  A    between atoms: C_26  and  C_27
REMARK   11  A    between atoms: C_26  and  C_28
REMARK                            x       y       z     vdW  Elec       q    Type
REMARK                         _______ _______ _______ _____ _____    ______ ____
ROOT
ATOM      1  C   UNL     1       3.639   6.059  17.994  0.00  0.00    +0.000 C 
ATOM      2  C   UNL     1       3.499   7.140  19.058  0.00  0.00    +0.000 C 
ATOM      3  N   UNL     1       2.250   7.846  18.718  0.00  0.00    +0.000 NA
ATOM      4  C   UNL     1       1.353   6.820  18.129  0.00  0.00    +0.000 C 
ATOM      5  C   UNL     1       2.189   5.539  17.888  0.00  0.00    +0.000 C 
ENDROOT
BRANCH   5   6
ATOM      6  C   UNL     1       1.865   4.366  18.800  0.00  0.00    +0.000 A 
ATOM      7  C   UNL     1       1.218   3.196  18.361  0.00  0.00    +0.000 A 
ATOM      8  C   UNL     1       0.877   2.180  19.259  0.00  0.00    +0.000 A 
ATOM      9  C   UNL     1       1.180   2.313  20.611  0.00  0.00    +0.000 A 
ATOM     10  C   UNL     1       1.832   3.456  21.050  0.00  0.00    +0.000 A 
ATOM     11  F   UNL     1       2.124   3.592  22.349  0.00  0.00    +0.000 F 
ATOM     12  C   UNL     1       2.185   4.469  20.163  0.00  0.00    +0.000 A 
ENDBRANCH   5   6
BRANCH   1  13
ATOM     13  C   UNL     1       4.746   5.028  18.256  0.00  0.00    +0.000 C 
BRANCH  13  16
ATOM     14  C   UNL     1       6.976   5.598  17.157  0.00  0.00    +0.000 C 
ATOM     15  O   UNL     1       7.856   5.325  16.335  0.00  0.00    +0.000 OA
ATOM     16  N   UNL     1       5.749   4.928  17.172  0.00  0.00    +0.000 N 
BRANCH  14  18
ATOM     17  C   UNL     1       8.165   6.288  19.269  0.00  0.00    +0.000 C 
ATOM     18  C   UNL     1       7.224   6.725  18.153  0.00  0.00    +0.000 C 
ATOM     19  C   UNL     1       7.809   7.923  17.396  0.00  0.00    +0.000 C 
ENDBRANCH  14  18
BRANCH  16  20
ATOM     20  C   UNL     1       5.421   4.034  16.032  0.00  0.00    +0.000 C 
ATOM     21  C   UNL     1       4.328   3.027  16.406  0.00  0.00    +0.000 C 
ATOM     22  C   UNL     1       5.073   4.776  14.739  0.00  0.00    +0.000 C 
ENDBRANCH  16  20
ENDBRANCH  13  16
ENDBRANCH   1  13
BRANCH   3  23
ATOM     23  C   UNL     1       2.530   8.952  17.778  0.00  0.00    +0.000 C 
BRANCH  23  24
ATOM     24  C   UNL     1       1.896  10.233  18.193  0.00  0.00    +0.000 A 
ATOM     25  C   UNL     1       0.695  10.555  18.787  0.00  0.00    +0.000 A 
ATOM     26  C   UNL     1       0.663  11.966  18.883  0.00  0.00    +0.000 A 
ATOM     27  C   UNL     1       1.851  12.414  18.357  0.00  0.00    +0.000 A 
ATOM     28  O   UNL     1       2.610  11.370  17.939  0.00  0.00    +0.000 OA
ENDBRANCH  23  24
ENDBRANCH   3  23
TORSDOF 7
ENDMDL
MODEL 9
REMARK VINA RESULT:      -6.3      0.904      2.452
REMARK  Name = 
REMARK  11 active torsions:
REMARK  status: ('A' for Active; 'I' for Inactive)
REMARK    1  A    between atoms: C_1  and  C_2
REMARK    2  A    between atoms: C_2  and  C_3
REMARK    3  A    between atoms: C_2  and  C_4
REMARK    4  A    between atoms: N_6  and  C_7
REMARK    5  A    between atoms: N_6  and  C_26
REMARK    6  A    between atoms: C_7  and  C_8
REMARK    7  A    between atoms: N_10  and  C_11
REMARK    8  A    between atoms: C_11  and  C_12
REMARK    9  A    between atoms: C_18  and  C_19
REMARK   10  A    between atoms: C_26  and  C_27
REMARK   11  A    between atoms: C_26  and  C_28
REMARK                            x       y       z     vdW  Elec       q    Type
REMARK                         _______ _______ _______ _____ _____    ______ ____
ROOT
ATOM      1  C   UNL     1       3.582   6.386  18.071  0.00  0.00    +0.000 C 
ATOM      2  C   UNL     1       3.221   7.150  19.338  0.00  0.00    +0.000 C 
ATOM      3  N   UNL     1       1.888   7.723  19.069  0.00  0.00    +0.000 NA
ATOM      4  C   UNL     1       1.198   6.745  18.191  0.00  0.00    +0.000 C 
ATOM      5  C   UNL     1       2.242   5.697  17.733  0.00  0.00    +0.000 C 
ENDROOT
BRANCH   5   6
ATOM      6  C   UNL     1       2.074   4.306  18.326  0.00  0.00    +0.000 A 
ATOM      7  C   UNL     1       2.377   3.123  17.628  0.00  0.00    +0.000 A 
ATOM      8  C   UNL     1       2.132   1.868  18.195  0.00  0.00    +0.000 A 
ATOM      9  C   UNL     1       1.585   1.774  19.471  0.00  0.00    +0.000 A 
ATOM     10  C   UNL     1       1.300   2.936  20.173  0.00  0.00    +0.000 A 
ATOM     11  F   UNL     1       0.770   2.852  21.399  0.00  0.00    +0.000 F 
ATOM     12  C   UNL     1       1.548   4.189  19.622  0.00  0.00    +0.000 A 
ENDBRANCH   5   6
BRANCH   1  13
ATOM     13  C   UNL     1       4.829   5.499  18.180  0.00  0.00    +0.000 C 
BRANCH  13  16
ATOM     14  C   UNL     1       6.971   6.207  16.990  0.00  0.00    +0.000 C 
ATOM     15  O   UNL     1       7.763   6.064  16.054  0.00  0.00    +0.000 OA
ATOM     16  N   UNL     1       5.726   5.570  17.005  0.00  0.00    +0.000 N 
BRANCH  14  18
ATOM     17  C   UNL     1       8.249   6.440  19.149  0.00  0.00    +0.000 C 
ATOM     18  C   UNL     1       7.349   7.137  18.137  0.00  0.00    +0.000 C 
ATOM     19  C   UNL     1       8.050   8.369  17.553  0.00  0.00    +0.000 C 
ENDBRANCH  14  18
BRANCH  16  20
ATOM     20  C   UNL     1       5.265   4.895  15.765  0.00  0.00    +0.000 C 
ATOM     21  C   UNL     1       5.283   5.851  14.567  0.00  0.00    +0.000 C 
ATOM     22  C   UNL     1       6.012   3.596  15.449  0.00  0.00    +0.000 C 
ENDBRANCH  16  20
ENDBRANCH  13  16
ENDBRANCH   1  13
BRANCH   3  23
ATOM     23  C   UNL     1       2.025   9.050  18.430  0.00  0.00    +0.000 C 
BRANCH  23  24
ATOM     24  C   UNL     1       0.891   9.960  18.748  0.00  0.00    +0.000 A 
ATOM     25  C   UNL     1      -0.346  10.179  18.179  0.00  0.00    +0.000 A 
ATOM     26  C   UNL     1      -0.951  11.215  18.929  0.00  0.00    +0.000 A 
ATOM     27  C   UNL     1      -0.054  11.550  19.916  0.00  0.00    +0.000 A 
ATOM     28  O   UNL     1       1.066  10.791  19.819  0.00  0.00    +0.000 OA
ENDBRANCH  23  24
ENDBRANCH   3  23
TORSDOF 7
ENDMDL
