MODEL 1
REMARK VINA RESULT:      -8.8      0.000      0.000
REMARK  Name = 
REMARK  6 active torsions:
REMARK  status: ('A' for Active; 'I' for Inactive)
REMARK    1  A    between atoms: C_2  and  C_16
REMARK    2  A    between atoms: N_3  and  C_4
REMARK    3  A    between atoms: C_4  and  C_5
REMARK    4  A    between atoms: C_5  and  C_6
REMARK    5  A    between atoms: C_20  and  C_21
REMARK    6  A    between atoms: C_21  and  C_22
REMARK                            x       y       z     vdW  Elec       q    Type
REMARK                         _______ _______ _______ _____ _____    ______ ____
ROOT
ATOM      1  O   UNL     1       2.251   5.188  20.257  0.00  0.00    +0.000 OA
ATOM      2  C   UNL     1       2.584   6.212  19.685  0.00  0.00    +0.000 C 
ATOM      3  N   UNL     1       3.588   6.276  18.735  0.00  0.00    +0.000 N 
ATOM      4  H   UNL     1       3.989   7.180  18.521  0.00  0.00    +0.000 HD
ENDROOT
BRANCH   2   5
ATOM      5  C   UNL     1       1.981   7.522  20.062  0.00  0.00    +0.000 A 
ATOM      6  C   UNL     1       1.662   7.830  21.388  0.00  0.00    +0.000 A 
ATOM      7  C   UNL     1       0.975   9.012  21.673  0.00  0.00    +0.000 A 
ATOM      8  C   UNL     1       0.591   9.870  20.641  0.00  0.00    +0.000 A 
ATOM      9  C   UNL     1       0.927   9.587  19.309  0.00  0.00    +0.000 A 
ATOM     10  C   UNL     1       1.673   8.426  19.039  0.00  0.00    +0.000 A 
BRANCH   9  11
ATOM     11  C   UNL     1       0.415  10.473  18.197  0.00  0.00    +0.000 C 
BRANCH  11  12
ATOM     12  C   UNL     1      -1.085  10.609  18.090  0.00  0.00    +0.000 A 
ATOM     13  C   UNL     1      -1.761  11.602  18.818  0.00  0.00    +0.000 A 
ATOM     14  C   UNL     1      -3.136  11.788  18.653  0.00  0.00    +0.000 A 
ATOM     15  C   UNL     1      -3.838  11.003  17.742  0.00  0.00    +0.000 A 
ATOM     16 CL   UNL     1      -5.518  11.277  17.490  0.00  0.00    +0.000 Cl
ATOM     17  C   UNL     1      -3.183  10.010  17.015  0.00  0.00    +0.000 A 
ATOM     18  C   UNL     1      -1.815   9.798  17.208  0.00  0.00    +0.000 A 
ENDBRANCH  11  12
ENDBRANCH   9  11
ENDBRANCH   2   5
BRANCH   3  19
ATOM     19  C   UNL     1       4.347   5.081  18.386  0.00  0.00    +0.000 C 
BRANCH  19  20
ATOM     20  C   UNL     1       4.226   4.742  16.899  0.00  0.00    +0.000 C 
BRANCH  20  21
ATOM     21  C   UNL     1       5.459   5.046  16.103  0.00  0.00    +0.000 A 
ATOM     22  C   UNL     1       6.534   5.790  16.547  0.00  0.00    +0.000 A 
ATOM     23  N   UNL     1       7.478   5.829  15.559  0.00  0.00    +0.000 N 
ATOM     24  C   UNL     1       7.049   5.115  14.465  0.00  0.00    +0.000 A 
ATOM     25  C   UNL     1       7.691   4.883  13.241  0.00  0.00    +0.000 A 
ATOM     26  C   UNL     1       7.023   4.099  12.298  0.00  0.00    +0.000 A 
ATOM     27  C   UNL     1       5.765   3.574  12.578  0.00  0.00    +0.000 A 
ATOM     28 CL   UNL     1       4.974   2.603  11.394  0.00  0.00    +0.000 Cl
ATOM     29  C   UNL     1       5.131   3.816  13.804  0.00  0.00    +0.000 A 
ATOM     30  C   UNL     1       5.785   4.606  14.774  0.00  0.00    +0.000 A 
ATOM     31  H   UNL     1       8.369   6.302  15.621  0.00  0.00    +0.000 HD
ENDBRANCH  20  21
ENDBRANCH  19  20
ENDBRANCH   3  19
TORSDOF 6
ENDMDL
MODEL 2
REMARK VINA RESULT:      -8.7      1.213      1.630
REMARK  Name = 
REMARK  6 active torsions:
REMARK  status: ('A' for Active; 'I' for Inactive)
REMARK    1  A    between atoms: C_2  and  C_16
REMARK    2  A    between atoms: N_3  and  C_4
REMARK    3  A    between atoms: C_4  and  C_5
REMARK    4  A    between atoms: C_5  and  C_6
REMARK    5  A    between atoms: C_20  and  C_21
REMARK    6  A    between atoms: C_21  and  C_22
REMARK                            x       y       z     vdW  Elec       q    Type
REMARK                         _______ _______ _______ _____ _____    ______ ____
ROOT
ATOM      1  O   UNL     1       3.541   7.256  17.617  0.00  0.00    +0.000 OA
ATOM      2  C   UNL     1       2.747   6.881  18.463  0.00  0.00    +0.000 C 
ATOM      3  N   UNL     1       2.384   5.558  18.650  0.00  0.00    +0.000 N 
ATOM      4  H   UNL     1       1.533   5.362  19.162  0.00  0.00    +0.000 HD
ENDROOT
BRANCH   2   5
ATOM      5  C   UNL     1       2.015   7.865  19.308  0.00  0.00    +0.000 A 
ATOM      6  C   UNL     1       1.651   7.575  20.627  0.00  0.00    +0.000 A 
ATOM      7  C   UNL     1       0.848   8.473  21.333  0.00  0.00    +0.000 A 
ATOM      8  C   UNL     1       0.393   9.642  20.721  0.00  0.00    +0.000 A 
ATOM      9  C   UNL     1       0.770   9.959  19.407  0.00  0.00    +0.000 A 
ATOM     10  C   UNL     1       1.630   9.079  18.726  0.00  0.00    +0.000 A 
BRANCH   9  11
ATOM     11  C   UNL     1       0.185  11.176  18.727  0.00  0.00    +0.000 C 
BRANCH  11  12
ATOM     12  C   UNL     1      -1.298  11.133  18.445  0.00  0.00    +0.000 A 
ATOM     13  C   UNL     1      -1.835  10.122  17.632  0.00  0.00    +0.000 A 
ATOM     14  C   UNL     1      -3.216  10.026  17.441  0.00  0.00    +0.000 A 
ATOM     15  C   UNL     1      -4.069  10.922  18.082  0.00  0.00    +0.000 A 
ATOM     16 CL   UNL     1      -5.773  10.763  17.901  0.00  0.00    +0.000 Cl
ATOM     17  C   UNL     1      -3.551  11.933  18.888  0.00  0.00    +0.000 A 
ATOM     18  C   UNL     1      -2.167  12.053  19.048  0.00  0.00    +0.000 A 
ENDBRANCH  11  12
ENDBRANCH   9  11
ENDBRANCH   2   5
BRANCH   3  19
ATOM     19  C   UNL     1       2.928   4.517  17.787  0.00  0.00    +0.000 C 
BRANCH  19  20
ATOM     20  C   UNL     1       4.212   3.914  18.360  0.00  0.00    +0.000 C 
BRANCH  20  21
ATOM     21  C   UNL     1       5.462   4.376  17.672  0.00  0.00    +0.000 A 
ATOM     22  C   UNL     1       6.582   4.878  18.303  0.00  0.00    +0.000 A 
ATOM     23  N   UNL     1       7.525   5.167  17.357  0.00  0.00    +0.000 N 
ATOM     24  C   UNL     1       7.050   4.856  16.104  0.00  0.00    +0.000 A 
ATOM     25  C   UNL     1       7.675   4.979  14.856  0.00  0.00    +0.000 A 
ATOM     26  C   UNL     1       6.958   4.570  13.730  0.00  0.00    +0.000 A 
ATOM     27  C   UNL     1       5.669   4.060  13.859  0.00  0.00    +0.000 A 
ATOM     28 CL   UNL     1       4.817   3.555  12.449  0.00  0.00    +0.000 Cl
ATOM     29  C   UNL     1       5.053   3.946  15.112  0.00  0.00    +0.000 A 
ATOM     30  C   UNL     1       5.757   4.353  16.266  0.00  0.00    +0.000 A 
ATOM     31  H   UNL     1       8.444   5.543  17.545  0.00  0.00    +0.000 HD
ENDBRANCH  20  21
ENDBRANCH  19  20
ENDBRANCH   3  19
TORSDOF 6
ENDMDL
MODEL 3
REMARK VINA RESULT:      -8.7      6.149      8.319
REMARK  Name = 
REMARK  6 active torsions:
REMARK  status: ('A' for Active; 'I' for Inactive)
REMARK    1  A    between atoms: C_2  and  C_16
REMARK    2  A    between atoms: N_3  and  C_4
REMARK    3  A    between atoms: C_4  and  C_5
REMARK    4  A    between atoms: C_5  and  C_6
REMARK    5  A    between atoms: C_20  and  C_21
REMARK    6  A    between atoms: C_21  and  C_22
REMARK                            x       y       z     vdW  Elec       q    Type
REMARK                         _______ _______ _______ _____ _____    ______ ____
ROOT
ATOM      1  O   UNL     1       8.405   6.594  19.138  0.00  0.00    +0.000 OA
ATOM      2  C   UNL     1       7.807   7.067  18.188  0.00  0.00    +0.000 C 
ATOM      3  N   UNL     1       7.931   8.381  17.771  0.00  0.00    +0.000 N 
ATOM      4  H   UNL     1       7.211   8.765  17.172  0.00  0.00    +0.000 HD
ENDROOT
BRANCH   2   5
ATOM      5  C   UNL     1       6.791   6.262  17.452  0.00  0.00    +0.000 A 
ATOM      6  C   UNL     1       7.032   5.772  16.165  0.00  0.00    +0.000 A 
ATOM      7  C   UNL     1       6.002   5.142  15.464  0.00  0.00    +0.000 A 
ATOM      8  C   UNL     1       4.734   5.021  16.034  0.00  0.00    +0.000 A 
ATOM      9  C   UNL     1       4.483   5.483  17.334  0.00  0.00    +0.000 A 
ATOM     10  C   UNL     1       5.544   6.061  18.056  0.00  0.00    +0.000 A 
BRANCH   9  11
ATOM     11  C   UNL     1       3.081   5.436  17.895  0.00  0.00    +0.000 C 
BRANCH  11  12
ATOM     12  C   UNL     1       2.565   6.715  18.510  0.00  0.00    +0.000 A 
ATOM     13  C   UNL     1       2.310   7.836  17.704  0.00  0.00    +0.000 A 
ATOM     14  C   UNL     1       1.748   8.991  18.255  0.00  0.00    +0.000 A 
ATOM     15  C   UNL     1       1.415   9.023  19.607  0.00  0.00    +0.000 A 
ATOM     16 CL   UNL     1       0.661  10.420  20.272  0.00  0.00    +0.000 Cl
ATOM     17  C   UNL     1       1.666   7.920  20.421  0.00  0.00    +0.000 A 
ATOM     18  C   UNL     1       2.263   6.778  19.878  0.00  0.00    +0.000 A 
ENDBRANCH  11  12
ENDBRANCH   9  11
ENDBRANCH   2   5
BRANCH   3  19
ATOM     19  C   UNL     1       8.790   9.305  18.501  0.00  0.00    +0.000 C 
BRANCH  19  20
ATOM     20  C   UNL     1       8.494  10.764  18.144  0.00  0.00    +0.000 C 
BRANCH  20  21
ATOM     21  C   UNL     1       9.720  11.600  17.935  0.00  0.00    +0.000 A 
ATOM     22  C   UNL     1      10.988  11.113  17.692  0.00  0.00    +0.000 A 
ATOM     23  N   UNL     1      11.840  12.170  17.528  0.00  0.00    +0.000 N 
ATOM     24  C   UNL     1      11.153  13.355  17.650  0.00  0.00    +0.000 A 
ATOM     25  C   UNL     1      11.620  14.672  17.549  0.00  0.00    +0.000 A 
ATOM     26  C   UNL     1      10.690  15.702  17.705  0.00  0.00    +0.000 A 
ATOM     27  C   UNL     1       9.351  15.414  17.953  0.00  0.00    +0.000 A 
ATOM     28 CL   UNL     1       8.229  16.711  18.131  0.00  0.00    +0.000 Cl
ATOM     29  C   UNL     1       8.897  14.093  18.057  0.00  0.00    +0.000 A 
ATOM     30  C   UNL     1       9.817  13.034  17.903  0.00  0.00    +0.000 A 
ATOM     31  H   UNL     1      12.829  12.097  17.332  0.00  0.00    +0.000 HD
ENDBRANCH  20  21
ENDBRANCH  19  20
ENDBRANCH   3  19
TORSDOF 6
ENDMDL
MODEL 4
REMARK VINA RESULT:      -8.7      5.409      7.422
REMARK  Name = 
REMARK  6 active torsions:
REMARK  status: ('A' for Active; 'I' for Inactive)
REMARK    1  A    between atoms: C_2  and  C_16
REMARK    2  A    between atoms: N_3  and  C_4
REMARK    3  A    between atoms: C_4  and  C_5
REMARK    4  A    between atoms: C_5  and  C_6
REMARK    5  A    between atoms: C_20  and  C_21
REMARK    6  A    between atoms: C_21  and  C_22
REMARK                            x       y       z     vdW  Elec       q    Type
REMARK                         _______ _______ _______ _____ _____    ______ ____
ROOT
ATOM      1  O   UNL     1       7.771   5.419  16.711  0.00  0.00    +0.000 OA
ATOM      2  C   UNL     1       6.881   5.973  17.333  0.00  0.00    +0.000 C 
ATOM      3  N   UNL     1       7.020   7.204  17.953  0.00  0.00    +0.000 N 
ATOM      4  H   UNL     1       6.351   7.459  18.668  0.00  0.00    +0.000 HD
ENDROOT
BRANCH   2   5
ATOM      5  C   UNL     1       5.576   5.292  17.563  0.00  0.00    +0.000 A 
ATOM      6  C   UNL     1       5.117   4.278  16.715  0.00  0.00    +0.000 A 
ATOM      7  C   UNL     1       3.830   3.765  16.890  0.00  0.00    +0.000 A 
ATOM      8  C   UNL     1       2.999   4.275  17.888  0.00  0.00    +0.000 A 
ATOM      9  C   UNL     1       3.454   5.273  18.763  0.00  0.00    +0.000 A 
ATOM     10  C   UNL     1       4.773   5.739  18.618  0.00  0.00    +0.000 A 
BRANCH   9  11
ATOM     11  C   UNL     1       2.507   5.883  19.770  0.00  0.00    +0.000 C 
BRANCH  11  12
ATOM     12  C   UNL     1       2.092   7.312  19.514  0.00  0.00    +0.000 A 
ATOM     13  C   UNL     1       2.133   7.840  18.213  0.00  0.00    +0.000 A 
ATOM     14  C   UNL     1       1.665   9.132  17.959  0.00  0.00    +0.000 A 
ATOM     15  C   UNL     1       1.130   9.893  18.995  0.00  0.00    +0.000 A 
ATOM     16 CL   UNL     1       0.493  11.458  18.669  0.00  0.00    +0.000 Cl
ATOM     17  C   UNL     1       1.086   9.385  20.292  0.00  0.00    +0.000 A 
ATOM     18  C   UNL     1       1.589   8.107  20.555  0.00  0.00    +0.000 A 
ENDBRANCH  11  12
ENDBRANCH   9  11
ENDBRANCH   2   5
BRANCH   3  19
ATOM     19  C   UNL     1       8.298   7.904  17.917  0.00  0.00    +0.000 C 
BRANCH  19  20
ATOM     20  C   UNL     1       8.117   9.423  17.899  0.00  0.00    +0.000 C 
BRANCH  20  21
ATOM     21  C   UNL     1       8.935  10.146  18.926  0.00  0.00    +0.000 A 
ATOM     22  C   UNL     1       8.840   9.972  20.292  0.00  0.00    +0.000 A 
ATOM     23  N   UNL     1       9.759  10.779  20.902  0.00  0.00    +0.000 N 
ATOM     24  C   UNL     1      10.472  11.483  19.959  0.00  0.00    +0.000 A 
ATOM     25  C   UNL     1      11.508  12.410  20.131  0.00  0.00    +0.000 A 
ATOM     26  C   UNL     1      12.071  12.972  18.983  0.00  0.00    +0.000 A 
ATOM     27  C   UNL     1      11.608  12.614  17.721  0.00  0.00    +0.000 A 
ATOM     28 CL   UNL     1      12.333  13.319  16.325  0.00  0.00    +0.000 Cl
ATOM     29  C   UNL     1      10.568  11.689  17.561  0.00  0.00    +0.000 A 
ATOM     30  C   UNL     1       9.982  11.107  18.706  0.00  0.00    +0.000 A 
ATOM     31  H   UNL     1       9.908  10.845  21.899  0.00  0.00    +0.000 HD
ENDBRANCH  20  21
ENDBRANCH  19  20
ENDBRANCH   3  19
TORSDOF 6
ENDMDL
MODEL 5
REMARK VINA RESULT:      -8.6      6.322      9.063
REMARK  Name = 
REMARK  6 active torsions:
REMARK  status: ('A' for Active; 'I' for Inactive)
REMARK    1  A    between atoms: C_2  and  C_16
REMARK    2  A    between atoms: N_3  and  C_4
REMARK    3  A    between atoms: C_4  and  C_5
REMARK    4  A    between atoms: C_5  and  C_6
REMARK    5  A    between atoms: C_20  and  C_21
REMARK    6  A    between atoms: C_21  and  C_22
REMARK                            x       y       z     vdW  Elec       q    Type
REMARK                         _______ _______ _______ _____ _____    ______ ____
ROOT
ATOM      1  O   UNL     1       8.361   6.359  19.252  0.00  0.00    +0.000 OA
ATOM      2  C   UNL     1       7.780   6.794  18.273  0.00  0.00    +0.000 C 
ATOM      3  N   UNL     1       7.901   8.095  17.816  0.00  0.00    +0.000 N 
ATOM      4  H   UNL     1       7.191   8.451  17.188  0.00  0.00    +0.000 HD
ENDROOT
BRANCH   2   5
ATOM      5  C   UNL     1       6.789   5.954  17.541  0.00  0.00    +0.000 A 
ATOM      6  C   UNL     1       7.152   5.194  16.425  0.00  0.00    +0.000 A 
ATOM      7  C   UNL     1       6.164   4.533  15.692  0.00  0.00    +0.000 A 
ATOM      8  C   UNL     1       4.822   4.648  16.057  0.00  0.00    +0.000 A 
ATOM      9  C   UNL     1       4.445   5.385  17.188  0.00  0.00    +0.000 A 
ATOM     10  C   UNL     1       5.453   5.996  17.956  0.00  0.00    +0.000 A 
BRANCH   9  11
ATOM     11  C   UNL     1       2.981   5.582  17.508  0.00  0.00    +0.000 C 
BRANCH  11  12
ATOM     12  C   UNL     1       2.442   4.795  18.678  0.00  0.00    +0.000 A 
ATOM     13  C   UNL     1       1.945   3.495  18.489  0.00  0.00    +0.000 A 
ATOM     14  C   UNL     1       1.530   2.731  19.582  0.00  0.00    +0.000 A 
ATOM     15  C   UNL     1       1.633   3.249  20.871  0.00  0.00    +0.000 A 
ATOM     16 CL   UNL     1       1.184   2.283  22.223  0.00  0.00    +0.000 Cl
ATOM     17  C   UNL     1       2.119   4.539  21.075  0.00  0.00    +0.000 A 
ATOM     18  C   UNL     1       2.499   5.319  19.978  0.00  0.00    +0.000 A 
ENDBRANCH  11  12
ENDBRANCH   9  11
ENDBRANCH   2   5
BRANCH   3  19
ATOM     19  C   UNL     1       8.733   9.052  18.534  0.00  0.00    +0.000 C 
BRANCH  19  20
ATOM     20  C   UNL     1       8.697  10.438  17.889  0.00  0.00    +0.000 C 
BRANCH  20  21
ATOM     21  C   UNL     1       9.597  11.440  18.547  0.00  0.00    +0.000 A 
ATOM     22  C   UNL     1      10.851  11.173  19.059  0.00  0.00    +0.000 A 
ATOM     23  N   UNL     1      11.379  12.333  19.554  0.00  0.00    +0.000 N 
ATOM     24  C   UNL     1      10.495  13.371  19.371  0.00  0.00    +0.000 A 
ATOM     25  C   UNL     1      10.623  14.724  19.714  0.00  0.00    +0.000 A 
ATOM     26  C   UNL     1       9.563  15.575  19.395  0.00  0.00    +0.000 A 
ATOM     27  C   UNL     1       8.427  15.083  18.759  0.00  0.00    +0.000 A 
ATOM     28 CL   UNL     1       7.142  16.164  18.372  0.00  0.00    +0.000 Cl
ATOM     29  C   UNL     1       8.309  13.727  18.425  0.00  0.00    +0.000 A 
ATOM     30  C   UNL     1       9.366  12.846  18.738  0.00  0.00    +0.000 A 
ATOM     31  H   UNL     1      12.289  12.424  19.982  0.00  0.00    +0.000 HD
ENDBRANCH  20  21
ENDBRANCH  19  20
ENDBRANCH   3  19
TORSDOF 6
ENDMDL
MODEL 6
REMARK VINA RESULT:      -8.4      1.049      1.206
REMARK  Name = 
REMARK  6 active torsions:
REMARK  status: ('A' for Active; 'I' for Inactive)
REMARK    1  A    between atoms: C_2  and  C_16
REMARK    2  A    between atoms: N_3  and  C_4
REMARK    3  A    between atoms: C_4  and  C_5
REMARK    4  A    between atoms: C_5  and  C_6
REMARK    5  A    between atoms: C_20  and  C_21
REMARK    6  A    between atoms: C_21  and  C_22
REMARK                            x       y       z     vdW  Elec       q    Type
REMARK                         _______ _______ _______ _____ _____    ______ ____
ROOT
ATOM      1  O   UNL     1       1.270   4.728  17.607  0.00  0.00    +0.000 OA
ATOM      2  C   UNL     1       2.213   5.400  17.985  0.00  0.00    +0.000 C 
ATOM      3  N   UNL     1       3.537   5.098  17.714  0.00  0.00    +0.000 N 
ATOM      4  H   UNL     1       4.254   5.528  18.284  0.00  0.00    +0.000 HD
ENDROOT
BRANCH   2   5
ATOM      5  C   UNL     1       2.001   6.572  18.881  0.00  0.00    +0.000 A 
ATOM      6  C   UNL     1       1.892   6.426  20.268  0.00  0.00    +0.000 A 
ATOM      7  C   UNL     1       1.557   7.533  21.052  0.00  0.00    +0.000 A 
ATOM      8  C   UNL     1       1.312   8.770  20.454  0.00  0.00    +0.000 A 
ATOM      9  C   UNL     1       1.444   8.938  19.068  0.00  0.00    +0.000 A 
ATOM     10  C   UNL     1       1.842   7.833  18.295  0.00  0.00    +0.000 A 
BRANCH   9  11
ATOM     11  C   UNL     1       1.076  10.257  18.429  0.00  0.00    +0.000 C 
BRANCH  11  12
ATOM     12  C   UNL     1      -0.399  10.575  18.357  0.00  0.00    +0.000 A 
ATOM     13  C   UNL     1      -0.929  11.647  19.092  0.00  0.00    +0.000 A 
ATOM     14  C   UNL     1      -2.275  12.000  18.959  0.00  0.00    +0.000 A 
ATOM     15  C   UNL     1      -3.091  11.300  18.073  0.00  0.00    +0.000 A 
ATOM     16 CL   UNL     1      -4.731  11.776  17.859  0.00  0.00    +0.000 Cl
ATOM     17  C   UNL     1      -2.581  10.230  17.340  0.00  0.00    +0.000 A 
ATOM     18  C   UNL     1      -1.244   9.853  17.502  0.00  0.00    +0.000 A 
ENDBRANCH  11  12
ENDBRANCH   9  11
ENDBRANCH   2   5
BRANCH   3  19
ATOM     19  C   UNL     1       3.877   3.895  16.964  0.00  0.00    +0.000 C 
BRANCH  19  20
ATOM     20  C   UNL     1       5.368   3.565  17.059  0.00  0.00    +0.000 C 
BRANCH  20  21
ATOM     21  C   UNL     1       6.220   4.309  16.076  0.00  0.00    +0.000 A 
ATOM     22  C   UNL     1       7.104   5.322  16.390  0.00  0.00    +0.000 A 
ATOM     23  N   UNL     1       7.718   5.739  15.242  0.00  0.00    +0.000 N 
ATOM     24  C   UNL     1       7.260   5.012  14.168  0.00  0.00    +0.000 A 
ATOM     25  C   UNL     1       7.616   5.095  12.816  0.00  0.00    +0.000 A 
ATOM     26  C   UNL     1       6.996   4.215  11.927  0.00  0.00    +0.000 A 
ATOM     27  C   UNL     1       6.058   3.293  12.385  0.00  0.00    +0.000 A 
ATOM     28 CL   UNL     1       5.319   2.215  11.262  0.00  0.00    +0.000 Cl
ATOM     29  C   UNL     1       5.706   3.223  13.739  0.00  0.00    +0.000 A 
ATOM     30  C   UNL     1       6.319   4.102  14.657  0.00  0.00    +0.000 A 
ATOM     31  H   UNL     1       8.417   6.467  15.186  0.00  0.00    +0.000 HD
ENDBRANCH  20  21
ENDBRANCH  19  20
ENDBRANCH   3  19
TORSDOF 6
ENDMDL
MODEL 7
REMARK VINA RESULT:      -8.4      3.290      9.504
REMARK  Name = 
REMARK  6 active torsions:
REMARK  status: ('A' for Active; 'I' for Inactive)
REMARK    1  A    between atoms: C_2  and  C_16
REMARK    2  A    between atoms: N_3  and  C_4
REMARK    3  A    between atoms: C_4  and  C_5
REMARK    4  A    between atoms: C_5  and  C_6
REMARK    5  A    between atoms: C_20  and  C_21
REMARK    6  A    between atoms: C_21  and  C_22
REMARK                            x       y       z     vdW  Elec       q    Type
REMARK                         _______ _______ _______ _____ _____    ______ ____
ROOT
ATOM      1  O   UNL     1       0.372   4.314  20.454  0.00  0.00    +0.000 OA
ATOM      2  C   UNL     1       1.458   4.637  20.004  0.00  0.00    +0.000 C 
ATOM      3  N   UNL     1       2.019   5.893  20.160  0.00  0.00    +0.000 N 
ATOM      4  H   UNL     1       2.767   6.165  19.536  0.00  0.00    +0.000 HD
ENDROOT
BRANCH   2   5
ATOM      5  C   UNL     1       2.230   3.701  19.138  0.00  0.00    +0.000 A 
ATOM      6  C   UNL     1       2.307   2.333  19.420  0.00  0.00    +0.000 A 
ATOM      7  C   UNL     1       3.152   1.521  18.661  0.00  0.00    +0.000 A 
ATOM      8  C   UNL     1       3.931   2.072  17.642  0.00  0.00    +0.000 A 
ATOM      9  C   UNL     1       3.844   3.437  17.330  0.00  0.00    +0.000 A 
ATOM     10  C   UNL     1       2.944   4.235  18.059  0.00  0.00    +0.000 A 
BRANCH   9  11
ATOM     11  C   UNL     1       4.768   4.034  16.294  0.00  0.00    +0.000 C 
BRANCH  11  12
ATOM     12  C   UNL     1       5.766   5.051  16.797  0.00  0.00    +0.000 A 
ATOM     13  C   UNL     1       5.613   6.410  16.481  0.00  0.00    +0.000 A 
ATOM     14  C   UNL     1       6.481   7.364  17.019  0.00  0.00    +0.000 A 
ATOM     15  C   UNL     1       7.490   6.968  17.894  0.00  0.00    +0.000 A 
ATOM     16 CL   UNL     1       8.517   8.149  18.608  0.00  0.00    +0.000 Cl
ATOM     17  C   UNL     1       7.658   5.622  18.214  0.00  0.00    +0.000 A 
ATOM     18  C   UNL     1       6.813   4.664  17.646  0.00  0.00    +0.000 A 
ENDBRANCH  11  12
ENDBRANCH   9  11
ENDBRANCH   2   5
BRANCH   3  19
ATOM     19  C   UNL     1       1.292   6.939  20.869  0.00  0.00    +0.000 C 
BRANCH  19  20
ATOM     20  C   UNL     1       1.908   8.320  20.637  0.00  0.00    +0.000 C 
BRANCH  20  21
ATOM     21  C   UNL     1       1.082   9.217  19.766  0.00  0.00    +0.000 A 
ATOM     22  C   UNL     1       1.106   9.233  18.385  0.00  0.00    +0.000 A 
ATOM     23  N   UNL     1       0.202  10.158  17.942  0.00  0.00    +0.000 N 
ATOM     24  C   UNL     1      -0.429  10.753  19.010  0.00  0.00    +0.000 A 
ATOM     25  C   UNL     1      -1.423  11.741  19.023  0.00  0.00    +0.000 A 
ATOM     26  C   UNL     1      -1.903  12.160  20.266  0.00  0.00    +0.000 A 
ATOM     27  C   UNL     1      -1.401  11.607  21.440  0.00  0.00    +0.000 A 
ATOM     28 CL   UNL     1      -2.024  12.141  22.956  0.00  0.00    +0.000 Cl
ATOM     29  C   UNL     1      -0.404  10.623  21.415  0.00  0.00    +0.000 A 
ATOM     30  C   UNL     1       0.098  10.183  20.171  0.00  0.00    +0.000 A 
ATOM     31  H   UNL     1       0.011  10.370  16.973  0.00  0.00    +0.000 HD
ENDBRANCH  20  21
ENDBRANCH  19  20
ENDBRANCH   3  19
TORSDOF 6
ENDMDL
MODEL 8
REMARK VINA RESULT:      -8.3      6.243      9.211
REMARK  Name = 
REMARK  6 active torsions:
REMARK  status: ('A' for Active; 'I' for Inactive)
REMARK    1  A    between atoms: C_2  and  C_16
REMARK    2  A    between atoms: N_3  and  C_4
REMARK    3  A    between atoms: C_4  and  C_5
REMARK    4  A    between atoms: C_5  and  C_6
REMARK    5  A    between atoms: C_20  and  C_21
REMARK    6  A    between atoms: C_21  and  C_22
REMARK                            x       y       z     vdW  Elec       q    Type
REMARK                         _______ _______ _______ _____ _____    ______ ____
ROOT
ATOM      1  O   UNL     1       7.898   6.557  18.785  0.00  0.00    +0.000 OA
ATOM      2  C   UNL     1       7.445   6.872  17.699  0.00  0.00    +0.000 C 
ATOM      3  N   UNL     1       7.282   8.181  17.278  0.00  0.00    +0.000 N 
ATOM      4  H   UNL     1       6.655   8.361  16.504  0.00  0.00    +0.000 HD
ENDROOT
BRANCH   2   5
ATOM      5  C   UNL     1       6.924   5.835  16.763  0.00  0.00    +0.000 A 
ATOM      6  C   UNL     1       7.610   5.487  15.596  0.00  0.00    +0.000 A 
ATOM      7  C   UNL     1       7.017   4.612  14.683  0.00  0.00    +0.000 A 
ATOM      8  C   UNL     1       5.738   4.106  14.923  0.00  0.00    +0.000 A 
ATOM      9  C   UNL     1       5.048   4.425  16.102  0.00  0.00    +0.000 A 
ATOM     10  C   UNL     1       5.680   5.257  17.043  0.00  0.00    +0.000 A 
BRANCH   9  11
ATOM     11  C   UNL     1       3.626   3.951  16.296  0.00  0.00    +0.000 C 
BRANCH  11  12
ATOM     12  C   UNL     1       3.197   3.700  17.722  0.00  0.00    +0.000 A 
ATOM     13  C   UNL     1       2.196   4.491  18.310  0.00  0.00    +0.000 A 
ATOM     14  C   UNL     1       1.733   4.205  19.596  0.00  0.00    +0.000 A 
ATOM     15  C   UNL     1       2.247   3.113  20.292  0.00  0.00    +0.000 A 
ATOM     16 CL   UNL     1       1.629   2.721  21.850  0.00  0.00    +0.000 Cl
ATOM     17  C   UNL     1       3.243   2.322  19.725  0.00  0.00    +0.000 A 
ATOM     18  C   UNL     1       3.734   2.630  18.452  0.00  0.00    +0.000 A 
ENDBRANCH  11  12
ENDBRANCH   9  11
ENDBRANCH   2   5
BRANCH   3  19
ATOM     19  C   UNL     1       7.626   9.285  18.164  0.00  0.00    +0.000 C 
BRANCH  19  20
ATOM     20  C   UNL     1       8.923   9.976  17.740  0.00  0.00    +0.000 C 
BRANCH  20  21
ATOM     21  C   UNL     1       9.533  10.835  18.807  0.00  0.00    +0.000 A 
ATOM     22  C   UNL     1       9.649  10.492  20.139  0.00  0.00    +0.000 A 
ATOM     23  N   UNL     1      10.279  11.510  20.800  0.00  0.00    +0.000 N 
ATOM     24  C   UNL     1      10.590  12.523  19.924  0.00  0.00    +0.000 A 
ATOM     25  C   UNL     1      11.239  13.742  20.161  0.00  0.00    +0.000 A 
ATOM     26  C   UNL     1      11.441  14.591  19.071  0.00  0.00    +0.000 A 
ATOM     27  C   UNL     1      11.006  14.226  17.801  0.00  0.00    +0.000 A 
ATOM     28 CL   UNL     1      11.280  15.295  16.476  0.00  0.00    +0.000 Cl
ATOM     29  C   UNL     1      10.354  13.006  17.576  0.00  0.00    +0.000 A 
ATOM     30  C   UNL     1      10.138  12.130  18.661  0.00  0.00    +0.000 A 
ATOM     31  H   UNL     1      10.498  11.517  21.786  0.00  0.00    +0.000 HD
ENDBRANCH  20  21
ENDBRANCH  19  20
ENDBRANCH   3  19
TORSDOF 6
ENDMDL
MODEL 9
REMARK VINA RESULT:      -8.3      2.745      3.880
REMARK  Name = 
REMARK  6 active torsions:
REMARK  status: ('A' for Active; 'I' for Inactive)
REMARK    1  A    between atoms: C_2  and  C_16
REMARK    2  A    between atoms: N_3  and  C_4
REMARK    3  A    between atoms: C_4  and  C_5
REMARK    4  A    between atoms: C_5  and  C_6
REMARK    5  A    between atoms: C_20  and  C_21
REMARK    6  A    between atoms: C_21  and  C_22
REMARK                            x       y       z     vdW  Elec       q    Type
REMARK                         _______ _______ _______ _____ _____    ______ ____
ROOT
ATOM      1  O   UNL     1       2.593   5.772  21.477  0.00  0.00    +0.000 OA
ATOM      2  C   UNL     1       1.926   5.753  20.457  0.00  0.00    +0.000 C 
ATOM      3  N   UNL     1       1.183   4.662  20.038  0.00  0.00    +0.000 N 
ATOM      4  H   UNL     1       0.895   4.621  19.069  0.00  0.00    +0.000 HD
ENDROOT
BRANCH   2   5
ATOM      5  C   UNL     1       1.952   6.903  19.510  0.00  0.00    +0.000 A 
ATOM      6  C   UNL     1       2.777   6.908  18.381  0.00  0.00    +0.000 A 
ATOM      7  C   UNL     1       2.869   8.062  17.600  0.00  0.00    +0.000 A 
ATOM      8  C   UNL     1       2.160   9.211  17.956  0.00  0.00    +0.000 A 
ATOM      9  C   UNL     1       1.309   9.214  19.071  0.00  0.00    +0.000 A 
ATOM     10  C   UNL     1       1.175   8.027  19.815  0.00  0.00    +0.000 A 
BRANCH   9  11
ATOM     11  C   UNL     1       0.630  10.495  19.499  0.00  0.00    +0.000 C 
BRANCH  11  12
ATOM     12  C   UNL     1      -0.715  10.778  18.873  0.00  0.00    +0.000 A 
ATOM     13  C   UNL     1      -1.145  10.043  17.756  0.00  0.00    +0.000 A 
ATOM     14  C   UNL     1      -2.424  10.240  17.230  0.00  0.00    +0.000 A 
ATOM     15  C   UNL     1      -3.289  11.152  17.832  0.00  0.00    +0.000 A 
ATOM     16 CL   UNL     1      -4.888  11.346  17.225  0.00  0.00    +0.000 Cl
ATOM     17  C   UNL     1      -2.875  11.892  18.938  0.00  0.00    +0.000 A 
ATOM     18  C   UNL     1      -1.582  11.723  19.441  0.00  0.00    +0.000 A 
ENDBRANCH  11  12
ENDBRANCH   9  11
ENDBRANCH   2   5
BRANCH   3  19
ATOM     19  C   UNL     1       1.193   3.426  20.811  0.00  0.00    +0.000 C 
BRANCH  19  20
ATOM     20  C   UNL     1       2.335   2.499  20.391  0.00  0.00    +0.000 C 
BRANCH  20  21
ATOM     21  C   UNL     1       2.836   2.742  18.999  0.00  0.00    +0.000 A 
ATOM     22  C   UNL     1       2.217   2.318  17.841  0.00  0.00    +0.000 A 
ATOM     23  N   UNL     1       2.949   2.747  16.769  0.00  0.00    +0.000 N 
ATOM     24  C   UNL     1       4.044   3.459  17.199  0.00  0.00    +0.000 A 
ATOM     25  C   UNL     1       5.052   4.084  16.453  0.00  0.00    +0.000 A 
ATOM     26  C   UNL     1       6.053   4.759  17.155  0.00  0.00    +0.000 A 
ATOM     27  C   UNL     1       6.037   4.800  18.546  0.00  0.00    +0.000 A 
ATOM     28 CL   UNL     1       7.283   5.651  19.379  0.00  0.00    +0.000 Cl
ATOM     29  C   UNL     1       5.026   4.168  19.281  0.00  0.00    +0.000 A 
ATOM     30  C   UNL     1       4.003   3.478  18.595  0.00  0.00    +0.000 A 
ATOM     31  H   UNL     1       2.718   2.580  15.800  0.00  0.00    +0.000 HD
ENDBRANCH  20  21
ENDBRANCH  19  20
ENDBRANCH   3  19
TORSDOF 6
ENDMDL
