MODEL 1
REMARK VINA RESULT:      -8.8      0.000      0.000
REMARK  Name = 
REMARK  7 active torsions:
REMARK  status: ('A' for Active; 'I' for Inactive)
REMARK    1  A    between atoms: C_1  and  N_2
REMARK    2  A    between atoms: C_4  and  C_5
REMARK    3  A    between atoms: C_6  and  C_7
REMARK    4  A    between atoms: N_9  and  C_10
REMARK    5  A    between atoms: C_10  and  C_11
REMARK    6  A    between atoms: C_11  and  C_12
REMARK    7  A    between atoms: C_12  and  N_13
REMARK                            x       y       z     vdW  Elec       q    Type
REMARK                         _______ _______ _______ _____ _____    ______ ____
ROOT
ATOM      1  C   UNL     1       3.535   3.421  18.982  0.00  0.00    +0.000 C 
ATOM      2  C   UNL     1       2.423   4.004  19.442  0.00  0.00    +0.000 C 
ATOM      3  C   UNL     1       1.385   2.960  19.549  0.00  0.00    +0.000 C 
ATOM      4  O   UNL     1       0.229   3.114  19.893  0.00  0.00    +0.000 OA
ATOM      5  N   UNL     1       1.952   1.797  19.161  0.00  0.00    +0.000 N 
ATOM      6  C   UNL     1       3.224   1.999  18.751  0.00  0.00    +0.000 C 
ATOM      7  O   UNL     1       3.945   1.167  18.232  0.00  0.00    +0.000 OA
ATOM      8  H   UNL     1       1.457   0.925  19.090  0.00  0.00    +0.000 HD
ENDROOT
BRANCH   1  12
ATOM      9  C   UNL     1       7.721   5.721  19.538  0.00  0.00    +0.000 C 
ATOM     10  N   UNL     1       6.628   5.049  18.879  0.00  0.00    +0.000 N 
ATOM     11  N   UNL     1       5.581   4.586  19.601  0.00  0.00    +0.000 NA
ATOM     12  C   UNL     1       4.785   4.018  18.679  0.00  0.00    +0.000 A 
ATOM     13  C   UNL     1       5.303   4.175  17.363  0.00  0.00    +0.000 A 
ATOM     14  C   UNL     1       4.915   3.853  16.052  0.00  0.00    +0.000 A 
ATOM     15  C   UNL     1       5.765   4.240  15.017  0.00  0.00    +0.000 A 
ATOM     16  C   UNL     1       6.942   4.912  15.324  0.00  0.00    +0.000 A 
ATOM     17  N   UNL     1       7.360   5.248  16.568  0.00  0.00    +0.000 NA
ATOM     18  C   UNL     1       6.502   4.854  17.533  0.00  0.00    +0.000 A 
ENDBRANCH   1  12
BRANCH   2  19
ATOM     19  C   UNL     1       2.190   5.368  19.727  0.00  0.00    +0.000 A 
ATOM     20  C   UNL     1       1.707   5.841  20.923  0.00  0.00    +0.000 A 
ATOM     21  N   UNL     1       1.599   7.206  20.818  0.00  0.00    +0.000 N 
ATOM     22  C   UNL     1       2.014   7.622  19.567  0.00  0.00    +0.000 A 
ATOM     23  C   UNL     1       2.073   8.899  18.982  0.00  0.00    +0.000 A 
ATOM     24  C   UNL     1       2.532   9.004  17.665  0.00  0.00    +0.000 A 
ATOM     25  C   UNL     1       2.925   7.879  16.950  0.00  0.00    +0.000 A 
ATOM     26  C   UNL     1       2.863   6.612  17.537  0.00  0.00    +0.000 A 
ATOM     27  C   UNL     1       2.398   6.475  18.862  0.00  0.00    +0.000 A 
BRANCH  21  28
ATOM     28  C   UNL     1       1.098   8.061  21.881  0.00  0.00    +0.000 C 
BRANCH  28  29
ATOM     29  C   UNL     1      -0.327   8.555  21.654  0.00  0.00    +0.000 C 
BRANCH  29  30
ATOM     30  C   UNL     1      -0.537   9.991  22.128  0.00  0.00    +0.000 C 
BRANCH  30  31
ATOM     31  N   UNL     1      -0.094  10.935  21.125  0.00  0.00    +0.000 N 
ATOM     32  C   UNL     1      -0.634  11.154  19.897  0.00  0.00    +0.000 A 
ATOM     33  N   UNL     1       0.080  12.053  19.260  0.00  0.00    +0.000 NA
ATOM     34  C   UNL     1       1.069  12.348  20.157  0.00  0.00    +0.000 A 
ATOM     35  N   UNL     1       1.008  11.681  21.313  0.00  0.00    +0.000 NA
ENDBRANCH  30  31
ENDBRANCH  29  30
ENDBRANCH  28  29
ENDBRANCH  21  28
ENDBRANCH   2  19
TORSDOF 6
ENDMDL
MODEL 2
REMARK VINA RESULT:      -8.6      0.742      1.033
REMARK  Name = 
REMARK  7 active torsions:
REMARK  status: ('A' for Active; 'I' for Inactive)
REMARK    1  A    between atoms: C_1  and  N_2
REMARK    2  A    between atoms: C_4  and  C_5
REMARK    3  A    between atoms: C_6  and  C_7
REMARK    4  A    between atoms: N_9  and  C_10
REMARK    5  A    between atoms: C_10  and  C_11
REMARK    6  A    between atoms: C_11  and  C_12
REMARK    7  A    between atoms: C_12  and  N_13
REMARK                            x       y       z     vdW  Elec       q    Type
REMARK                         _______ _______ _______ _____ _____    ______ ____
ROOT
ATOM      1  C   UNL     1       3.627   3.377  18.967  0.00  0.00    +0.000 C 
ATOM      2  C   UNL     1       2.516   3.960  19.429  0.00  0.00    +0.000 C 
ATOM      3  C   UNL     1       1.489   2.908  19.573  0.00  0.00    +0.000 C 
ATOM      4  O   UNL     1       0.336   3.059  19.929  0.00  0.00    +0.000 OA
ATOM      5  N   UNL     1       2.063   1.743  19.203  0.00  0.00    +0.000 N 
ATOM      6  C   UNL     1       3.328   1.948  18.772  0.00  0.00    +0.000 C 
ATOM      7  O   UNL     1       4.050   1.112  18.262  0.00  0.00    +0.000 OA
ATOM      8  H   UNL     1       1.576   0.864  19.157  0.00  0.00    +0.000 HD
ENDROOT
BRANCH   1  12
ATOM      9  C   UNL     1       7.813   5.701  19.424  0.00  0.00    +0.000 C 
ATOM     10  N   UNL     1       6.709   5.021  18.792  0.00  0.00    +0.000 N 
ATOM     11  N   UNL     1       5.681   4.555  19.537  0.00  0.00    +0.000 NA
ATOM     12  C   UNL     1       4.867   3.979  18.635  0.00  0.00    +0.000 A 
ATOM     13  C   UNL     1       5.356   4.134  17.308  0.00  0.00    +0.000 A 
ATOM     14  C   UNL     1       4.941   3.805  16.007  0.00  0.00    +0.000 A 
ATOM     15  C   UNL     1       5.767   4.192  14.952  0.00  0.00    +0.000 A 
ATOM     16  C   UNL     1       6.947   4.872  15.231  0.00  0.00    +0.000 A 
ATOM     17  N   UNL     1       7.389   5.215  16.464  0.00  0.00    +0.000 NA
ATOM     18  C   UNL     1       6.554   4.820  17.449  0.00  0.00    +0.000 A 
ENDBRANCH   1  12
BRANCH   2  19
ATOM     19  C   UNL     1       2.274   5.327  19.688  0.00  0.00    +0.000 A 
ATOM     20  C   UNL     1       1.752   5.817  20.861  0.00  0.00    +0.000 A 
ATOM     21  N   UNL     1       1.647   7.179  20.733  0.00  0.00    +0.000 N 
ATOM     22  C   UNL     1       2.101   7.579  19.491  0.00  0.00    +0.000 A 
ATOM     23  C   UNL     1       2.179   8.847  18.890  0.00  0.00    +0.000 A 
ATOM     24  C   UNL     1       2.680   8.935  17.588  0.00  0.00    +0.000 A 
ATOM     25  C   UNL     1       3.097   7.800  16.902  0.00  0.00    +0.000 A 
ATOM     26  C   UNL     1       3.016   6.541  17.504  0.00  0.00    +0.000 A 
ATOM     27  C   UNL     1       2.508   6.422  18.814  0.00  0.00    +0.000 A 
BRANCH  21  28
ATOM     28  C   UNL     1       1.111   8.049  21.768  0.00  0.00    +0.000 C 
BRANCH  28  29
ATOM     29  C   UNL     1      -0.356   8.417  21.564  0.00  0.00    +0.000 C 
BRANCH  29  30
ATOM     30  C   UNL     1      -0.537   9.670  20.711  0.00  0.00    +0.000 C 
BRANCH  30  31
ATOM     31  N   UNL     1      -0.558  10.859  21.537  0.00  0.00    +0.000 N 
ATOM     32  C   UNL     1      -0.953  10.959  22.834  0.00  0.00    +0.000 A 
ATOM     33  N   UNL     1      -0.875  12.212  23.217  0.00  0.00    +0.000 NA
ATOM     34  C   UNL     1      -0.429  12.848  22.092  0.00  0.00    +0.000 A 
ATOM     35  N   UNL     1      -0.226  12.060  21.033  0.00  0.00    +0.000 NA
ENDBRANCH  30  31
ENDBRANCH  29  30
ENDBRANCH  28  29
ENDBRANCH  21  28
ENDBRANCH   2  19
TORSDOF 6
ENDMDL
MODEL 3
REMARK VINA RESULT:      -7.6      3.696      9.578
REMARK  Name = 
REMARK  7 active torsions:
REMARK  status: ('A' for Active; 'I' for Inactive)
REMARK    1  A    between atoms: C_1  and  N_2
REMARK    2  A    between atoms: C_4  and  C_5
REMARK    3  A    between atoms: C_6  and  C_7
REMARK    4  A    between atoms: N_9  and  C_10
REMARK    5  A    between atoms: C_10  and  C_11
REMARK    6  A    between atoms: C_11  and  C_12
REMARK    7  A    between atoms: C_12  and  N_13
REMARK                            x       y       z     vdW  Elec       q    Type
REMARK                         _______ _______ _______ _____ _____    ______ ____
ROOT
ATOM      1  C   UNL     1      -0.091  13.417  19.088  0.00  0.00    +0.000 C 
ATOM      2  C   UNL     1       1.026  12.684  19.032  0.00  0.00    +0.000 C 
ATOM      3  C   UNL     1       2.147  13.603  18.752  0.00  0.00    +0.000 C 
ATOM      4  O   UNL     1       3.314  13.301  18.591  0.00  0.00    +0.000 OA
ATOM      5  N   UNL     1       1.629  14.847  18.678  0.00  0.00    +0.000 N 
ATOM      6  C   UNL     1       0.284  14.814  18.812  0.00  0.00    +0.000 C 
ATOM      7  O   UNL     1      -0.470  15.759  18.667  0.00  0.00    +0.000 OA
ATOM      8  H   UNL     1       2.163  15.668  18.449  0.00  0.00    +0.000 HD
ENDROOT
BRANCH   1  12
ATOM      9  C   UNL     1      -4.360  12.694  21.181  0.00  0.00    +0.000 C 
ATOM     10  N   UNL     1      -3.312  12.620  20.193  0.00  0.00    +0.000 N 
ATOM     11  N   UNL     1      -2.132  13.248  20.405  0.00  0.00    +0.000 NA
ATOM     12  C   UNL     1      -1.424  12.980  19.295  0.00  0.00    +0.000 A 
ATOM     13  C   UNL     1      -2.139  12.131  18.403  0.00  0.00    +0.000 A 
ATOM     14  C   UNL     1      -1.913  11.502  17.168  0.00  0.00    +0.000 A 
ATOM     15  C   UNL     1      -2.937  10.706  16.655  0.00  0.00    +0.000 A 
ATOM     16  C   UNL     1      -4.118  10.577  17.377  0.00  0.00    +0.000 A 
ATOM     17  N   UNL     1      -4.384  11.158  18.571  0.00  0.00    +0.000 NA
ATOM     18  C   UNL     1      -3.362  11.915  19.023  0.00  0.00    +0.000 A 
ENDBRANCH   1  12
BRANCH   2  19
ATOM     19  C   UNL     1       1.174  11.283  19.141  0.00  0.00    +0.000 A 
ATOM     20  C   UNL     1       1.662  10.472  18.144  0.00  0.00    +0.000 A 
ATOM     21  N   UNL     1       1.640   9.181  18.611  0.00  0.00    +0.000 N 
ATOM     22  C   UNL     1       1.148   9.148  19.902  0.00  0.00    +0.000 A 
ATOM     23  C   UNL     1       0.921   8.078  20.785  0.00  0.00    +0.000 A 
ATOM     24  C   UNL     1       0.389   8.363  22.047  0.00  0.00    +0.000 A 
ATOM     25  C   UNL     1       0.095   9.667  22.424  0.00  0.00    +0.000 A 
ATOM     26  C   UNL     1       0.322  10.727  21.541  0.00  0.00    +0.000 A 
ATOM     27  C   UNL     1       0.852  10.469  20.259  0.00  0.00    +0.000 A 
BRANCH  21  28
ATOM     28  C   UNL     1       2.062   8.032  17.827  0.00  0.00    +0.000 C 
BRANCH  28  29
ATOM     29  C   UNL     1       3.107   7.163  18.521  0.00  0.00    +0.000 C 
BRANCH  29  30
ATOM     30  C   UNL     1       3.977   6.386  17.537  0.00  0.00    +0.000 C 
BRANCH  30  31
ATOM     31  N   UNL     1       5.213   5.966  18.161  0.00  0.00    +0.000 N 
ATOM     32  C   UNL     1       5.362   5.279  19.325  0.00  0.00    +0.000 A 
ATOM     33  N   UNL     1       6.641   5.132  19.584  0.00  0.00    +0.000 NA
ATOM     34  C   UNL     1       7.240   5.768  18.533  0.00  0.00    +0.000 A 
ATOM     35  N   UNL     1       6.404   6.303  17.638  0.00  0.00    +0.000 NA
ENDBRANCH  30  31
ENDBRANCH  29  30
ENDBRANCH  28  29
ENDBRANCH  21  28
ENDBRANCH   2  19
TORSDOF 6
ENDMDL
MODEL 4
REMARK VINA RESULT:      -7.6      3.781      9.653
REMARK  Name = 
REMARK  7 active torsions:
REMARK  status: ('A' for Active; 'I' for Inactive)
REMARK    1  A    between atoms: C_1  and  N_2
REMARK    2  A    between atoms: C_4  and  C_5
REMARK    3  A    between atoms: C_6  and  C_7
REMARK    4  A    between atoms: N_9  and  C_10
REMARK    5  A    between atoms: C_10  and  C_11
REMARK    6  A    between atoms: C_11  and  C_12
REMARK    7  A    between atoms: C_12  and  N_13
REMARK                            x       y       z     vdW  Elec       q    Type
REMARK                         _______ _______ _______ _____ _____    ______ ____
ROOT
ATOM      1  C   UNL     1      -0.113  13.471  19.105  0.00  0.00    +0.000 C 
ATOM      2  C   UNL     1       0.994  12.723  19.047  0.00  0.00    +0.000 C 
ATOM      3  C   UNL     1       2.123  13.623  18.740  0.00  0.00    +0.000 C 
ATOM      4  O   UNL     1       3.284  13.303  18.570  0.00  0.00    +0.000 OA
ATOM      5  N   UNL     1       1.620  14.873  18.652  0.00  0.00    +0.000 N 
ATOM      6  C   UNL     1       0.276  14.859  18.802  0.00  0.00    +0.000 C 
ATOM      7  O   UNL     1      -0.467  15.811  18.650  0.00  0.00    +0.000 OA
ATOM      8  H   UNL     1       2.161  15.683  18.404  0.00  0.00    +0.000 HD
ENDROOT
BRANCH   1  12
ATOM      9  C   UNL     1      -4.369  12.845  21.254  0.00  0.00    +0.000 C 
ATOM     10  N   UNL     1      -3.332  12.736  20.258  0.00  0.00    +0.000 N 
ATOM     11  N   UNL     1      -2.143  13.355  20.444  0.00  0.00    +0.000 NA
ATOM     12  C   UNL     1      -1.449  13.054  19.334  0.00  0.00    +0.000 A 
ATOM     13  C   UNL     1      -2.182  12.194  18.468  0.00  0.00    +0.000 A 
ATOM     14  C   UNL     1      -1.976  11.535  17.245  0.00  0.00    +0.000 A 
ATOM     15  C   UNL     1      -3.014  10.740  16.760  0.00  0.00    +0.000 A 
ATOM     16  C   UNL     1      -4.189  10.641  17.496  0.00  0.00    +0.000 A 
ATOM     17  N   UNL     1      -4.436  11.252  18.679  0.00  0.00    +0.000 NA
ATOM     18  C   UNL     1      -3.401  12.006  19.105  0.00  0.00    +0.000 A 
ENDBRANCH   1  12
BRANCH   2  19
ATOM     19  C   UNL     1       1.125  11.322  19.177  0.00  0.00    +0.000 A 
ATOM     20  C   UNL     1       1.573  10.487  18.182  0.00  0.00    +0.000 A 
ATOM     21  N   UNL     1       1.547   9.205  18.671  0.00  0.00    +0.000 N 
ATOM     22  C   UNL     1       1.092   9.201  19.976  0.00  0.00    +0.000 A 
ATOM     23  C   UNL     1       0.876   8.151  20.885  0.00  0.00    +0.000 A 
ATOM     24  C   UNL     1       0.385   8.465  22.156  0.00  0.00    +0.000 A 
ATOM     25  C   UNL     1       0.120   9.780  22.518  0.00  0.00    +0.000 A 
ATOM     26  C   UNL     1       0.336  10.820  21.611  0.00  0.00    +0.000 A 
ATOM     27  C   UNL     1       0.825  10.532  20.319  0.00  0.00    +0.000 A 
BRANCH  21  28
ATOM     28  C   UNL     1       1.930   8.036  17.896  0.00  0.00    +0.000 C 
BRANCH  28  29
ATOM     29  C   UNL     1       3.228   7.385  18.365  0.00  0.00    +0.000 C 
BRANCH  29  30
ATOM     30  C   UNL     1       3.316   5.908  17.992  0.00  0.00    +0.000 C 
BRANCH  30  31
ATOM     31  N   UNL     1       4.326   5.690  16.978  0.00  0.00    +0.000 N 
ATOM     32  C   UNL     1       4.986   6.632  16.252  0.00  0.00    +0.000 A 
ATOM     33  N   UNL     1       5.787   6.039  15.397  0.00  0.00    +0.000 NA
ATOM     34  C   UNL     1       5.565   4.712  15.640  0.00  0.00    +0.000 A 
ATOM     35  N   UNL     1       4.671   4.449  16.596  0.00  0.00    +0.000 NA
ENDBRANCH  30  31
ENDBRANCH  29  30
ENDBRANCH  28  29
ENDBRANCH  21  28
ENDBRANCH   2  19
TORSDOF 6
ENDMDL
MODEL 5
REMARK VINA RESULT:      -7.5      3.738      9.675
REMARK  Name = 
REMARK  7 active torsions:
REMARK  status: ('A' for Active; 'I' for Inactive)
REMARK    1  A    between atoms: C_1  and  N_2
REMARK    2  A    between atoms: C_4  and  C_5
REMARK    3  A    between atoms: C_6  and  C_7
REMARK    4  A    between atoms: N_9  and  C_10
REMARK    5  A    between atoms: C_10  and  C_11
REMARK    6  A    between atoms: C_11  and  C_12
REMARK    7  A    between atoms: C_12  and  N_13
REMARK                            x       y       z     vdW  Elec       q    Type
REMARK                         _______ _______ _______ _____ _____    ______ ____
ROOT
ATOM      1  C   UNL     1      -0.193  13.529  19.140  0.00  0.00    +0.000 C 
ATOM      2  C   UNL     1       0.902  12.761  19.118  0.00  0.00    +0.000 C 
ATOM      3  C   UNL     1       2.049  13.631  18.790  0.00  0.00    +0.000 C 
ATOM      4  O   UNL     1       3.205  13.287  18.641  0.00  0.00    +0.000 OA
ATOM      5  N   UNL     1       1.567  14.885  18.654  0.00  0.00    +0.000 N 
ATOM      6  C   UNL     1       0.222  14.899  18.792  0.00  0.00    +0.000 C 
ATOM      7  O   UNL     1      -0.504  15.857  18.600  0.00  0.00    +0.000 OA
ATOM      8  H   UNL     1       2.124  15.677  18.382  0.00  0.00    +0.000 HD
ENDROOT
BRANCH   1  12
ATOM      9  C   UNL     1      -4.471  13.034  21.280  0.00  0.00    +0.000 C 
ATOM     10  N   UNL     1      -3.430  12.882  20.293  0.00  0.00    +0.000 N 
ATOM     11  N   UNL     1      -2.231  13.483  20.471  0.00  0.00    +0.000 NA
ATOM     12  C   UNL     1      -1.538  13.142  19.371  0.00  0.00    +0.000 A 
ATOM     13  C   UNL     1      -2.282  12.275  18.523  0.00  0.00    +0.000 A 
ATOM     14  C   UNL     1      -2.082  11.583  17.318  0.00  0.00    +0.000 A 
ATOM     15  C   UNL     1      -3.132  10.796  16.846  0.00  0.00    +0.000 A 
ATOM     16  C   UNL     1      -4.313  10.736  17.577  0.00  0.00    +0.000 A 
ATOM     17  N   UNL     1      -4.554  11.380  18.744  0.00  0.00    +0.000 NA
ATOM     18  C   UNL     1      -3.507  12.126  19.157  0.00  0.00    +0.000 A 
ENDBRANCH   1  12
BRANCH   2  19
ATOM     19  C   UNL     1       1.009  11.364  19.298  0.00  0.00    +0.000 A 
ATOM     20  C   UNL     1       1.465  10.489  18.342  0.00  0.00    +0.000 A 
ATOM     21  N   UNL     1       1.408   9.225  18.874  0.00  0.00    +0.000 N 
ATOM     22  C   UNL     1       0.926   9.272  20.167  0.00  0.00    +0.000 A 
ATOM     23  C   UNL     1       0.673   8.257  21.106  0.00  0.00    +0.000 A 
ATOM     24  C   UNL     1       0.159   8.621  22.355  0.00  0.00    +0.000 A 
ATOM     25  C   UNL     1      -0.093   9.952  22.666  0.00  0.00    +0.000 A 
ATOM     26  C   UNL     1       0.159  10.957  21.729  0.00  0.00    +0.000 A 
ATOM     27  C   UNL     1       0.671  10.618  20.459  0.00  0.00    +0.000 A 
BRANCH  21  28
ATOM     28  C   UNL     1       1.791   8.025  18.147  0.00  0.00    +0.000 C 
BRANCH  28  29
ATOM     29  C   UNL     1       2.986   7.294  18.751  0.00  0.00    +0.000 C 
BRANCH  29  30
ATOM     30  C   UNL     1       2.594   5.986  19.434  0.00  0.00    +0.000 C 
BRANCH  30  31
ATOM     31  N   UNL     1       3.686   5.036  19.395  0.00  0.00    +0.000 N 
ATOM     32  C   UNL     1       5.008   5.301  19.225  0.00  0.00    +0.000 A 
ATOM     33  N   UNL     1       5.679   4.172  19.195  0.00  0.00    +0.000 NA
ATOM     34  C   UNL     1       4.698   3.231  19.344  0.00  0.00    +0.000 A 
ATOM     35  N   UNL     1       3.458   3.714  19.463  0.00  0.00    +0.000 NA
ENDBRANCH  30  31
ENDBRANCH  29  30
ENDBRANCH  28  29
ENDBRANCH  21  28
ENDBRANCH   2  19
TORSDOF 6
ENDMDL
MODEL 6
REMARK VINA RESULT:      -7.5      3.984      9.672
REMARK  Name = 
REMARK  7 active torsions:
REMARK  status: ('A' for Active; 'I' for Inactive)
REMARK    1  A    between atoms: C_1  and  N_2
REMARK    2  A    between atoms: C_4  and  C_5
REMARK    3  A    between atoms: C_6  and  C_7
REMARK    4  A    between atoms: N_9  and  C_10
REMARK    5  A    between atoms: C_10  and  C_11
REMARK    6  A    between atoms: C_11  and  C_12
REMARK    7  A    between atoms: C_12  and  N_13
REMARK                            x       y       z     vdW  Elec       q    Type
REMARK                         _______ _______ _______ _____ _____    ______ ____
ROOT
ATOM      1  C   UNL     1       0.163  13.783  21.153  0.00  0.00    +0.000 C 
ATOM      2  C   UNL     1      -0.375  12.562  21.059  0.00  0.00    +0.000 C 
ATOM      3  C   UNL     1      -1.030  12.265  22.348  0.00  0.00    +0.000 C 
ATOM      4  O   UNL     1      -1.594  11.233  22.658  0.00  0.00    +0.000 OA
ATOM      5  N   UNL     1      -0.860  13.348  23.137  0.00  0.00    +0.000 N 
ATOM      6  C   UNL     1      -0.105  14.280  22.513  0.00  0.00    +0.000 C 
ATOM      7  O   UNL     1       0.319  15.305  23.015  0.00  0.00    +0.000 OA
ATOM      8  H   UNL     1      -1.166  13.402  24.093  0.00  0.00    +0.000 HD
ENDROOT
BRANCH   1  12
ATOM      9  C   UNL     1       3.889  15.207  18.466  0.00  0.00    +0.000 C 
ATOM     10  N   UNL     1       2.549  15.160  18.999  0.00  0.00    +0.000 N 
ATOM     11  N   UNL     1       2.227  14.254  19.950  0.00  0.00    +0.000 NA
ATOM     12  C   UNL     1       0.925  14.488  20.187  0.00  0.00    +0.000 A 
ATOM     13  C   UNL     1       0.438  15.586  19.424  0.00  0.00    +0.000 A 
ATOM     14  C   UNL     1      -0.765  16.297  19.284  0.00  0.00    +0.000 A 
ATOM     15  C   UNL     1      -0.779  17.368  18.391  0.00  0.00    +0.000 A 
ATOM     16  C   UNL     1       0.379  17.676  17.687  0.00  0.00    +0.000 A 
ATOM     17  N   UNL     1       1.562  17.025  17.788  0.00  0.00    +0.000 NA
ATOM     18  C   UNL     1       1.524  16.000  18.665  0.00  0.00    +0.000 A 
ENDBRANCH   1  12
BRANCH   2  19
ATOM     19  C   UNL     1      -0.310  11.644  19.987  0.00  0.00    +0.000 A 
ATOM     20  C   UNL     1       0.804  10.911  19.656  0.00  0.00    +0.000 A 
ATOM     21  N   UNL     1       0.491  10.151  18.557  0.00  0.00    +0.000 N 
ATOM     22  C   UNL     1      -0.818  10.379  18.176  0.00  0.00    +0.000 A 
ATOM     23  C   UNL     1      -1.584   9.860  17.118  0.00  0.00    +0.000 A 
ATOM     24  C   UNL     1      -2.903  10.303  16.976  0.00  0.00    +0.000 A 
ATOM     25  C   UNL     1      -3.449  11.228  17.859  0.00  0.00    +0.000 A 
ATOM     26  C   UNL     1      -2.681  11.741  18.908  0.00  0.00    +0.000 A 
ATOM     27  C   UNL     1      -1.345  11.317  19.071  0.00  0.00    +0.000 A 
BRANCH  21  28
ATOM     28  C   UNL     1       1.430   9.257  17.899  0.00  0.00    +0.000 C 
BRANCH  28  29
ATOM     29  C   UNL     1       2.125   8.286  18.849  0.00  0.00    +0.000 C 
BRANCH  29  30
ATOM     30  C   UNL     1       2.186   6.863  18.299  0.00  0.00    +0.000 C 
BRANCH  30  31
ATOM     31  N   UNL     1       3.516   6.311  18.442  0.00  0.00    +0.000 N 
ATOM     32  C   UNL     1       3.983   5.527  19.450  0.00  0.00    +0.000 A 
ATOM     33  N   UNL     1       5.255   5.271  19.250  0.00  0.00    +0.000 NA
ATOM     34  C   UNL     1       5.523   5.945  18.091  0.00  0.00    +0.000 A 
ATOM     35  N   UNL     1       4.489   6.605  17.562  0.00  0.00    +0.000 NA
ENDBRANCH  30  31
ENDBRANCH  29  30
ENDBRANCH  28  29
ENDBRANCH  21  28
ENDBRANCH   2  19
TORSDOF 6
ENDMDL
MODEL 7
REMARK VINA RESULT:      -7.5      3.821      9.569
REMARK  Name = 
REMARK  7 active torsions:
REMARK  status: ('A' for Active; 'I' for Inactive)
REMARK    1  A    between atoms: C_1  and  N_2
REMARK    2  A    between atoms: C_4  and  C_5
REMARK    3  A    between atoms: C_6  and  C_7
REMARK    4  A    between atoms: N_9  and  C_10
REMARK    5  A    between atoms: C_10  and  C_11
REMARK    6  A    between atoms: C_11  and  C_12
REMARK    7  A    between atoms: C_12  and  N_13
REMARK                            x       y       z     vdW  Elec       q    Type
REMARK                         _______ _______ _______ _____ _____    ______ ____
ROOT
ATOM      1  C   UNL     1      -0.432  13.812  21.362  0.00  0.00    +0.000 C 
ATOM      2  C   UNL     1      -0.654  12.499  21.249  0.00  0.00    +0.000 C 
ATOM      3  C   UNL     1      -1.057  12.000  22.579  0.00  0.00    +0.000 C 
ATOM      4  O   UNL     1      -1.304  10.849  22.882  0.00  0.00    +0.000 OA
ATOM      5  N   UNL     1      -1.072  13.064  23.412  0.00  0.00    +0.000 N 
ATOM      6  C   UNL     1      -0.654  14.178  22.771  0.00  0.00    +0.000 C 
ATOM      7  O   UNL     1      -0.444  15.260  23.288  0.00  0.00    +0.000 OA
ATOM      8  H   UNL     1      -1.266  13.006  24.397  0.00  0.00    +0.000 HD
ENDROOT
BRANCH   1  12
ATOM      9  C   UNL     1      -0.514  17.196  17.945  0.00  0.00    +0.000 C 
ATOM     10  N   UNL     1       0.013  16.194  18.840  0.00  0.00    +0.000 N 
ATOM     11  N   UNL     1      -0.811  15.549  19.697  0.00  0.00    +0.000 NA
ATOM     12  C   UNL     1       0.009  14.722  20.367  0.00  0.00    +0.000 A 
ATOM     13  C   UNL     1       1.348  14.804  19.890  0.00  0.00    +0.000 A 
ATOM     14  C   UNL     1       2.580  14.182  20.151  0.00  0.00    +0.000 A 
ATOM     15  C   UNL     1       3.676  14.583  19.388  0.00  0.00    +0.000 A 
ATOM     16  C   UNL     1       3.504  15.568  18.422  0.00  0.00    +0.000 A 
ATOM     17  N   UNL     1       2.339  16.195  18.131  0.00  0.00    +0.000 NA
ATOM     18  C   UNL     1       1.310  15.770  18.894  0.00  0.00    +0.000 A 
ENDBRANCH   1  12
BRANCH   2  19
ATOM     19  C   UNL     1      -0.488  11.665  20.121  0.00  0.00    +0.000 A 
ATOM     20  C   UNL     1       0.700  11.082  19.751  0.00  0.00    +0.000 A 
ATOM     21  N   UNL     1       0.472  10.364  18.604  0.00  0.00    +0.000 N 
ATOM     22  C   UNL     1      -0.854  10.470  18.229  0.00  0.00    +0.000 A 
ATOM     23  C   UNL     1      -1.559   9.940  17.135  0.00  0.00    +0.000 A 
ATOM     24  C   UNL     1      -2.919  10.242  17.013  0.00  0.00    +0.000 A 
ATOM     25  C   UNL     1      -3.563  11.042  17.949  0.00  0.00    +0.000 A 
ATOM     26  C   UNL     1      -2.857  11.568  19.035  0.00  0.00    +0.000 A 
ATOM     27  C   UNL     1      -1.482  11.285  19.179  0.00  0.00    +0.000 A 
BRANCH  21  28
ATOM     28  C   UNL     1       1.503   9.624  17.895  0.00  0.00    +0.000 C 
BRANCH  28  29
ATOM     29  C   UNL     1       1.867   8.295  18.551  0.00  0.00    +0.000 C 
BRANCH  29  30
ATOM     30  C   UNL     1       3.061   7.615  17.886  0.00  0.00    +0.000 C 
BRANCH  30  31
ATOM     31  N   UNL     1       3.245   6.275  18.401  0.00  0.00    +0.000 N 
ATOM     32  C   UNL     1       3.538   5.150  17.695  0.00  0.00    +0.000 A 
ATOM     33  N   UNL     1       3.574   4.122  18.511  0.00  0.00    +0.000 NA
ATOM     34  C   UNL     1       3.281   4.683  19.723  0.00  0.00    +0.000 A 
ATOM     35  N   UNL     1       3.064   6.001  19.704  0.00  0.00    +0.000 NA
ENDBRANCH  30  31
ENDBRANCH  29  30
ENDBRANCH  28  29
ENDBRANCH  21  28
ENDBRANCH   2  19
TORSDOF 6
ENDMDL
MODEL 8
REMARK VINA RESULT:      -7.5      3.956      9.476
REMARK  Name = 
REMARK  7 active torsions:
REMARK  status: ('A' for Active; 'I' for Inactive)
REMARK    1  A    between atoms: C_1  and  N_2
REMARK    2  A    between atoms: C_4  and  C_5
REMARK    3  A    between atoms: C_6  and  C_7
REMARK    4  A    between atoms: N_9  and  C_10
REMARK    5  A    between atoms: C_10  and  C_11
REMARK    6  A    between atoms: C_11  and  C_12
REMARK    7  A    between atoms: C_12  and  N_13
REMARK                            x       y       z     vdW  Elec       q    Type
REMARK                         _______ _______ _______ _____ _____    ______ ____
ROOT
ATOM      1  C   UNL     1      -0.603  13.744  21.599  0.00  0.00    +0.000 C 
ATOM      2  C   UNL     1      -0.809  12.423  21.570  0.00  0.00    +0.000 C 
ATOM      3  C   UNL     1      -1.297  12.019  22.903  0.00  0.00    +0.000 C 
ATOM      4  O   UNL     1      -1.556  10.891  23.274  0.00  0.00    +0.000 OA
ATOM      5  N   UNL     1      -1.375  13.141  23.652  0.00  0.00    +0.000 N 
ATOM      6  C   UNL     1      -0.921  14.210  22.960  0.00  0.00    +0.000 C 
ATOM      7  O   UNL     1      -0.753  15.329  23.408  0.00  0.00    +0.000 OA
ATOM      8  H   UNL     1      -1.634  13.153  24.623  0.00  0.00    +0.000 HD
ENDROOT
BRANCH   1  12
ATOM      9  C   UNL     1      -0.465  16.949  18.016  0.00  0.00    +0.000 C 
ATOM     10  N   UNL     1      -0.002  15.974  18.973  0.00  0.00    +0.000 N 
ATOM     11  N   UNL     1      -0.871  15.407  19.841  0.00  0.00    +0.000 NA
ATOM     12  C   UNL     1      -0.101  14.582  20.571  0.00  0.00    +0.000 A 
ATOM     13  C   UNL     1       1.250  14.585  20.124  0.00  0.00    +0.000 A 
ATOM     14  C   UNL     1       2.448  13.928  20.446  0.00  0.00    +0.000 A 
ATOM     15  C   UNL     1       3.578  14.244  19.691  0.00  0.00    +0.000 A 
ATOM     16  C   UNL     1       3.469  15.185  18.673  0.00  0.00    +0.000 A 
ATOM     17  N   UNL     1       2.338  15.843  18.322  0.00  0.00    +0.000 NA
ATOM     18  C   UNL     1       1.276  15.500  19.080  0.00  0.00    +0.000 A 
ENDBRANCH   1  12
BRANCH   2  19
ATOM     19  C   UNL     1      -0.562  11.510  20.520  0.00  0.00    +0.000 A 
ATOM     20  C   UNL     1       0.538  10.691  20.443  0.00  0.00    +0.000 A 
ATOM     21  N   UNL     1       0.437   9.966  19.282  0.00  0.00    +0.000 N 
ATOM     22  C   UNL     1      -0.722  10.303  18.608  0.00  0.00    +0.000 A 
ATOM     23  C   UNL     1      -1.253   9.856  17.385  0.00  0.00    +0.000 A 
ATOM     24  C   UNL     1      -2.461  10.406  16.947  0.00  0.00    +0.000 A 
ATOM     25  C   UNL     1      -3.127  11.367  17.699  0.00  0.00    +0.000 A 
ATOM     26  C   UNL     1      -2.594  11.808  18.913  0.00  0.00    +0.000 A 
ATOM     27  C   UNL     1      -1.373  11.275  19.377  0.00  0.00    +0.000 A 
BRANCH  21  28
ATOM     28  C   UNL     1       1.432   9.002  18.841  0.00  0.00    +0.000 C 
BRANCH  28  29
ATOM     29  C   UNL     1       1.840   8.002  19.919  0.00  0.00    +0.000 C 
BRANCH  29  30
ATOM     30  C   UNL     1       2.796   6.932  19.400  0.00  0.00    +0.000 C 
BRANCH  30  31
ATOM     31  N   UNL     1       2.137   5.645  19.321  0.00  0.00    +0.000 N 
ATOM     32  C   UNL     1       1.664   4.893  20.349  0.00  0.00    +0.000 A 
ATOM     33  N   UNL     1       1.179   3.767  19.879  0.00  0.00    +0.000 NA
ATOM     34  C   UNL     1       1.396   3.880  18.534  0.00  0.00    +0.000 A 
ATOM     35  N   UNL     1       1.989   5.013  18.144  0.00  0.00    +0.000 NA
ENDBRANCH  30  31
ENDBRANCH  29  30
ENDBRANCH  28  29
ENDBRANCH  21  28
ENDBRANCH   2  19
TORSDOF 6
ENDMDL
MODEL 9
REMARK VINA RESULT:      -7.4      4.010      9.670
REMARK  Name = 
REMARK  7 active torsions:
REMARK  status: ('A' for Active; 'I' for Inactive)
REMARK    1  A    between atoms: C_1  and  N_2
REMARK    2  A    between atoms: C_4  and  C_5
REMARK    3  A    between atoms: C_6  and  C_7
REMARK    4  A    between atoms: N_9  and  C_10
REMARK    5  A    between atoms: C_10  and  C_11
REMARK    6  A    between atoms: C_11  and  C_12
REMARK    7  A    between atoms: C_12  and  N_13
REMARK                            x       y       z     vdW  Elec       q    Type
REMARK                         _______ _______ _______ _____ _____    ______ ____
ROOT
ATOM      1  C   UNL     1      -0.419  13.602  19.487  0.00  0.00    +0.000 C 
ATOM      2  C   UNL     1       0.710  12.885  19.513  0.00  0.00    +0.000 C 
ATOM      3  C   UNL     1       1.837  13.826  19.354  0.00  0.00    +0.000 C 
ATOM      4  O   UNL     1       3.018  13.543  19.289  0.00  0.00    +0.000 OA
ATOM      5  N   UNL     1       1.308  15.065  19.263  0.00  0.00    +0.000 N 
ATOM      6  C   UNL     1      -0.042  15.011  19.277  0.00  0.00    +0.000 C 
ATOM      7  O   UNL     1      -0.795  15.949  19.088  0.00  0.00    +0.000 OA
ATOM      8  H   UNL     1       1.848  15.898  19.101  0.00  0.00    +0.000 HD
ENDROOT
BRANCH   1  12
ATOM      9  C   UNL     1      -4.856  12.808  21.163  0.00  0.00    +0.000 C 
ATOM     10  N   UNL     1      -3.717  12.752  20.280  0.00  0.00    +0.000 N 
ATOM     11  N   UNL     1      -2.574  13.399  20.603  0.00  0.00    +0.000 NA
ATOM     12  C   UNL     1      -1.758  13.143  19.565  0.00  0.00    +0.000 A 
ATOM     13  C   UNL     1      -2.370  12.283  18.611  0.00  0.00    +0.000 A 
ATOM     14  C   UNL     1      -2.017  11.658  17.403  0.00  0.00    +0.000 A 
ATOM     15  C   UNL     1      -2.973  10.845  16.796  0.00  0.00    +0.000 A 
ATOM     16  C   UNL     1      -4.216  10.696  17.401  0.00  0.00    +0.000 A 
ATOM     17  N   UNL     1      -4.604  11.273  18.564  0.00  0.00    +0.000 NA
ATOM     18  C   UNL     1      -3.643  12.046  19.111  0.00  0.00    +0.000 A 
ENDBRANCH   1  12
BRANCH   2  19
ATOM     19  C   UNL     1       0.869  11.485  19.602  0.00  0.00    +0.000 A 
ATOM     20  C   UNL     1       1.429  10.701  18.622  0.00  0.00    +0.000 A 
ATOM     21  N   UNL     1       1.395   9.400  19.060  0.00  0.00    +0.000 N 
ATOM     22  C   UNL     1       0.823   9.333  20.316  0.00  0.00    +0.000 A 
ATOM     23  C   UNL     1       0.554   8.243  21.161  0.00  0.00    +0.000 A 
ATOM     24  C   UNL     1      -0.061   8.494  22.392  0.00  0.00    +0.000 A 
ATOM     25  C   UNL     1      -0.395   9.787  22.776  0.00  0.00    +0.000 A 
ATOM     26  C   UNL     1      -0.126  10.867  21.932  0.00  0.00    +0.000 A 
ATOM     27  C   UNL     1       0.487  10.643  20.681  0.00  0.00    +0.000 A 
BRANCH  21  28
ATOM     28  C   UNL     1       1.881   8.273  18.280  0.00  0.00    +0.000 C 
BRANCH  28  29
ATOM     29  C   UNL     1       2.598   7.213  19.112  0.00  0.00    +0.000 C 
BRANCH  29  30
ATOM     30  C   UNL     1       2.637   5.851  18.426  0.00  0.00    +0.000 C 
BRANCH  30  31
ATOM     31  N   UNL     1       1.973   4.848  19.230  0.00  0.00    +0.000 N 
ATOM     32  C   UNL     1       1.894   4.793  20.587  0.00  0.00    +0.000 A 
ATOM     33  N   UNL     1       1.252   3.705  20.943  0.00  0.00    +0.000 NA
ATOM     34  C   UNL     1       0.965   3.114  19.743  0.00  0.00    +0.000 A 
ATOM     35  N   UNL     1       1.394   3.775  18.664  0.00  0.00    +0.000 NA
ENDBRANCH  30  31
ENDBRANCH  29  30
ENDBRANCH  28  29
ENDBRANCH  21  28
ENDBRANCH   2  19
TORSDOF 6
ENDMDL
