MODEL 1
REMARK VINA RESULT:      -8.7      0.000      0.000
REMARK  Name = 
REMARK  11 active torsions:
REMARK  status: ('A' for Active; 'I' for Inactive)
REMARK    1  A    between atoms: C_1  and  O_2
REMARK    2  A    between atoms: O_2  and  C_3
REMARK    3  A    between atoms: C_8  and  C_9
REMARK    4  A    between atoms: C_9  and  C_10
REMARK    5  A    between atoms: C_10  and  N_11
REMARK    6  A    between atoms: C_12  and  C_14
REMARK    7  A    between atoms: N_18  and  S_19
REMARK    8  A    between atoms: S_19  and  C_22
REMARK    9  A    between atoms: C_23  and  C_24
REMARK   10  A    between atoms: C_26  and  O_27
REMARK   11  A    between atoms: C_29  and  O_30
REMARK                            x       y       z     vdW  Elec       q    Type
REMARK                         _______ _______ _______ _____ _____    ______ ____
ROOT
ATOM      1  C   UNL     1       6.308   6.236  16.818  0.00  0.00    +0.000 C 
ATOM      2  C   UNL     1       7.068   5.276  15.885  0.00  0.00    +0.000 C 
ATOM      3  C   UNL     1       6.118   4.399  15.092  0.00  0.00    +0.000 C 
ATOM      4  C   UNL     1       5.207   3.619  16.030  0.00  0.00    +0.000 C 
ATOM      5  N   UNL     1       4.395   4.575  16.845  0.00  0.00    +0.000 NA
ATOM      6  C   UNL     1       5.306   5.465  17.679  0.00  0.00    +0.000 C 
ENDROOT
BRANCH   1   8
ATOM      7  N   UNL     1       7.571   8.291  17.400  0.00  0.00    +0.000 N 
ATOM      8  C   UNL     1       7.326   6.963  17.696  0.00  0.00    +0.000 C 
ATOM      9  O   UNL     1       7.917   6.392  18.613  0.00  0.00    +0.000 OA
ATOM     10  H   UNL     1       7.319   8.649  16.488  0.00  0.00    +0.000 HD
BRANCH   7  11
ATOM     11  C   UNL     1       8.632   8.949  18.149  0.00  0.00    +0.000 C 
BRANCH  11  12
ATOM     12  C   UNL     1       8.434  10.443  18.392  0.00  0.00    +0.000 C 
BRANCH  12  18
ATOM     13  C   UNL     1      10.050  11.423  20.120  0.00  0.00    +0.000 A 
ATOM     14  C   UNL     1      11.286  12.001  20.432  0.00  0.00    +0.000 A 
ATOM     15  C   UNL     1      12.180  12.347  19.418  0.00  0.00    +0.000 A 
ATOM     16  C   UNL     1      11.862  12.076  18.091  0.00  0.00    +0.000 A 
ATOM     17  C   UNL     1      10.668  11.424  17.780  0.00  0.00    +0.000 A 
ATOM     18  C   UNL     1       9.753  11.075  18.790  0.00  0.00    +0.000 A 
BRANCH  13  20
ATOM     19  C   UNL     1       8.907  12.199  22.042  0.00  0.00    +0.000 C 
ATOM     20  O   UNL     1       9.085  11.175  21.063  0.00  0.00    +0.000 OA
ENDBRANCH  13  20
ENDBRANCH  12  18
ENDBRANCH  11  12
ENDBRANCH   7  11
ENDBRANCH   1   8
BRANCH   5  21
ATOM     21  S   UNL     1       3.230   3.801  17.891  0.00  0.00    +0.000 S 
ATOM     22  O   UNL     1       2.163   3.381  17.010  0.00  0.00    +0.000 OA
ATOM     23  O   UNL     1       3.948   2.815  18.671  0.00  0.00    +0.000 OA
BRANCH  21  24
ATOM     24  C   UNL     1       2.675   5.050  18.984  0.00  0.00    +0.000 A 
ATOM     25  C   UNL     1       2.341   4.824  20.312  0.00  0.00    +0.000 A 
ATOM     26  C   UNL     1       2.352   3.492  20.996  0.00  0.00    +0.000 C 
ATOM     27  N   UNL     1       1.958   5.844  21.132  0.00  0.00    +0.000 NA
ATOM     28  C   UNL     1       1.884   7.058  20.584  0.00  0.00    +0.000 A 
ATOM     29  N   UNL     1       2.138   7.382  19.327  0.00  0.00    +0.000 NA
ATOM     30  C   UNL     1       2.517   6.351  18.556  0.00  0.00    +0.000 A 
BRANCH  28  31
ATOM     31  O   UNL     1       1.521   8.052  21.435  0.00  0.00    +0.000 OA
ATOM     32  H   UNL     1       2.208   7.941  22.113  0.00  0.00    +0.000 HD
ENDBRANCH  28  31
BRANCH  30  33
ATOM     33  O   UNL     1       2.720   6.763  17.285  0.00  0.00    +0.000 OA
ATOM     34  H   UNL     1       3.645   7.071  17.322  0.00  0.00    +0.000 HD
ENDBRANCH  30  33
ENDBRANCH  21  24
ENDBRANCH   5  21
TORSDOF 9
ENDMDL
MODEL 2
REMARK VINA RESULT:      -8.4      5.423      9.559
REMARK  Name = 
REMARK  11 active torsions:
REMARK  status: ('A' for Active; 'I' for Inactive)
REMARK    1  A    between atoms: C_1  and  O_2
REMARK    2  A    between atoms: O_2  and  C_3
REMARK    3  A    between atoms: C_8  and  C_9
REMARK    4  A    between atoms: C_9  and  C_10
REMARK    5  A    between atoms: C_10  and  N_11
REMARK    6  A    between atoms: C_12  and  C_14
REMARK    7  A    between atoms: N_18  and  S_19
REMARK    8  A    between atoms: S_19  and  C_22
REMARK    9  A    between atoms: C_23  and  C_24
REMARK   10  A    between atoms: C_26  and  O_27
REMARK   11  A    between atoms: C_29  and  O_30
REMARK                            x       y       z     vdW  Elec       q    Type
REMARK                         _______ _______ _______ _____ _____    ______ ____
ROOT
ATOM      1  C   UNL     1       0.172   8.585  21.135  0.00  0.00    +0.000 C 
ATOM      2  C   UNL     1       0.536   9.050  22.557  0.00  0.00    +0.000 C 
ATOM      3  C   UNL     1      -0.399  10.141  23.045  0.00  0.00    +0.000 C 
ATOM      4  C   UNL     1      -0.390  11.320  22.081  0.00  0.00    +0.000 C 
ATOM      5  N   UNL     1      -0.859  10.865  20.735  0.00  0.00    +0.000 NA
ATOM      6  C   UNL     1       0.063   9.784  20.190  0.00  0.00    +0.000 C 
ENDROOT
BRANCH   1   8
ATOM      7  N   UNL     1       2.020   8.018  19.581  0.00  0.00    +0.000 N 
ATOM      8  C   UNL     1       1.248   7.614  20.654  0.00  0.00    +0.000 C 
ATOM      9  O   UNL     1       1.413   6.514  21.183  0.00  0.00    +0.000 OA
ATOM     10  H   UNL     1       1.684   8.763  18.983  0.00  0.00    +0.000 HD
BRANCH   7  11
ATOM     11  C   UNL     1       2.958   7.046  19.038  0.00  0.00    +0.000 C 
BRANCH  11  12
ATOM     12  C   UNL     1       2.527   6.375  17.737  0.00  0.00    +0.000 C 
BRANCH  12  18
ATOM     13  C   UNL     1       3.718   4.123  17.475  0.00  0.00    +0.000 A 
ATOM     14  C   UNL     1       3.733   2.733  17.645  0.00  0.00    +0.000 A 
ATOM     15  C   UNL     1       2.600   2.067  18.110  0.00  0.00    +0.000 A 
ATOM     16  C   UNL     1       1.462   2.789  18.451  0.00  0.00    +0.000 A 
ATOM     17  C   UNL     1       1.468   4.181  18.364  0.00  0.00    +0.000 A 
ATOM     18  C   UNL     1       2.600   4.868  17.890  0.00  0.00    +0.000 A 
BRANCH  13  20
ATOM     19  C   UNL     1       5.971   4.825  17.661  0.00  0.00    +0.000 C 
ATOM     20  O   UNL     1       4.757   4.815  16.908  0.00  0.00    +0.000 OA
ENDBRANCH  13  20
ENDBRANCH  12  18
ENDBRANCH  11  12
ENDBRANCH   7  11
ENDBRANCH   1   8
BRANCH   5  21
ATOM     21  S   UNL     1      -0.995  12.151  19.562  0.00  0.00    +0.000 S 
ATOM     22  O   UNL     1      -0.904  13.370  20.335  0.00  0.00    +0.000 OA
ATOM     23  O   UNL     1      -0.020  11.884  18.524  0.00  0.00    +0.000 OA
BRANCH  21  24
ATOM     24  C   UNL     1      -2.588  11.983  18.858  0.00  0.00    +0.000 A 
ATOM     25  C   UNL     1      -3.764  12.318  19.514  0.00  0.00    +0.000 A 
ATOM     26  C   UNL     1      -3.861  12.821  20.920  0.00  0.00    +0.000 C 
ATOM     27  N   UNL     1      -4.976  12.210  18.899  0.00  0.00    +0.000 NA
ATOM     28  C   UNL     1      -4.976  11.731  17.653  0.00  0.00    +0.000 A 
ATOM     29  N   UNL     1      -3.926  11.342  16.949  0.00  0.00    +0.000 NA
ATOM     30  C   UNL     1      -2.754  11.471  17.588  0.00  0.00    +0.000 A 
BRANCH  28  31
ATOM     31  O   UNL     1      -6.198  11.657  17.066  0.00  0.00    +0.000 OA
ATOM     32  H   UNL     1      -6.419  10.733  17.270  0.00  0.00    +0.000 HD
ENDBRANCH  28  31
BRANCH  30  33
ATOM     33  O   UNL     1      -1.742  11.019  16.813  0.00  0.00    +0.000 OA
ATOM     34  H   UNL     1      -2.226  10.515  16.132  0.00  0.00    +0.000 HD
ENDBRANCH  30  33
ENDBRANCH  21  24
ENDBRANCH   5  21
TORSDOF 9
ENDMDL
MODEL 3
REMARK VINA RESULT:      -8.3      2.049      3.000
REMARK  Name = 
REMARK  11 active torsions:
REMARK  status: ('A' for Active; 'I' for Inactive)
REMARK    1  A    between atoms: C_1  and  O_2
REMARK    2  A    between atoms: O_2  and  C_3
REMARK    3  A    between atoms: C_8  and  C_9
REMARK    4  A    between atoms: C_9  and  C_10
REMARK    5  A    between atoms: C_10  and  N_11
REMARK    6  A    between atoms: C_12  and  C_14
REMARK    7  A    between atoms: N_18  and  S_19
REMARK    8  A    between atoms: S_19  and  C_22
REMARK    9  A    between atoms: C_23  and  C_24
REMARK   10  A    between atoms: C_26  and  O_27
REMARK   11  A    between atoms: C_29  and  O_30
REMARK                            x       y       z     vdW  Elec       q    Type
REMARK                         _______ _______ _______ _____ _____    ______ ____
ROOT
ATOM      1  C   UNL     1       7.721   7.139  17.854  0.00  0.00    +0.000 C 
ATOM      2  C   UNL     1       8.183   6.552  19.201  0.00  0.00    +0.000 C 
ATOM      3  C   UNL     1       7.829   5.082  19.321  0.00  0.00    +0.000 C 
ATOM      4  C   UNL     1       6.331   4.879  19.137  0.00  0.00    +0.000 C 
ATOM      5  N   UNL     1       5.927   5.351  17.777  0.00  0.00    +0.000 NA
ATOM      6  C   UNL     1       6.241   6.831  17.615  0.00  0.00    +0.000 C 
ENDROOT
BRANCH   1   8
ATOM      7  N   UNL     1       8.857   9.123  18.817  0.00  0.00    +0.000 N 
ATOM      8  C   UNL     1       7.962   8.647  17.877  0.00  0.00    +0.000 C 
ATOM      9  O   UNL     1       7.375   9.409  17.107  0.00  0.00    +0.000 OA
ATOM     10  H   UNL     1       9.089   8.546  19.615  0.00  0.00    +0.000 HD
BRANCH   7  11
ATOM     11  C   UNL     1       8.991  10.569  18.928  0.00  0.00    +0.000 C 
BRANCH  11  12
ATOM     12  C   UNL     1      10.365  11.068  19.365  0.00  0.00    +0.000 C 
BRANCH  12  18
ATOM     13  C   UNL     1      10.329  13.618  19.128  0.00  0.00    +0.000 A 
ATOM     14  C   UNL     1      10.666  14.773  18.413  0.00  0.00    +0.000 A 
ATOM     15  C   UNL     1      11.258  14.676  17.154  0.00  0.00    +0.000 A 
ATOM     16  C   UNL     1      11.557  13.426  16.623  0.00  0.00    +0.000 A 
ATOM     17  C   UNL     1      11.300  12.274  17.366  0.00  0.00    +0.000 A 
ATOM     18  C   UNL     1      10.698  12.354  18.634  0.00  0.00    +0.000 A 
BRANCH  13  20
ATOM     19  C   UNL     1      10.273  14.361  21.375  0.00  0.00    +0.000 C 
ATOM     20  O   UNL     1       9.637  13.650  20.312  0.00  0.00    +0.000 OA
ENDBRANCH  13  20
ENDBRANCH  12  18
ENDBRANCH  11  12
ENDBRANCH   7  11
ENDBRANCH   1   8
BRANCH   5  21
ATOM     21  S   UNL     1       4.244   5.075  17.402  0.00  0.00    +0.000 S 
ATOM     22  O   UNL     1       3.710   6.387  17.108  0.00  0.00    +0.000 OA
ATOM     23  O   UNL     1       4.197   4.037  16.394  0.00  0.00    +0.000 OA
BRANCH  21  24
ATOM     24  C   UNL     1       3.533   4.432  18.867  0.00  0.00    +0.000 A 
ATOM     25  C   UNL     1       2.849   5.201  19.797  0.00  0.00    +0.000 A 
ATOM     26  C   UNL     1       2.655   6.684  19.726  0.00  0.00    +0.000 C 
ATOM     27  N   UNL     1       2.274   4.639  20.899  0.00  0.00    +0.000 NA
ATOM     28  C   UNL     1       2.437   3.324  21.055  0.00  0.00    +0.000 A 
ATOM     29  N   UNL     1       3.101   2.503  20.258  0.00  0.00    +0.000 NA
ATOM     30  C   UNL     1       3.645   3.095  19.184  0.00  0.00    +0.000 A 
BRANCH  28  31
ATOM     31  O   UNL     1       1.833   2.796  22.150  0.00  0.00    +0.000 OA
ATOM     32  H   UNL     1       1.298   3.560  22.421  0.00  0.00    +0.000 HD
ENDBRANCH  28  31
BRANCH  30  33
ATOM     33  O   UNL     1       4.333   2.194  18.447  0.00  0.00    +0.000 OA
ATOM     34  H   UNL     1       4.375   1.432  19.055  0.00  0.00    +0.000 HD
ENDBRANCH  30  33
ENDBRANCH  21  24
ENDBRANCH   5  21
TORSDOF 9
ENDMDL
MODEL 4
REMARK VINA RESULT:      -8.3      1.071      1.712
REMARK  Name = 
REMARK  11 active torsions:
REMARK  status: ('A' for Active; 'I' for Inactive)
REMARK    1  A    between atoms: C_1  and  O_2
REMARK    2  A    between atoms: O_2  and  C_3
REMARK    3  A    between atoms: C_8  and  C_9
REMARK    4  A    between atoms: C_9  and  C_10
REMARK    5  A    between atoms: C_10  and  N_11
REMARK    6  A    between atoms: C_12  and  C_14
REMARK    7  A    between atoms: N_18  and  S_19
REMARK    8  A    between atoms: S_19  and  C_22
REMARK    9  A    between atoms: C_23  and  C_24
REMARK   10  A    between atoms: C_26  and  O_27
REMARK   11  A    between atoms: C_29  and  O_30
REMARK                            x       y       z     vdW  Elec       q    Type
REMARK                         _______ _______ _______ _____ _____    ______ ____
ROOT
ATOM      1  C   UNL     1       6.366   6.386  16.900  0.00  0.00    +0.000 C 
ATOM      2  C   UNL     1       7.149   5.450  15.960  0.00  0.00    +0.000 C 
ATOM      3  C   UNL     1       6.219   4.573  15.144  0.00  0.00    +0.000 C 
ATOM      4  C   UNL     1       5.307   3.767  16.061  0.00  0.00    +0.000 C 
ATOM      5  N   UNL     1       4.475   4.700  16.880  0.00  0.00    +0.000 NA
ATOM      6  C   UNL     1       5.364   5.590  17.738  0.00  0.00    +0.000 C 
ENDROOT
BRANCH   1   8
ATOM      7  N   UNL     1       7.546   8.464  17.569  0.00  0.00    +0.000 N 
ATOM      8  C   UNL     1       7.365   7.113  17.799  0.00  0.00    +0.000 C 
ATOM      9  O   UNL     1       7.995   6.523  18.678  0.00  0.00    +0.000 OA
ATOM     10  H   UNL     1       7.264   8.856  16.679  0.00  0.00    +0.000 HD
BRANCH   7  11
ATOM     11  C   UNL     1       8.589   9.131  18.335  0.00  0.00    +0.000 C 
BRANCH  11  12
ATOM     12  C   UNL     1       9.076  10.459  17.763  0.00  0.00    +0.000 C 
BRANCH  12  18
ATOM     13  C   UNL     1       9.942  12.693  18.665  0.00  0.00    +0.000 A 
ATOM     14  C   UNL     1      10.257  13.522  19.748  0.00  0.00    +0.000 A 
ATOM     15  C   UNL     1      10.191  13.034  21.053  0.00  0.00    +0.000 A 
ATOM     16  C   UNL     1       9.767  11.731  21.285  0.00  0.00    +0.000 A 
ATOM     17  C   UNL     1       9.372  10.926  20.216  0.00  0.00    +0.000 A 
ATOM     18  C   UNL     1       9.439  11.400  18.894  0.00  0.00    +0.000 A 
BRANCH  13  20
ATOM     19  C   UNL     1      11.459  13.217  16.924  0.00  0.00    +0.000 C 
ATOM     20  O   UNL     1      10.105  13.080  17.360  0.00  0.00    +0.000 OA
ENDBRANCH  13  20
ENDBRANCH  12  18
ENDBRANCH  11  12
ENDBRANCH   7  11
ENDBRANCH   1   8
BRANCH   5  21
ATOM     21  S   UNL     1       3.309   3.897  17.902  0.00  0.00    +0.000 S 
ATOM     22  O   UNL     1       2.264   3.462  17.001  0.00  0.00    +0.000 OA
ATOM     23  O   UNL     1       4.033   2.919  18.687  0.00  0.00    +0.000 OA
BRANCH  21  24
ATOM     24  C   UNL     1       2.711   5.126  18.995  0.00  0.00    +0.000 A 
ATOM     25  C   UNL     1       2.357   4.883  20.314  0.00  0.00    +0.000 A 
ATOM     26  C   UNL     1       2.379   3.546  20.988  0.00  0.00    +0.000 C 
ATOM     27  N   UNL     1       1.941   5.889  21.135  0.00  0.00    +0.000 NA
ATOM     28  C   UNL     1       1.856   7.107  20.596  0.00  0.00    +0.000 A 
ATOM     29  N   UNL     1       2.127   7.445  19.346  0.00  0.00    +0.000 NA
ATOM     30  C   UNL     1       2.538   6.428  18.574  0.00  0.00    +0.000 A 
BRANCH  28  31
ATOM     31  O   UNL     1       1.459   8.087  21.448  0.00  0.00    +0.000 OA
ATOM     32  H   UNL     1       2.329   8.398  21.749  0.00  0.00    +0.000 HD
ENDBRANCH  28  31
BRANCH  30  33
ATOM     33  O   UNL     1       2.757   6.854  17.310  0.00  0.00    +0.000 OA
ATOM     34  H   UNL     1       3.446   7.531  17.446  0.00  0.00    +0.000 HD
ENDBRANCH  30  33
ENDBRANCH  21  24
ENDBRANCH   5  21
TORSDOF 9
ENDMDL
MODEL 5
REMARK VINA RESULT:      -8.2      2.052      3.189
REMARK  Name = 
REMARK  11 active torsions:
REMARK  status: ('A' for Active; 'I' for Inactive)
REMARK    1  A    between atoms: C_1  and  O_2
REMARK    2  A    between atoms: O_2  and  C_3
REMARK    3  A    between atoms: C_8  and  C_9
REMARK    4  A    between atoms: C_9  and  C_10
REMARK    5  A    between atoms: C_10  and  N_11
REMARK    6  A    between atoms: C_12  and  C_14
REMARK    7  A    between atoms: N_18  and  S_19
REMARK    8  A    between atoms: S_19  and  C_22
REMARK    9  A    between atoms: C_23  and  C_24
REMARK   10  A    between atoms: C_26  and  O_27
REMARK   11  A    between atoms: C_29  and  O_30
REMARK                            x       y       z     vdW  Elec       q    Type
REMARK                         _______ _______ _______ _____ _____    ______ ____
ROOT
ATOM      1  C   UNL     1       7.687   7.048  17.853  0.00  0.00    +0.000 C 
ATOM      2  C   UNL     1       8.142   6.413  19.180  0.00  0.00    +0.000 C 
ATOM      3  C   UNL     1       7.713   4.962  19.281  0.00  0.00    +0.000 C 
ATOM      4  C   UNL     1       6.202   4.842  19.123  0.00  0.00    +0.000 C 
ATOM      5  N   UNL     1       5.799   5.359  17.779  0.00  0.00    +0.000 NA
ATOM      6  C   UNL     1       6.189   6.824  17.637  0.00  0.00    +0.000 C 
ENDROOT
BRANCH   1   8
ATOM      7  N   UNL     1       8.838   8.972  18.915  0.00  0.00    +0.000 N 
ATOM      8  C   UNL     1       8.008   8.541  17.897  0.00  0.00    +0.000 C 
ATOM      9  O   UNL     1       7.538   9.330  17.077  0.00  0.00    +0.000 OA
ATOM     10  H   UNL     1       8.964   8.387  19.732  0.00  0.00    +0.000 HD
BRANCH   7  11
ATOM     11  C   UNL     1       9.042  10.408  19.038  0.00  0.00    +0.000 C 
BRANCH  11  12
ATOM     12  C   UNL     1      10.345  10.831  19.711  0.00  0.00    +0.000 C 
BRANCH  12  18
ATOM     13  C   UNL     1      10.890  13.282  20.214  0.00  0.00    +0.000 A 
ATOM     14  C   UNL     1      10.648  14.452  20.943  0.00  0.00    +0.000 A 
ATOM     15  C   UNL     1       9.742  14.449  22.003  0.00  0.00    +0.000 A 
ATOM     16  C   UNL     1       9.041  13.288  22.312  0.00  0.00    +0.000 A 
ATOM     17  C   UNL     1       9.217  12.141  21.538  0.00  0.00    +0.000 A 
ATOM     18  C   UNL     1      10.131  12.126  20.469  0.00  0.00    +0.000 A 
BRANCH  13  20
ATOM     19  C   UNL     1      11.527  13.806  17.994  0.00  0.00    +0.000 C 
ATOM     20  O   UNL     1      11.856  13.195  19.244  0.00  0.00    +0.000 OA
ENDBRANCH  13  20
ENDBRANCH  12  18
ENDBRANCH  11  12
ENDBRANCH   7  11
ENDBRANCH   1   8
BRANCH   5  21
ATOM     21  S   UNL     1       4.097   5.180  17.433  0.00  0.00    +0.000 S 
ATOM     22  O   UNL     1       3.608   6.532  17.269  0.00  0.00    +0.000 OA
ATOM     23  O   UNL     1       3.982   4.237  16.341  0.00  0.00    +0.000 OA
BRANCH  21  24
ATOM     24  C   UNL     1       3.400   4.439  18.857  0.00  0.00    +0.000 A 
ATOM     25  C   UNL     1       3.253   3.069  19.024  0.00  0.00    +0.000 A 
ATOM     26  C   UNL     1       3.612   2.027  18.011  0.00  0.00    +0.000 C 
ATOM     27  N   UNL     1       2.745   2.544  20.176  0.00  0.00    +0.000 NA
ATOM     28  C   UNL     1       2.364   3.413  21.114  0.00  0.00    +0.000 A 
ATOM     29  N   UNL     1       2.420   4.733  21.047  0.00  0.00    +0.000 NA
ATOM     30  C   UNL     1       2.931   5.208  19.902  0.00  0.00    +0.000 A 
BRANCH  28  31
ATOM     31  O   UNL     1       1.885   2.854  22.254  0.00  0.00    +0.000 OA
ATOM     32  H   UNL     1       2.721   2.723  22.732  0.00  0.00    +0.000 HD
ENDBRANCH  28  31
BRANCH  30  33
ATOM     33  O   UNL     1       2.917   6.560  19.903  0.00  0.00    +0.000 OA
ATOM     34  H   UNL     1       3.735   6.765  20.393  0.00  0.00    +0.000 HD
ENDBRANCH  30  33
ENDBRANCH  21  24
ENDBRANCH   5  21
TORSDOF 9
ENDMDL
MODEL 6
REMARK VINA RESULT:      -8.2      3.829      8.436
REMARK  Name = 
REMARK  11 active torsions:
REMARK  status: ('A' for Active; 'I' for Inactive)
REMARK    1  A    between atoms: C_1  and  O_2
REMARK    2  A    between atoms: O_2  and  C_3
REMARK    3  A    between atoms: C_8  and  C_9
REMARK    4  A    between atoms: C_9  and  C_10
REMARK    5  A    between atoms: C_10  and  N_11
REMARK    6  A    between atoms: C_12  and  C_14
REMARK    7  A    between atoms: N_18  and  S_19
REMARK    8  A    between atoms: S_19  and  C_22
REMARK    9  A    between atoms: C_23  and  C_24
REMARK   10  A    between atoms: C_26  and  O_27
REMARK   11  A    between atoms: C_29  and  O_30
REMARK                            x       y       z     vdW  Elec       q    Type
REMARK                         _______ _______ _______ _____ _____    ______ ____
ROOT
ATOM      1  C   UNL     1       2.348   6.811  19.955  0.00  0.00    +0.000 C 
ATOM      2  C   UNL     1       1.112   5.933  20.226  0.00  0.00    +0.000 C 
ATOM      3  C   UNL     1       1.502   4.571  20.767  0.00  0.00    +0.000 C 
ATOM      4  C   UNL     1       2.454   3.870  19.805  0.00  0.00    +0.000 C 
ATOM      5  N   UNL     1       3.696   4.687  19.649  0.00  0.00    +0.000 NA
ATOM      6  C   UNL     1       3.359   6.061  19.086  0.00  0.00    +0.000 C 
ENDROOT
BRANCH   1   8
ATOM      7  N   UNL     1       1.233   9.026  20.046  0.00  0.00    +0.000 N 
ATOM      8  C   UNL     1       1.887   8.093  19.263  0.00  0.00    +0.000 C 
ATOM      9  O   UNL     1       2.072   8.283  18.061  0.00  0.00    +0.000 OA
ATOM     10  H   UNL     1       0.830   8.735  20.928  0.00  0.00    +0.000 HD
BRANCH   7  11
ATOM     11  C   UNL     1       0.679  10.187  19.366  0.00  0.00    +0.000 C 
BRANCH  11  12
ATOM     12  C   UNL     1      -0.660  10.685  19.902  0.00  0.00    +0.000 C 
BRANCH  12  18
ATOM     13  C   UNL     1      -2.837  11.549  18.867  0.00  0.00    +0.000 A 
ATOM     14  C   UNL     1      -3.723  11.612  17.785  0.00  0.00    +0.000 A 
ATOM     15  C   UNL     1      -3.508  10.830  16.651  0.00  0.00    +0.000 A 
ATOM     16  C   UNL     1      -2.384  10.016  16.573  0.00  0.00    +0.000 A 
ATOM     17  C   UNL     1      -1.454  10.011  17.613  0.00  0.00    +0.000 A 
ATOM     18  C   UNL     1      -1.659  10.789  18.766  0.00  0.00    +0.000 A 
BRANCH  13  20
ATOM     19  C   UNL     1      -2.470  13.496  20.164  0.00  0.00    +0.000 C 
ATOM     20  O   UNL     1      -3.063  12.201  20.053  0.00  0.00    +0.000 OA
ENDBRANCH  13  20
ENDBRANCH  12  18
ENDBRANCH  11  12
ENDBRANCH   7  11
ENDBRANCH   1   8
BRANCH   5  21
ATOM     21  S   UNL     1       4.915   3.938  18.649  0.00  0.00    +0.000 S 
ATOM     22  O   UNL     1       5.615   3.033  19.534  0.00  0.00    +0.000 OA
ATOM     23  O   UNL     1       4.243   3.420  17.476  0.00  0.00    +0.000 OA
BRANCH  21  24
ATOM     24  C   UNL     1       5.968   5.238  18.134  0.00  0.00    +0.000 A 
ATOM     25  C   UNL     1       5.897   5.844  16.888  0.00  0.00    +0.000 A 
ATOM     26  C   UNL     1       4.961   5.458  15.786  0.00  0.00    +0.000 C 
ATOM     27  N   UNL     1       6.714   6.885  16.557  0.00  0.00    +0.000 NA
ATOM     28  C   UNL     1       7.606   7.263  17.475  0.00  0.00    +0.000 A 
ATOM     29  N   UNL     1       7.790   6.733  18.673  0.00  0.00    +0.000 NA
ATOM     30  C   UNL     1       6.963   5.717  18.961  0.00  0.00    +0.000 A 
BRANCH  28  31
ATOM     31  O   UNL     1       8.386   8.315  17.119  0.00  0.00    +0.000 OA
ATOM     32  H   UNL     1       9.053   8.265  17.824  0.00  0.00    +0.000 HD
ENDBRANCH  28  31
BRANCH  30  33
ATOM     33  O   UNL     1       7.242   5.213  20.184  0.00  0.00    +0.000 OA
ATOM     34  H   UNL     1       7.283   4.256  19.999  0.00  0.00    +0.000 HD
ENDBRANCH  30  33
ENDBRANCH  21  24
ENDBRANCH   5  21
TORSDOF 9
ENDMDL
MODEL 7
REMARK VINA RESULT:      -8.2      5.498      9.592
REMARK  Name = 
REMARK  11 active torsions:
REMARK  status: ('A' for Active; 'I' for Inactive)
REMARK    1  A    between atoms: C_1  and  O_2
REMARK    2  A    between atoms: O_2  and  C_3
REMARK    3  A    between atoms: C_8  and  C_9
REMARK    4  A    between atoms: C_9  and  C_10
REMARK    5  A    between atoms: C_10  and  N_11
REMARK    6  A    between atoms: C_12  and  C_14
REMARK    7  A    between atoms: N_18  and  S_19
REMARK    8  A    between atoms: S_19  and  C_22
REMARK    9  A    between atoms: C_23  and  C_24
REMARK   10  A    between atoms: C_26  and  O_27
REMARK   11  A    between atoms: C_29  and  O_30
REMARK                            x       y       z     vdW  Elec       q    Type
REMARK                         _______ _______ _______ _____ _____    ______ ____
ROOT
ATOM      1  C   UNL     1       0.179   8.509  21.208  0.00  0.00    +0.000 C 
ATOM      2  C   UNL     1       0.579   9.018  22.605  0.00  0.00    +0.000 C 
ATOM      3  C   UNL     1      -0.366  10.096  23.099  0.00  0.00    +0.000 C 
ATOM      4  C   UNL     1      -0.421  11.251  22.106  0.00  0.00    +0.000 C 
ATOM      5  N   UNL     1      -0.923  10.752  20.789  0.00  0.00    +0.000 NA
ATOM      6  C   UNL     1       0.008   9.680  20.239  0.00  0.00    +0.000 C 
ENDROOT
BRANCH   1   8
ATOM      7  N   UNL     1       2.009   7.963  19.624  0.00  0.00    +0.000 N 
ATOM      8  C   UNL     1       1.263   7.553  20.714  0.00  0.00    +0.000 C 
ATOM      9  O   UNL     1       1.456   6.459  21.246  0.00  0.00    +0.000 OA
ATOM     10  H   UNL     1       1.650   8.698  19.028  0.00  0.00    +0.000 HD
BRANCH   7  11
ATOM     11  C   UNL     1       2.953   7.003  19.071  0.00  0.00    +0.000 C 
BRANCH  11  12
ATOM     12  C   UNL     1       2.519   6.330  17.772  0.00  0.00    +0.000 C 
BRANCH  12  18
ATOM     13  C   UNL     1       3.632   4.042  17.482  0.00  0.00    +0.000 A 
ATOM     14  C   UNL     1       3.615   2.654  17.666  0.00  0.00    +0.000 A 
ATOM     15  C   UNL     1       2.486   2.026  18.191  0.00  0.00    +0.000 A 
ATOM     16  C   UNL     1       1.386   2.784  18.576  0.00  0.00    +0.000 A 
ATOM     17  C   UNL     1       1.428   4.175  18.472  0.00  0.00    +0.000 A 
ATOM     18  C   UNL     1       2.556   4.824  17.939  0.00  0.00    +0.000 A 
BRANCH  13  20
ATOM     19  C   UNL     1       5.919   4.651  17.538  0.00  0.00    +0.000 C 
ATOM     20  O   UNL     1       4.663   4.698  16.859  0.00  0.00    +0.000 OA
ENDBRANCH  13  20
ENDBRANCH  12  18
ENDBRANCH  11  12
ENDBRANCH   7  11
ENDBRANCH   1   8
BRANCH   5  21
ATOM     21  S   UNL     1      -1.131  12.004  19.590  0.00  0.00    +0.000 S 
ATOM     22  O   UNL     1      -1.066  13.243  20.333  0.00  0.00    +0.000 OA
ATOM     23  O   UNL     1      -0.171  11.747  18.536  0.00  0.00    +0.000 OA
BRANCH  21  24
ATOM     24  C   UNL     1      -2.732  11.763  18.927  0.00  0.00    +0.000 A 
ATOM     25  C   UNL     1      -3.024  10.860  17.915  0.00  0.00    +0.000 A 
ATOM     26  C   UNL     1      -2.026  10.000  17.204  0.00  0.00    +0.000 C 
ATOM     27  N   UNL     1      -4.300  10.680  17.469  0.00  0.00    +0.000 NA
ATOM     28  C   UNL     1      -5.243  11.442  18.027  0.00  0.00    +0.000 A 
ATOM     29  N   UNL     1      -5.075  12.359  18.964  0.00  0.00    +0.000 NA
ATOM     30  C   UNL     1      -3.807  12.499  19.380  0.00  0.00    +0.000 A 
BRANCH  28  31
ATOM     31  O   UNL     1      -6.503  11.220  17.573  0.00  0.00    +0.000 OA
ATOM     32  H   UNL     1      -6.331  10.468  16.982  0.00  0.00    +0.000 HD
ENDBRANCH  28  31
BRANCH  30  33
ATOM     33  O   UNL     1      -3.721  13.478  20.308  0.00  0.00    +0.000 OA
ATOM     34  H   UNL     1      -4.639  13.806  20.335  0.00  0.00    +0.000 HD
ENDBRANCH  30  33
ENDBRANCH  21  24
ENDBRANCH   5  21
TORSDOF 9
ENDMDL
MODEL 8
REMARK VINA RESULT:      -8.1      5.008      8.535
REMARK  Name = 
REMARK  11 active torsions:
REMARK  status: ('A' for Active; 'I' for Inactive)
REMARK    1  A    between atoms: C_1  and  O_2
REMARK    2  A    between atoms: O_2  and  C_3
REMARK    3  A    between atoms: C_8  and  C_9
REMARK    4  A    between atoms: C_9  and  C_10
REMARK    5  A    between atoms: C_10  and  N_11
REMARK    6  A    between atoms: C_12  and  C_14
REMARK    7  A    between atoms: N_18  and  S_19
REMARK    8  A    between atoms: S_19  and  C_22
REMARK    9  A    between atoms: C_23  and  C_24
REMARK   10  A    between atoms: C_26  and  O_27
REMARK   11  A    between atoms: C_29  and  O_30
REMARK                            x       y       z     vdW  Elec       q    Type
REMARK                         _______ _______ _______ _____ _____    ______ ____
ROOT
ATOM      1  C   UNL     1       0.917   8.476  20.124  0.00  0.00    +0.000 C 
ATOM      2  C   UNL     1       1.230   8.542  21.630  0.00  0.00    +0.000 C 
ATOM      3  C   UNL     1       0.145   9.277  22.395  0.00  0.00    +0.000 C 
ATOM      4  C   UNL     1      -0.049  10.678  21.828  0.00  0.00    +0.000 C 
ATOM      5  N   UNL     1      -0.465  10.582  20.395  0.00  0.00    +0.000 NA
ATOM      6  C   UNL     1       0.605   9.871  19.579  0.00  0.00    +0.000 C 
ENDROOT
BRANCH   1   8
ATOM      7  N   UNL     1       2.668   6.726  19.954  0.00  0.00    +0.000 N 
ATOM      8  C   UNL     1       2.123   7.873  19.406  0.00  0.00    +0.000 C 
ATOM      9  O   UNL     1       2.603   8.391  18.397  0.00  0.00    +0.000 OA
ATOM     10  H   UNL     1       2.465   6.495  20.918  0.00  0.00    +0.000 HD
BRANCH   7  11
ATOM     11  C   UNL     1       3.894   6.224  19.350  0.00  0.00    +0.000 C 
BRANCH  11  12
ATOM     12  C   UNL     1       3.831   4.788  18.838  0.00  0.00    +0.000 C 
BRANCH  12  18
ATOM     13  C   UNL     1       6.254   4.730  18.010  0.00  0.00    +0.000 A 
ATOM     14  C   UNL     1       7.178   4.526  16.978  0.00  0.00    +0.000 A 
ATOM     15  C   UNL     1       6.739   4.298  15.674  0.00  0.00    +0.000 A 
ATOM     16  C   UNL     1       5.378   4.227  15.402  0.00  0.00    +0.000 A 
ATOM     17  C   UNL     1       4.453   4.347  16.441  0.00  0.00    +0.000 A 
ATOM     18  C   UNL     1       4.878   4.584  17.760  0.00  0.00    +0.000 A 
BRANCH  13  20
ATOM     19  C   UNL     1       7.892   5.730  19.397  0.00  0.00    +0.000 C 
ATOM     20  O   UNL     1       6.626   5.079  19.284  0.00  0.00    +0.000 OA
ENDBRANCH  13  20
ENDBRANCH  12  18
ENDBRANCH  11  12
ENDBRANCH   7  11
ENDBRANCH   1   8
BRANCH   5  21
ATOM     21  S   UNL     1      -0.822  12.124  19.657  0.00  0.00    +0.000 S 
ATOM     22  O   UNL     1      -0.882  13.058  20.761  0.00  0.00    +0.000 OA
ATOM     23  O   UNL     1       0.146  12.323  18.599  0.00  0.00    +0.000 OA
BRANCH  21  24
ATOM     24  C   UNL     1      -2.396  11.940  18.916  0.00  0.00    +0.000 A 
ATOM     25  C   UNL     1      -3.591  12.263  19.544  0.00  0.00    +0.000 A 
ATOM     26  C   UNL     1      -3.726  12.763  20.948  0.00  0.00    +0.000 C 
ATOM     27  N   UNL     1      -4.787  12.144  18.900  0.00  0.00    +0.000 NA
ATOM     28  C   UNL     1      -4.753  11.665  17.655  0.00  0.00    +0.000 A 
ATOM     29  N   UNL     1      -3.683  11.288  16.976  0.00  0.00    +0.000 NA
ATOM     30  C   UNL     1      -2.527  11.428  17.642  0.00  0.00    +0.000 A 
BRANCH  28  31
ATOM     31  O   UNL     1      -5.959  11.580  17.039  0.00  0.00    +0.000 OA
ATOM     32  H   UNL     1      -6.516  11.364  17.806  0.00  0.00    +0.000 HD
ENDBRANCH  28  31
BRANCH  30  33
ATOM     33  O   UNL     1      -1.493  10.987  16.891  0.00  0.00    +0.000 OA
ATOM     34  H   UNL     1      -0.941  10.538  17.558  0.00  0.00    +0.000 HD
ENDBRANCH  30  33
ENDBRANCH  21  24
ENDBRANCH   5  21
TORSDOF 9
ENDMDL
MODEL 9
REMARK VINA RESULT:      -8.1      5.426      9.398
REMARK  Name = 
REMARK  11 active torsions:
REMARK  status: ('A' for Active; 'I' for Inactive)
REMARK    1  A    between atoms: C_1  and  O_2
REMARK    2  A    between atoms: O_2  and  C_3
REMARK    3  A    between atoms: C_8  and  C_9
REMARK    4  A    between atoms: C_9  and  C_10
REMARK    5  A    between atoms: C_10  and  N_11
REMARK    6  A    between atoms: C_12  and  C_14
REMARK    7  A    between atoms: N_18  and  S_19
REMARK    8  A    between atoms: S_19  and  C_22
REMARK    9  A    between atoms: C_23  and  C_24
REMARK   10  A    between atoms: C_26  and  O_27
REMARK   11  A    between atoms: C_29  and  O_30
REMARK                            x       y       z     vdW  Elec       q    Type
REMARK                         _______ _______ _______ _____ _____    ______ ____
ROOT
ATOM      1  C   UNL     1       0.172   8.959  20.931  0.00  0.00    +0.000 C 
ATOM      2  C   UNL     1       0.646   9.219  22.372  0.00  0.00    +0.000 C 
ATOM      3  C   UNL     1      -0.313  10.125  23.121  0.00  0.00    +0.000 C 
ATOM      4  C   UNL     1      -0.495  11.441  22.374  0.00  0.00    +0.000 C 
ATOM      5  N   UNL     1      -1.065  11.169  21.019  0.00  0.00    +0.000 NA
ATOM      6  C   UNL     1      -0.125  10.280  20.217  0.00  0.00    +0.000 C 
ENDROOT
BRANCH   1   8
ATOM      7  N   UNL     1       1.546   6.911  20.660  0.00  0.00    +0.000 N 
ATOM      8  C   UNL     1       1.263   8.183  20.196  0.00  0.00    +0.000 C 
ATOM      9  O   UNL     1       1.878   8.669  19.246  0.00  0.00    +0.000 OA
ATOM     10  H   UNL     1       1.261   6.652  21.597  0.00  0.00    +0.000 HD
BRANCH   7  11
ATOM     11  C   UNL     1       2.671   6.219  20.048  0.00  0.00    +0.000 C 
BRANCH  11  12
ATOM     12  C   UNL     1       2.311   5.228  18.946  0.00  0.00    +0.000 C 
BRANCH  12  18
ATOM     13  C   UNL     1       3.822   4.083  17.225  0.00  0.00    +0.000 A 
ATOM     14  C   UNL     1       4.809   4.163  16.235  0.00  0.00    +0.000 A 
ATOM     15  C   UNL     1       5.442   5.376  15.966  0.00  0.00    +0.000 A 
ATOM     16  C   UNL     1       5.063   6.523  16.653  0.00  0.00    +0.000 A 
ATOM     17  C   UNL     1       4.023   6.467  17.582  0.00  0.00    +0.000 A 
ATOM     18  C   UNL     1       3.378   5.251  17.869  0.00  0.00    +0.000 A 
BRANCH  13  20
ATOM     19  C   UNL     1       3.940   2.200  18.656  0.00  0.00    +0.000 C 
ATOM     20  O   UNL     1       3.254   2.897  17.615  0.00  0.00    +0.000 OA
ENDBRANCH  13  20
ENDBRANCH  12  18
ENDBRANCH  11  12
ENDBRANCH   7  11
ENDBRANCH   1   8
BRANCH   5  21
ATOM     21  S   UNL     1      -1.420  12.609  20.098  0.00  0.00    +0.000 S 
ATOM     22  O   UNL     1      -1.608  13.646  21.090  0.00  0.00    +0.000 OA
ATOM     23  O   UNL     1      -0.375  12.747  19.104  0.00  0.00    +0.000 OA
BRANCH  21  24
ATOM     24  C   UNL     1      -2.919  12.278  19.259  0.00  0.00    +0.000 A 
ATOM     25  C   UNL     1      -4.173  12.371  19.846  0.00  0.00    +0.000 A 
ATOM     26  C   UNL     1      -4.437  12.715  21.279  0.00  0.00    +0.000 C 
ATOM     27  N   UNL     1      -5.311  12.146  19.131  0.00  0.00    +0.000 NA
ATOM     28  C   UNL     1      -5.157  11.795  17.852  0.00  0.00    +0.000 A 
ATOM     29  N   UNL     1      -4.016  11.635  17.202  0.00  0.00    +0.000 NA
ATOM     30  C   UNL     1      -2.921  11.873  17.940  0.00  0.00    +0.000 A 
BRANCH  28  31
ATOM     31  O   UNL     1      -6.311  11.600  17.166  0.00  0.00    +0.000 OA
ATOM     32  H   UNL     1      -6.840  12.329  17.532  0.00  0.00    +0.000 HD
ENDBRANCH  28  31
BRANCH  30  33
ATOM     33  O   UNL     1      -1.804  11.652  17.211  0.00  0.00    +0.000 OA
ATOM     34  H   UNL     1      -1.405  12.542  17.188  0.00  0.00    +0.000 HD
ENDBRANCH  30  33
ENDBRANCH  21  24
ENDBRANCH   5  21
TORSDOF 9
ENDMDL
