MODEL 1
REMARK VINA RESULT:      -6.7      0.000      0.000
REMARK  Name = 
REMARK  5 active torsions:
REMARK  status: ('A' for Active; 'I' for Inactive)
REMARK    1  A    between atoms: O5*_1  and  C5*_2
REMARK    2  A    between atoms: C5*_2  and  C4*_3
REMARK    3  A    between atoms: C1*_5  and  N_6
REMARK    4  A    between atoms: C2*_13  and  O2*_14
REMARK    5  A    between atoms: C3*_15  and  O3*_16
REMARK                            x       y       z     vdW  Elec       q    Type
REMARK                         _______ _______ _______ _____ _____    ______ ____
ROOT
ATOM      1  C4* UNL     1       7.617   5.011  18.099  0.00  0.00    +0.000 C 
ATOM      2  O4* UNL     1       6.548   4.108  18.476  0.00  0.00    +0.000 OA
ATOM      3  C1* UNL     1       5.372   4.418  17.681  0.00  0.00    +0.000 C 
ATOM      4  C2* UNL     1       5.676   5.679  16.869  0.00  0.00    +0.000 C 
ATOM      5  C3* UNL     1       7.192   5.615  16.765  0.00  0.00    +0.000 C 
ENDROOT
BRANCH   3   6
ATOM      6  N   UNL     1       4.210   4.538  18.543  0.00  0.00    +0.000 N 
ATOM      7  C   UNL     1       3.921   5.595  19.367  0.00  0.00    +0.000 A 
ATOM      8  N   UNL     1       2.782   5.429  20.006  0.00  0.00    +0.000 NA
ATOM      9  C   UNL     1       2.310   4.205  19.594  0.00  0.00    +0.000 A 
ATOM     10 CL   UNL     1       0.847   3.554  20.162  0.00  0.00    +0.000 Cl
ATOM     11  C   UNL     1       3.190   3.640  18.704  0.00  0.00    +0.000 A 
ATOM     12 CL   UNL     1       3.167   2.151  17.883  0.00  0.00    +0.000 Cl
ENDBRANCH   3   6
BRANCH   4  13
ATOM     13  O2* UNL     1       5.070   5.674  15.574  0.00  0.00    +0.000 OA
ATOM     14  H2* UNL     1       4.119   5.863  15.713  0.00  0.00    +0.000 HD
ENDBRANCH   4  13
BRANCH   5  15
ATOM     15  O3* UNL     1       7.526   4.730  15.673  0.00  0.00    +0.000 OA
ATOM     16  H3* UNL     1       7.914   5.256  14.948  0.00  0.00    +0.000 HD
ENDBRANCH   5  15
BRANCH   1  17
ATOM     17  C5* UNL     1       7.846   6.039  19.213  0.00  0.00    +0.000 C 
BRANCH  17  18
ATOM     18  O5* UNL     1       7.963   5.410  20.483  0.00  0.00    +0.000 OA
ATOM     19  H5* UNL     1       7.911   4.447  20.338  0.00  0.00    +0.000 HD
ENDBRANCH  17  18
ENDBRANCH   1  17
TORSDOF 5
ENDMDL
MODEL 2
REMARK VINA RESULT:      -6.3      3.627      5.382
REMARK  Name = 
REMARK  5 active torsions:
REMARK  status: ('A' for Active; 'I' for Inactive)
REMARK    1  A    between atoms: O5*_1  and  C5*_2
REMARK    2  A    between atoms: C5*_2  and  C4*_3
REMARK    3  A    between atoms: C1*_5  and  N_6
REMARK    4  A    between atoms: C2*_13  and  O2*_14
REMARK    5  A    between atoms: C3*_15  and  O3*_16
REMARK                            x       y       z     vdW  Elec       q    Type
REMARK                         _______ _______ _______ _____ _____    ______ ____
ROOT
ATOM      1  C4* UNL     1       1.303   3.770  20.306  0.00  0.00    +0.000 C 
ATOM      2  O4* UNL     1       2.016   4.748  19.509  0.00  0.00    +0.000 OA
ATOM      3  C1* UNL     1       2.749   4.054  18.463  0.00  0.00    +0.000 C 
ATOM      4  C2* UNL     1       2.605   2.550  18.710  0.00  0.00    +0.000 C 
ATOM      5  C3* UNL     1       1.290   2.493  19.472  0.00  0.00    +0.000 C 
ENDROOT
BRANCH   3   6
ATOM      6  N   UNL     1       4.124   4.518  18.433  0.00  0.00    +0.000 N 
ATOM      7  C   UNL     1       5.225   3.806  18.835  0.00  0.00    +0.000 A 
ATOM      8  N   UNL     1       6.342   4.482  18.661  0.00  0.00    +0.000 NA
ATOM      9  C   UNL     1       5.956   5.693  18.135  0.00  0.00    +0.000 A 
ATOM     10 CL   UNL     1       7.072   6.913  17.744  0.00  0.00    +0.000 Cl
ATOM     11  C   UNL     1       4.590   5.731  18.005  0.00  0.00    +0.000 A 
ATOM     12 CL   UNL     1       3.542   6.949  17.446  0.00  0.00    +0.000 Cl
ENDBRANCH   3   6
BRANCH   4  13
ATOM     13  O2* UNL     1       2.535   1.787  17.504  0.00  0.00    +0.000 OA
ATOM     14  H2* UNL     1       1.678   2.009  17.086  0.00  0.00    +0.000 HD
ENDBRANCH   4  13
BRANCH   5  15
ATOM     15  O3* UNL     1       0.214   2.522  18.508  0.00  0.00    +0.000 OA
ATOM     16  H3* UNL     1       0.223   1.688  18.001  0.00  0.00    +0.000 HD
ENDBRANCH   5  15
BRANCH   1  17
ATOM     17  C5* UNL     1       1.978   3.623  21.675  0.00  0.00    +0.000 C 
BRANCH  17  18
ATOM     18  O5* UNL     1       1.783   2.320  22.212  0.00  0.00    +0.000 OA
ATOM     19  H5* UNL     1       2.093   2.335  23.136  0.00  0.00    +0.000 HD
ENDBRANCH  17  18
ENDBRANCH   1  17
TORSDOF 5
ENDMDL
MODEL 3
REMARK VINA RESULT:      -6.3      3.295      5.029
REMARK  Name = 
REMARK  5 active torsions:
REMARK  status: ('A' for Active; 'I' for Inactive)
REMARK    1  A    between atoms: O5*_1  and  C5*_2
REMARK    2  A    between atoms: C5*_2  and  C4*_3
REMARK    3  A    between atoms: C1*_5  and  N_6
REMARK    4  A    between atoms: C2*_13  and  O2*_14
REMARK    5  A    between atoms: C3*_15  and  O3*_16
REMARK                            x       y       z     vdW  Elec       q    Type
REMARK                         _______ _______ _______ _____ _____    ______ ____
ROOT
ATOM      1  C4* UNL     1       1.715   3.972  19.242  0.00  0.00    +0.000 C 
ATOM      2  O4* UNL     1       2.587   4.797  18.431  0.00  0.00    +0.000 OA
ATOM      3  C1* UNL     1       3.752   4.016  18.052  0.00  0.00    +0.000 C 
ATOM      4  C2* UNL     1       3.675   2.675  18.789  0.00  0.00    +0.000 C 
ATOM      5  C3* UNL     1       2.177   2.537  19.011  0.00  0.00    +0.000 C 
ENDROOT
BRANCH   3   6
ATOM      6  N   UNL     1       4.962   4.769  18.323  0.00  0.00    +0.000 N 
ATOM      7  C   UNL     1       5.765   4.638  19.427  0.00  0.00    +0.000 A 
ATOM      8  N   UNL     1       6.809   5.439  19.378  0.00  0.00    +0.000 NA
ATOM      9  C   UNL     1       6.678   6.134  18.199  0.00  0.00    +0.000 A 
ATOM     10 CL   UNL     1       7.808   7.302  17.701  0.00  0.00    +0.000 Cl
ATOM     11  C   UNL     1       5.536   5.739  17.548  0.00  0.00    +0.000 A 
ATOM     12 CL   UNL     1       4.839   6.247  16.082  0.00  0.00    +0.000 Cl
ENDBRANCH   3   6
BRANCH   4  13
ATOM     13  O2* UNL     1       4.185   1.583  18.022  0.00  0.00    +0.000 OA
ATOM     14  H2* UNL     1       5.138   1.514  18.239  0.00  0.00    +0.000 HD
ENDBRANCH   4  13
BRANCH   5  15
ATOM     15  O3* UNL     1       1.594   2.001  17.802  0.00  0.00    +0.000 OA
ATOM     16  H3* UNL     1       2.255   1.435  17.358  0.00  0.00    +0.000 HD
ENDBRANCH   5  15
BRANCH   1  17
ATOM     17  C5* UNL     1       1.779   4.428  20.705  0.00  0.00    +0.000 C 
BRANCH  17  18
ATOM     18  O5* UNL     1       2.446   5.678  20.829  0.00  0.00    +0.000 OA
ATOM     19  H5* UNL     1       2.514   5.880  21.781  0.00  0.00    +0.000 HD
ENDBRANCH  17  18
ENDBRANCH   1  17
TORSDOF 5
ENDMDL
MODEL 4
REMARK VINA RESULT:      -6.3      1.733      2.088
REMARK  Name = 
REMARK  5 active torsions:
REMARK  status: ('A' for Active; 'I' for Inactive)
REMARK    1  A    between atoms: O5*_1  and  C5*_2
REMARK    2  A    between atoms: C5*_2  and  C4*_3
REMARK    3  A    between atoms: C1*_5  and  N_6
REMARK    4  A    between atoms: C2*_13  and  O2*_14
REMARK    5  A    between atoms: C3*_15  and  O3*_16
REMARK                            x       y       z     vdW  Elec       q    Type
REMARK                         _______ _______ _______ _____ _____    ______ ____
ROOT
ATOM      1  C4* UNL     1       6.585   5.339  16.657  0.00  0.00    +0.000 C 
ATOM      2  O4* UNL     1       5.612   4.272  16.783  0.00  0.00    +0.000 OA
ATOM      3  C1* UNL     1       4.358   4.836  17.254  0.00  0.00    +0.000 C 
ATOM      4  C2* UNL     1       4.602   6.311  17.581  0.00  0.00    +0.000 C 
ATOM      5  C3* UNL     1       5.778   6.633  16.671  0.00  0.00    +0.000 C 
ENDROOT
BRANCH   3   6
ATOM      6  N   UNL     1       3.856   4.059  18.373  0.00  0.00    +0.000 N 
ATOM      7  C   UNL     1       4.616   3.409  19.311  0.00  0.00    +0.000 A 
ATOM      8  N   UNL     1       3.876   2.812  20.221  0.00  0.00    +0.000 NA
ATOM      9  C   UNL     1       2.575   3.069  19.857  0.00  0.00    +0.000 A 
ATOM     10 CL   UNL     1       1.248   2.488  20.746  0.00  0.00    +0.000 Cl
ATOM     11  C   UNL     1       2.551   3.824  18.710  0.00  0.00    +0.000 A 
ATOM     12 CL   UNL     1       1.261   4.426  17.781  0.00  0.00    +0.000 Cl
ENDBRANCH   3   6
BRANCH   4  13
ATOM     13  O2* UNL     1       3.480   7.145  17.287  0.00  0.00    +0.000 OA
ATOM     14  H2* UNL     1       2.708   6.737  17.730  0.00  0.00    +0.000 HD
ENDBRANCH   4  13
BRANCH   5  15
ATOM     15  O3* UNL     1       5.256   6.924  15.355  0.00  0.00    +0.000 OA
ATOM     16  H3* UNL     1       4.888   7.828  15.356  0.00  0.00    +0.000 HD
ENDBRANCH   5  15
BRANCH   1  17
ATOM     17  C5* UNL     1       7.624   5.231  17.780  0.00  0.00    +0.000 C 
BRANCH  17  18
ATOM     18  O5* UNL     1       8.319   3.991  17.725  0.00  0.00    +0.000 OA
ATOM     19  H5* UNL     1       8.536   3.737  18.641  0.00  0.00    +0.000 HD
ENDBRANCH  17  18
ENDBRANCH   1  17
TORSDOF 5
ENDMDL
MODEL 5
REMARK VINA RESULT:      -6.3      1.553      1.709
REMARK  Name = 
REMARK  5 active torsions:
REMARK  status: ('A' for Active; 'I' for Inactive)
REMARK    1  A    between atoms: O5*_1  and  C5*_2
REMARK    2  A    between atoms: C5*_2  and  C4*_3
REMARK    3  A    between atoms: C1*_5  and  N_6
REMARK    4  A    between atoms: C2*_13  and  O2*_14
REMARK    5  A    between atoms: C3*_15  and  O3*_16
REMARK                            x       y       z     vdW  Elec       q    Type
REMARK                         _______ _______ _______ _____ _____    ______ ____
ROOT
ATOM      1  C4* UNL     1       7.315   6.127  18.127  0.00  0.00    +0.000 C 
ATOM      2  O4* UNL     1       6.518   5.579  19.206  0.00  0.00    +0.000 OA
ATOM      3  C1* UNL     1       5.649   4.547  18.667  0.00  0.00    +0.000 C 
ATOM      4  C2* UNL     1       5.805   4.553  17.144  0.00  0.00    +0.000 C 
ATOM      5  C3* UNL     1       7.206   5.123  16.985  0.00  0.00    +0.000 C 
ENDROOT
BRANCH   3   6
ATOM      6  N   UNL     1       4.287   4.760  19.121  0.00  0.00    +0.000 N 
ATOM      7  C   UNL     1       3.669   5.974  19.279  0.00  0.00    +0.000 A 
ATOM      8  N   UNL     1       2.422   5.846  19.679  0.00  0.00    +0.000 NA
ATOM      9  C   UNL     1       2.216   4.492  19.802  0.00  0.00    +0.000 A 
ATOM     10 CL   UNL     1       0.730   3.838  20.302  0.00  0.00    +0.000 Cl
ATOM     11  C   UNL     1       3.364   3.814  19.475  0.00  0.00    +0.000 A 
ATOM     12 CL   UNL     1       3.730   2.153  19.458  0.00  0.00    +0.000 Cl
ENDBRANCH   3   6
BRANCH   4  13
ATOM     13  O2* UNL     1       5.711   3.250  16.564  0.00  0.00    +0.000 OA
ATOM     14  H2* UNL     1       5.195   2.704  17.193  0.00  0.00    +0.000 HD
ENDBRANCH   4  13
BRANCH   5  15
ATOM     15  O3* UNL     1       8.150   4.044  17.161  0.00  0.00    +0.000 OA
ATOM     16  H3* UNL     1       8.867   4.345  17.751  0.00  0.00    +0.000 HD
ENDBRANCH   5  15
BRANCH   1  17
ATOM     17  C5* UNL     1       6.819   7.537  17.779  0.00  0.00    +0.000 C 
BRANCH  17  18
ATOM     18  O5* UNL     1       7.832   8.298  17.134  0.00  0.00    +0.000 OA
ATOM     19  H5* UNL     1       8.692   7.985  17.471  0.00  0.00    +0.000 HD
ENDBRANCH  17  18
ENDBRANCH   1  17
TORSDOF 5
ENDMDL
MODEL 6
REMARK VINA RESULT:      -6.2      1.655      3.159
REMARK  Name = 
REMARK  5 active torsions:
REMARK  status: ('A' for Active; 'I' for Inactive)
REMARK    1  A    between atoms: O5*_1  and  C5*_2
REMARK    2  A    between atoms: C5*_2  and  C4*_3
REMARK    3  A    between atoms: C1*_5  and  N_6
REMARK    4  A    between atoms: C2*_13  and  O2*_14
REMARK    5  A    between atoms: C3*_15  and  O3*_16
REMARK                            x       y       z     vdW  Elec       q    Type
REMARK                         _______ _______ _______ _____ _____    ______ ____
ROOT
ATOM      1  C4* UNL     1       5.721   5.485  15.518  0.00  0.00    +0.000 C 
ATOM      2  O4* UNL     1       4.687   5.755  16.496  0.00  0.00    +0.000 OA
ATOM      3  C1* UNL     1       5.156   5.326  17.803  0.00  0.00    +0.000 C 
ATOM      4  C2* UNL     1       6.497   4.613  17.607  0.00  0.00    +0.000 C 
ATOM      5  C3* UNL     1       6.996   5.254  16.322  0.00  0.00    +0.000 C 
ENDROOT
BRANCH   3   6
ATOM      6  N   UNL     1       4.143   4.511  18.449  0.00  0.00    +0.000 N 
ATOM      7  C   UNL     1       4.081   3.141  18.437  0.00  0.00    +0.000 A 
ATOM      8  N   UNL     1       3.063   2.685  19.136  0.00  0.00    +0.000 NA
ATOM      9  C   UNL     1       2.422   3.804  19.614  0.00  0.00    +0.000 A 
ATOM     10 CL   UNL     1       1.027   3.710  20.582  0.00  0.00    +0.000 Cl
ATOM     11  C   UNL     1       3.071   4.935  19.185  0.00  0.00    +0.000 A 
ATOM     12 CL   UNL     1       2.744   6.586  19.426  0.00  0.00    +0.000 Cl
ENDBRANCH   3   6
BRANCH   4  13
ATOM     13  O2* UNL     1       7.413   4.833  18.682  0.00  0.00    +0.000 OA
ATOM     14  H2* UNL     1       8.078   5.472  18.352  0.00  0.00    +0.000 HD
ENDBRANCH   4  13
BRANCH   5  15
ATOM     15  O3* UNL     1       7.620   6.512  16.664  0.00  0.00    +0.000 OA
ATOM     16  H3* UNL     1       7.456   7.150  15.944  0.00  0.00    +0.000 HD
ENDBRANCH   5  15
BRANCH   1  17
ATOM     17  C5* UNL     1       5.306   4.299  14.637  0.00  0.00    +0.000 C 
BRANCH  17  18
ATOM     18  O5* UNL     1       6.437   3.555  14.205  0.00  0.00    +0.000 OA
ATOM     19  H5* UNL     1       6.828   3.133  14.993  0.00  0.00    +0.000 HD
ENDBRANCH  17  18
ENDBRANCH   1  17
TORSDOF 5
ENDMDL
MODEL 7
REMARK VINA RESULT:      -6.2      1.654      3.052
REMARK  Name = 
REMARK  5 active torsions:
REMARK  status: ('A' for Active; 'I' for Inactive)
REMARK    1  A    between atoms: O5*_1  and  C5*_2
REMARK    2  A    between atoms: C5*_2  and  C4*_3
REMARK    3  A    between atoms: C1*_5  and  N_6
REMARK    4  A    between atoms: C2*_13  and  O2*_14
REMARK    5  A    between atoms: C3*_15  and  O3*_16
REMARK                            x       y       z     vdW  Elec       q    Type
REMARK                         _______ _______ _______ _____ _____    ______ ____
ROOT
ATOM      1  C4* UNL     1       6.455   6.192  16.819  0.00  0.00    +0.000 C 
ATOM      2  O4* UNL     1       5.235   6.285  17.594  0.00  0.00    +0.000 OA
ATOM      3  C1* UNL     1       5.501   5.813  18.943  0.00  0.00    +0.000 C 
ATOM      4  C2* UNL     1       6.927   5.256  18.970  0.00  0.00    +0.000 C 
ATOM      5  C3* UNL     1       7.578   6.035  17.838  0.00  0.00    +0.000 C 
ENDROOT
BRANCH   3   6
ATOM      6  N   UNL     1       4.486   4.854  19.341  0.00  0.00    +0.000 N 
ATOM      7  C   UNL     1       4.645   3.495  19.418  0.00  0.00    +0.000 A 
ATOM      8  N   UNL     1       3.553   2.891  19.837  0.00  0.00    +0.000 NA
ATOM      9  C   UNL     1       2.634   3.896  20.029  0.00  0.00    +0.000 A 
ATOM     10 CL   UNL     1       1.052   3.591  20.573  0.00  0.00    +0.000 Cl
ATOM     11  C   UNL     1       3.194   5.108  19.712  0.00  0.00    +0.000 A 
ATOM     12 CL   UNL     1       2.557   6.684  19.724  0.00  0.00    +0.000 Cl
ENDBRANCH   3   6
BRANCH   4  13
ATOM     13  O2* UNL     1       7.598   5.491  20.209  0.00  0.00    +0.000 OA
ATOM     14  H2* UNL     1       6.942   5.318  20.916  0.00  0.00    +0.000 HD
ENDBRANCH   4  13
BRANCH   5  15
ATOM     15  O3* UNL     1       7.981   7.322  18.357  0.00  0.00    +0.000 OA
ATOM     16  H3* UNL     1       7.920   7.302  19.331  0.00  0.00    +0.000 HD
ENDBRANCH   5  15
BRANCH   1  17
ATOM     17  C5* UNL     1       6.347   5.037  15.816  0.00  0.00    +0.000 C 
BRANCH  17  18
ATOM     18  O5* UNL     1       7.598   4.773  15.193  0.00  0.00    +0.000 OA
ATOM     19  H5* UNL     1       7.450   4.769  14.229  0.00  0.00    +0.000 HD
ENDBRANCH  17  18
ENDBRANCH   1  17
TORSDOF 5
ENDMDL
MODEL 8
REMARK VINA RESULT:      -6.2      3.271      5.121
REMARK  Name = 
REMARK  5 active torsions:
REMARK  status: ('A' for Active; 'I' for Inactive)
REMARK    1  A    between atoms: O5*_1  and  C5*_2
REMARK    2  A    between atoms: C5*_2  and  C4*_3
REMARK    3  A    between atoms: C1*_5  and  N_6
REMARK    4  A    between atoms: C2*_13  and  O2*_14
REMARK    5  A    between atoms: C3*_15  and  O3*_16
REMARK                            x       y       z     vdW  Elec       q    Type
REMARK                         _______ _______ _______ _____ _____    ______ ____
ROOT
ATOM      1  C4* UNL     1       2.252   2.841  17.705  0.00  0.00    +0.000 C 
ATOM      2  O4* UNL     1       3.208   3.518  16.853  0.00  0.00    +0.000 OA
ATOM      3  C1* UNL     1       4.462   3.656  17.574  0.00  0.00    +0.000 C 
ATOM      4  C2* UNL     1       4.232   3.172  19.008  0.00  0.00    +0.000 C 
ATOM      5  C3* UNL     1       3.076   2.202  18.819  0.00  0.00    +0.000 C 
ENDROOT
BRANCH   3   6
ATOM      6  N   UNL     1       4.936   5.025  17.483  0.00  0.00    +0.000 N 
ATOM      7  C   UNL     1       4.153   6.145  17.371  0.00  0.00    +0.000 A 
ATOM      8  N   UNL     1       4.870   7.249  17.337  0.00  0.00    +0.000 NA
ATOM      9  C   UNL     1       6.179   6.834  17.416  0.00  0.00    +0.000 A 
ATOM     10 CL   UNL     1       7.482   7.926  17.404  0.00  0.00    +0.000 Cl
ATOM     11  C   UNL     1       6.232   5.465  17.491  0.00  0.00    +0.000 A 
ATOM     12 CL   UNL     1       7.544   4.388  17.581  0.00  0.00    +0.000 Cl
ENDBRANCH   3   6
BRANCH   4  13
ATOM     13  O2* UNL     1       5.370   2.513  19.567  0.00  0.00    +0.000 OA
ATOM     14  H2* UNL     1       6.059   2.511  18.871  0.00  0.00    +0.000 HD
ENDBRANCH   4  13
BRANCH   5  15
ATOM     15  O3* UNL     1       3.621   0.935  18.389  0.00  0.00    +0.000 OA
ATOM     16  H3* UNL     1       4.099   0.529  19.137  0.00  0.00    +0.000 HD
ENDBRANCH   5  15
BRANCH   1  17
ATOM     17  C5* UNL     1       1.194   3.838  18.195  0.00  0.00    +0.000 C 
BRANCH  17  18
ATOM     18  O5* UNL     1       0.852   3.604  19.555  0.00  0.00    +0.000 OA
ATOM     19  H5* UNL     1      -0.018   3.164  19.566  0.00  0.00    +0.000 HD
ENDBRANCH  17  18
ENDBRANCH   1  17
TORSDOF 5
ENDMDL
MODEL 9
REMARK VINA RESULT:      -6.1      3.401      5.259
REMARK  Name = 
REMARK  5 active torsions:
REMARK  status: ('A' for Active; 'I' for Inactive)
REMARK    1  A    between atoms: O5*_1  and  C5*_2
REMARK    2  A    between atoms: C5*_2  and  C4*_3
REMARK    3  A    between atoms: C1*_5  and  N_6
REMARK    4  A    between atoms: C2*_13  and  O2*_14
REMARK    5  A    between atoms: C3*_15  and  O3*_16
REMARK                            x       y       z     vdW  Elec       q    Type
REMARK                         _______ _______ _______ _____ _____    ______ ____
ROOT
ATOM      1  C4* UNL     1       1.270   3.468  19.920  0.00  0.00    +0.000 C 
ATOM      2  O4* UNL     1       1.936   4.411  19.044  0.00  0.00    +0.000 OA
ATOM      3  C1* UNL     1       2.978   3.712  18.311  0.00  0.00    +0.000 C 
ATOM      4  C2* UNL     1       3.066   2.289  18.867  0.00  0.00    +0.000 C 
ATOM      5  C3* UNL     1       1.659   2.086  19.406  0.00  0.00    +0.000 C 
ENDROOT
BRANCH   3   6
ATOM      6  N   UNL     1       4.223   4.455  18.392  0.00  0.00    +0.000 N 
ATOM      7  C   UNL     1       4.767   4.996  19.528  0.00  0.00    +0.000 A 
ATOM      8  N   UNL     1       5.919   5.589  19.292  0.00  0.00    +0.000 NA
ATOM      9  C   UNL     1       6.132   5.442  17.941  0.00  0.00    +0.000 A 
ATOM     10 CL   UNL     1       7.512   6.059  17.164  0.00  0.00    +0.000 Cl
ATOM     11  C   UNL     1       5.085   4.758  17.374  0.00  0.00    +0.000 A 
ATOM     12 CL   UNL     1       4.773   4.301  15.767  0.00  0.00    +0.000 Cl
ENDBRANCH   3   6
BRANCH   4  13
ATOM     13  O2* UNL     1       3.381   1.315  17.870  0.00  0.00    +0.000 OA
ATOM     14  H2* UNL     1       4.031   1.734  17.269  0.00  0.00    +0.000 HD
ENDBRANCH   4  13
BRANCH   5  15
ATOM     15  O3* UNL     1       0.811   1.693  18.304  0.00  0.00    +0.000 OA
ATOM     16  H3* UNL     1      -0.080   2.067  18.443  0.00  0.00    +0.000 HD
ENDBRANCH   5  15
BRANCH   1  17
ATOM     17  C5* UNL     1       1.672   3.737  21.376  0.00  0.00    +0.000 C 
BRANCH  17  18
ATOM     18  O5* UNL     1       1.633   2.546  22.152  0.00  0.00    +0.000 OA
ATOM     19  H5* UNL     1       2.280   2.647  22.874  0.00  0.00    +0.000 HD
ENDBRANCH  17  18
ENDBRANCH   1  17
TORSDOF 5
ENDMDL
