MODEL 1
REMARK VINA RESULT:      -7.2      0.000      0.000
REMARK  Name = 
REMARK  7 active torsions:
REMARK  status: ('A' for Active; 'I' for Inactive)
REMARK    1  A    between atoms: C_1  and  C_2
REMARK    2  A    between atoms: C_3  and  C_4
REMARK    3  A    between atoms: C_4  and  O_5
REMARK    4  A    between atoms: C_4  and  C_6
REMARK    5  A    between atoms: C_6  and  N_7
REMARK    6  A    between atoms: N_15  and  C_16
REMARK    7  A    between atoms: C_19  and  C_20
REMARK                            x       y       z     vdW  Elec       q    Type
REMARK                         _______ _______ _______ _____ _____    ______ ____
ROOT
ATOM      1  N   UNL     1      -0.468  12.467  19.478  0.00  0.00    +0.000 NA
ATOM      2  C   UNL     1       0.952  12.164  19.734  0.00  0.00    +0.000 C 
ATOM      3  C   UNL     1       1.194  11.096  20.810  0.00  0.00    +0.000 C 
ATOM      4  C   UNL     1       0.403   9.799  20.532  0.00  0.00    +0.000 C 
ATOM      5  C   UNL     1      -1.064  10.137  20.228  0.00  0.00    +0.000 C 
ATOM      6  C   UNL     1      -1.164  11.209  19.131  0.00  0.00    +0.000 C 
ATOM      7  C   UNL     1       0.551   8.798  21.715  0.00  0.00    +0.000 C 
ATOM      8  C   UNL     1       1.072   7.500  21.085  0.00  0.00    +0.000 C 
ATOM      9  N   UNL     1       1.841   8.034  19.978  0.00  0.00    +0.000 N 
ATOM     10  C   UNL     1       1.025   9.053  19.333  0.00  0.00    +0.000 C 
ENDROOT
BRANCH   9  11
ATOM     11  C   UNL     1       2.646   7.309  19.132  0.00  0.00    +0.000 A 
ATOM     12  C   UNL     1       3.219   7.815  17.967  0.00  0.00    +0.000 A 
ATOM     13  C   UNL     1       4.067   7.011  17.190  0.00  0.00    +0.000 A 
ATOM     14  C   UNL     1       4.331   5.686  17.556  0.00  0.00    +0.000 A 
ATOM     15  C   UNL     1       3.757   5.166  18.710  0.00  0.00    +0.000 A 
ATOM     16  C   UNL     1       2.922   5.973  19.483  0.00  0.00    +0.000 A 
BRANCH  14  17
ATOM     17  C   UNL     1       5.197   4.879  16.760  0.00  0.00    +0.000 C 
ATOM     18  N   UNL     1       5.886   4.214  16.112  0.00  0.00    +0.000 NA
ENDBRANCH  14  17
ENDBRANCH   9  11
BRANCH   1  19
ATOM     19  C   UNL     1      -1.156  13.125  20.617  0.00  0.00    +0.000 C 
BRANCH  19  20
ATOM     20  C   UNL     1      -2.459  13.924  20.327  0.00  0.00    +0.000 C 
BRANCH  20  23
ATOM     21  C   UNL     1      -4.673  12.202  19.044  0.00  0.00    +0.000 C 
ATOM     22  C   UNL     1      -4.731  12.714  20.456  0.00  0.00    +0.000 A 
ATOM     23  C   UNL     1      -3.716  13.492  21.070  0.00  0.00    +0.000 A 
ATOM     24  C   UNL     1      -3.878  13.887  22.430  0.00  0.00    +0.000 A 
ATOM     25  C   UNL     1      -5.003  13.538  23.173  0.00  0.00    +0.000 A 
ATOM     26  C   UNL     1      -5.988  12.826  22.525  0.00  0.00    +0.000 A 
ATOM     27  C   UNL     1      -5.872  12.426  21.211  0.00  0.00    +0.000 A 
ATOM     28  C   UNL     1      -7.117  11.727  20.822  0.00  0.00    +0.000 C 
ATOM     29  O   UNL     1      -7.916  11.754  22.022  0.00  0.00    +0.000 OA
ATOM     30  C   UNL     1      -7.275  12.390  23.046  0.00  0.00    +0.000 C 
ATOM     31  O   UNL     1      -7.700  12.563  24.172  0.00  0.00    +0.000 OA
ENDBRANCH  20  23
BRANCH  20  32
ATOM     32  O   UNL     1      -2.205  15.325  20.493  0.00  0.00    +0.000 OA
ATOM     33  H   UNL     1      -3.032  15.707  20.842  0.00  0.00    +0.000 HD
ENDBRANCH  20  32
ENDBRANCH  19  20
ENDBRANCH   1  19
TORSDOF 6
ENDMDL
MODEL 2
REMARK VINA RESULT:      -7.1      5.308     11.459
REMARK  Name = 
REMARK  7 active torsions:
REMARK  status: ('A' for Active; 'I' for Inactive)
REMARK    1  A    between atoms: C_1  and  C_2
REMARK    2  A    between atoms: C_3  and  C_4
REMARK    3  A    between atoms: C_4  and  O_5
REMARK    4  A    between atoms: C_4  and  C_6
REMARK    5  A    between atoms: C_6  and  N_7
REMARK    6  A    between atoms: N_15  and  C_16
REMARK    7  A    between atoms: C_19  and  C_20
REMARK                            x       y       z     vdW  Elec       q    Type
REMARK                         _______ _______ _______ _____ _____    ______ ____
ROOT
ATOM      1  N   UNL     1       2.452   5.957  19.165  0.00  0.00    +0.000 NA
ATOM      2  C   UNL     1       1.572   6.686  20.097  0.00  0.00    +0.000 C 
ATOM      3  C   UNL     1       1.827   8.198  20.166  0.00  0.00    +0.000 C 
ATOM      4  C   UNL     1       1.805   8.858  18.769  0.00  0.00    +0.000 C 
ATOM      5  C   UNL     1       2.695   8.063  17.802  0.00  0.00    +0.000 C 
ATOM      6  C   UNL     1       2.329   6.569  17.824  0.00  0.00    +0.000 C 
ATOM      7  C   UNL     1       2.217  10.356  18.861  0.00  0.00    +0.000 C 
ATOM      8  C   UNL     1       1.064  11.132  18.210  0.00  0.00    +0.000 C 
ATOM      9  N   UNL     1      -0.053  10.265  18.528  0.00  0.00    +0.000 N 
ATOM     10  C   UNL     1       0.359   8.899  18.233  0.00  0.00    +0.000 C 
ENDROOT
BRANCH   9  11
ATOM     11  C   UNL     1      -1.379  10.538  18.293  0.00  0.00    +0.000 A 
ATOM     12  C   UNL     1      -2.171   9.853  17.374  0.00  0.00    +0.000 A 
ATOM     13  C   UNL     1      -3.530  10.173  17.236  0.00  0.00    +0.000 A 
ATOM     14  C   UNL     1      -4.105  11.198  17.997  0.00  0.00    +0.000 A 
ATOM     15  C   UNL     1      -3.323  11.897  18.909  0.00  0.00    +0.000 A 
ATOM     16  C   UNL     1      -1.975  11.567  19.048  0.00  0.00    +0.000 A 
BRANCH  14  17
ATOM     17  C   UNL     1      -5.489  11.514  17.851  0.00  0.00    +0.000 C 
ATOM     18  N   UNL     1      -6.610  11.775  17.748  0.00  0.00    +0.000 NA
ENDBRANCH  14  17
ENDBRANCH   9  11
BRANCH   1  19
ATOM     19  C   UNL     1       3.877   5.933  19.579  0.00  0.00    +0.000 C 
BRANCH  19  20
ATOM     20  C   UNL     1       4.759   4.741  19.109  0.00  0.00    +0.000 C 
BRANCH  20  23
ATOM     21  C   UNL     1       3.748   3.310  16.571  0.00  0.00    +0.000 C 
ATOM     22  C   UNL     1       4.964   4.193  16.599  0.00  0.00    +0.000 A 
ATOM     23  C   UNL     1       5.435   4.873  17.751  0.00  0.00    +0.000 A 
ATOM     24  C   UNL     1       6.584   5.710  17.636  0.00  0.00    +0.000 A 
ATOM     25  C   UNL     1       7.261   5.876  16.430  0.00  0.00    +0.000 A 
ATOM     26  C   UNL     1       6.803   5.158  15.348  0.00  0.00    +0.000 A 
ATOM     27  C   UNL     1       5.697   4.336  15.417  0.00  0.00    +0.000 A 
ATOM     28  C   UNL     1       5.511   3.690  14.099  0.00  0.00    +0.000 C 
ATOM     29  O   UNL     1       6.580   4.229  13.296  0.00  0.00    +0.000 OA
ATOM     30  C   UNL     1       7.356   5.103  14.003  0.00  0.00    +0.000 C 
ATOM     31  O   UNL     1       8.323   5.712  13.590  0.00  0.00    +0.000 OA
ENDBRANCH  20  23
BRANCH  20  32
ATOM     32  O   UNL     1       5.703   4.413  20.137  0.00  0.00    +0.000 OA
ATOM     33  H   UNL     1       5.194   3.958  20.833  0.00  0.00    +0.000 HD
ENDBRANCH  20  32
ENDBRANCH  19  20
ENDBRANCH   1  19
TORSDOF 6
ENDMDL
MODEL 3
REMARK VINA RESULT:      -7.1      1.171      1.444
REMARK  Name = 
REMARK  7 active torsions:
REMARK  status: ('A' for Active; 'I' for Inactive)
REMARK    1  A    between atoms: C_1  and  C_2
REMARK    2  A    between atoms: C_3  and  C_4
REMARK    3  A    between atoms: C_4  and  O_5
REMARK    4  A    between atoms: C_4  and  C_6
REMARK    5  A    between atoms: C_6  and  N_7
REMARK    6  A    between atoms: N_15  and  C_16
REMARK    7  A    between atoms: C_19  and  C_20
REMARK                            x       y       z     vdW  Elec       q    Type
REMARK                         _______ _______ _______ _____ _____    ______ ____
ROOT
ATOM      1  N   UNL     1      -0.050  13.116  18.860  0.00  0.00    +0.000 NA
ATOM      2  C   UNL     1       1.335  12.650  19.055  0.00  0.00    +0.000 C 
ATOM      3  C   UNL     1       1.547  11.774  20.297  0.00  0.00    +0.000 C 
ATOM      4  C   UNL     1       0.562  10.585  20.347  0.00  0.00    +0.000 C 
ATOM      5  C   UNL     1      -0.870  11.083  20.103  0.00  0.00    +0.000 C 
ATOM      6  C   UNL     1      -0.944  11.937  18.827  0.00  0.00    +0.000 C 
ATOM      7  C   UNL     1       0.702   9.809  21.689  0.00  0.00    +0.000 C 
ATOM      8  C   UNL     1       0.971   8.352  21.288  0.00  0.00    +0.000 C 
ATOM      9  N   UNL     1       1.679   8.548  20.038  0.00  0.00    +0.000 N 
ATOM     10  C   UNL     1       0.943   9.545  19.272  0.00  0.00    +0.000 C 
ENDROOT
BRANCH   9  11
ATOM     11  C   UNL     1       2.281   7.566  19.289  0.00  0.00    +0.000 A 
ATOM     12  C   UNL     1       2.902   7.783  18.061  0.00  0.00    +0.000 A 
ATOM     13  C   UNL     1       3.532   6.723  17.391  0.00  0.00    +0.000 A 
ATOM     14  C   UNL     1       3.526   5.430  17.930  0.00  0.00    +0.000 A 
ATOM     15  C   UNL     1       2.901   5.199  19.149  0.00  0.00    +0.000 A 
ATOM     16  C   UNL     1       2.284   6.259  19.814  0.00  0.00    +0.000 A 
BRANCH  14  17
ATOM     17  C   UNL     1       4.172   4.361  17.241  0.00  0.00    +0.000 C 
ATOM     18  N   UNL     1       4.708   3.506  16.677  0.00  0.00    +0.000 NA
ENDBRANCH  14  17
ENDBRANCH   9  11
BRANCH   1  19
ATOM     19  C   UNL     1      -0.514  14.070  19.899  0.00  0.00    +0.000 C 
BRANCH  19  20
ATOM     20  C   UNL     1      -2.035  14.388  19.978  0.00  0.00    +0.000 C 
BRANCH  20  23
ATOM     21  C   UNL     1      -4.939  13.359  19.817  0.00  0.00    +0.000 C 
ATOM     22  C   UNL     1      -4.136  13.389  21.088  0.00  0.00    +0.000 A 
ATOM     23  C   UNL     1      -2.795  13.842  21.180  0.00  0.00    +0.000 A 
ATOM     24  C   UNL     1      -2.133  13.787  22.441  0.00  0.00    +0.000 A 
ATOM     25  C   UNL     1      -2.764  13.308  23.587  0.00  0.00    +0.000 A 
ATOM     26  C   UNL     1      -4.081  12.926  23.467  0.00  0.00    +0.000 A 
ATOM     27  C   UNL     1      -4.759  12.966  22.266  0.00  0.00    +0.000 A 
ATOM     28  C   UNL     1      -6.155  12.533  22.501  0.00  0.00    +0.000 C 
ATOM     29  O   UNL     1      -6.190  12.235  23.911  0.00  0.00    +0.000 OA
ATOM     30  C   UNL     1      -4.980  12.451  24.508  0.00  0.00    +0.000 C 
ATOM     31  O   UNL     1      -4.710  12.283  25.680  0.00  0.00    +0.000 OA
ENDBRANCH  20  23
BRANCH  20  32
ATOM     32  O   UNL     1      -2.234  15.799  19.827  0.00  0.00    +0.000 OA
ATOM     33  H   UNL     1      -3.178  15.958  20.019  0.00  0.00    +0.000 HD
ENDBRANCH  20  32
ENDBRANCH  19  20
ENDBRANCH   1  19
TORSDOF 6
ENDMDL
MODEL 4
REMARK VINA RESULT:      -7.0      1.055      1.850
REMARK  Name = 
REMARK  7 active torsions:
REMARK  status: ('A' for Active; 'I' for Inactive)
REMARK    1  A    between atoms: C_1  and  C_2
REMARK    2  A    between atoms: C_3  and  C_4
REMARK    3  A    between atoms: C_4  and  O_5
REMARK    4  A    between atoms: C_4  and  C_6
REMARK    5  A    between atoms: C_6  and  N_7
REMARK    6  A    between atoms: N_15  and  C_16
REMARK    7  A    between atoms: C_19  and  C_20
REMARK                            x       y       z     vdW  Elec       q    Type
REMARK                         _______ _______ _______ _____ _____    ______ ____
ROOT
ATOM      1  N   UNL     1      -0.744  13.079  19.232  0.00  0.00    +0.000 NA
ATOM      2  C   UNL     1       0.688  12.733  19.297  0.00  0.00    +0.000 C 
ATOM      3  C   UNL     1       1.091  11.901  20.522  0.00  0.00    +0.000 C 
ATOM      4  C   UNL     1       0.218  10.635  20.679  0.00  0.00    +0.000 C 
ATOM      5  C   UNL     1      -1.268  11.008  20.570  0.00  0.00    +0.000 C 
ATOM      6  C   UNL     1      -1.534  11.830  19.297  0.00  0.00    +0.000 C 
ATOM      7  C   UNL     1       0.550   9.898  22.009  0.00  0.00    +0.000 C 
ATOM      8  C   UNL     1       0.901   8.462  21.600  0.00  0.00    +0.000 C 
ATOM      9  N   UNL     1       1.468   8.693  20.285  0.00  0.00    +0.000 N 
ATOM     10  C   UNL     1       0.581   9.610  19.584  0.00  0.00    +0.000 C 
ENDROOT
BRANCH   9  11
ATOM     11  C   UNL     1       2.076   7.750  19.493  0.00  0.00    +0.000 A 
ATOM     12  C   UNL     1       2.686   8.025  18.271  0.00  0.00    +0.000 A 
ATOM     13  C   UNL     1       3.325   7.002  17.553  0.00  0.00    +0.000 A 
ATOM     14  C   UNL     1       3.338   5.688  18.037  0.00  0.00    +0.000 A 
ATOM     15  C   UNL     1       2.723   5.399  19.250  0.00  0.00    +0.000 A 
ATOM     16  C   UNL     1       2.099   6.422  19.963  0.00  0.00    +0.000 A 
BRANCH  14  17
ATOM     17  C   UNL     1       3.992   4.657  17.301  0.00  0.00    +0.000 C 
ATOM     18  N   UNL     1       4.511   3.822  16.691  0.00  0.00    +0.000 NA
ENDBRANCH  14  17
ENDBRANCH   9  11
BRANCH   1  19
ATOM     19  C   UNL     1      -1.185  14.010  20.300  0.00  0.00    +0.000 C 
BRANCH  19  20
ATOM     20  C   UNL     1      -2.636  14.567  20.237  0.00  0.00    +0.000 C 
BRANCH  20  23
ATOM     21  C   UNL     1      -1.990  13.900  23.178  0.00  0.00    +0.000 C 
ATOM     22  C   UNL     1      -3.329  13.650  22.544  0.00  0.00    +0.000 A 
ATOM     23  C   UNL     1      -3.652  13.965  21.199  0.00  0.00    +0.000 A 
ATOM     24  C   UNL     1      -4.972  13.708  20.728  0.00  0.00    +0.000 A 
ATOM     25  C   UNL     1      -5.954  13.152  21.545  0.00  0.00    +0.000 A 
ATOM     26  C   UNL     1      -5.586  12.813  22.828  0.00  0.00    +0.000 A 
ATOM     27  C   UNL     1      -4.319  13.043  23.322  0.00  0.00    +0.000 A 
ATOM     28  C   UNL     1      -4.255  12.523  24.706  0.00  0.00    +0.000 C 
ATOM     29  O   UNL     1      -5.581  12.009  24.943  0.00  0.00    +0.000 OA
ATOM     30  C   UNL     1      -6.392  12.171  23.856  0.00  0.00    +0.000 C 
ATOM     31  O   UNL     1      -7.557  11.839  23.765  0.00  0.00    +0.000 OA
ENDBRANCH  20  23
BRANCH  20  32
ATOM     32  O   UNL     1      -2.602  15.997  20.335  0.00  0.00    +0.000 OA
ATOM     33  H   UNL     1      -1.661  16.247  20.269  0.00  0.00    +0.000 HD
ENDBRANCH  20  32
ENDBRANCH  19  20
ENDBRANCH   1  19
TORSDOF 6
ENDMDL
MODEL 5
REMARK VINA RESULT:      -7.0      4.611     11.211
REMARK  Name = 
REMARK  7 active torsions:
REMARK  status: ('A' for Active; 'I' for Inactive)
REMARK    1  A    between atoms: C_1  and  C_2
REMARK    2  A    between atoms: C_3  and  C_4
REMARK    3  A    between atoms: C_4  and  O_5
REMARK    4  A    between atoms: C_4  and  C_6
REMARK    5  A    between atoms: C_6  and  N_7
REMARK    6  A    between atoms: N_15  and  C_16
REMARK    7  A    between atoms: C_19  and  C_20
REMARK                            x       y       z     vdW  Elec       q    Type
REMARK                         _______ _______ _______ _____ _____    ______ ____
ROOT
ATOM      1  N   UNL     1       0.755   8.616  19.231  0.00  0.00    +0.000 NA
ATOM      2  C   UNL     1       0.498   8.907  20.653  0.00  0.00    +0.000 C 
ATOM      3  C   UNL     1       1.178  10.180  21.178  0.00  0.00    +0.000 C 
ATOM      4  C   UNL     1       0.860  11.414  20.303  0.00  0.00    +0.000 C 
ATOM      5  C   UNL     1       1.095  11.079  18.823  0.00  0.00    +0.000 C 
ATOM      6  C   UNL     1       0.353   9.791  18.428  0.00  0.00    +0.000 C 
ATOM      7  C   UNL     1       1.683  12.649  20.772  0.00  0.00    +0.000 C 
ATOM      8  C   UNL     1       0.646  13.747  21.044  0.00  0.00    +0.000 C 
ATOM      9  N   UNL     1      -0.488  12.944  21.458  0.00  0.00    +0.000 N 
ATOM     10  C   UNL     1      -0.608  11.841  20.515  0.00  0.00    +0.000 C 
ENDROOT
BRANCH   9  11
ATOM     11  C   UNL     1      -1.678  13.423  21.951  0.00  0.00    +0.000 A 
ATOM     12  C   UNL     1      -2.049  14.765  21.938  0.00  0.00    +0.000 A 
ATOM     13  C   UNL     1      -3.308  15.154  22.422  0.00  0.00    +0.000 A 
ATOM     14  C   UNL     1      -4.197  14.208  22.947  0.00  0.00    +0.000 A 
ATOM     15  C   UNL     1      -3.833  12.867  22.975  0.00  0.00    +0.000 A 
ATOM     16  C   UNL     1      -2.585  12.486  22.483  0.00  0.00    +0.000 A 
BRANCH  14  17
ATOM     17  C   UNL     1      -5.475  14.614  23.434  0.00  0.00    +0.000 C 
ATOM     18  N   UNL     1      -6.517  14.928  23.824  0.00  0.00    +0.000 NA
ENDBRANCH  14  17
ENDBRANCH   9  11
BRANCH   1  19
ATOM     19  C   UNL     1       2.166   8.263  18.936  0.00  0.00    +0.000 C 
BRANCH  19  20
ATOM     20  C   UNL     1       2.565   6.760  18.941  0.00  0.00    +0.000 C 
BRANCH  20  23
ATOM     21  C   UNL     1       2.710   3.934  17.713  0.00  0.00    +0.000 C 
ATOM     22  C   UNL     1       3.711   5.018  17.425  0.00  0.00    +0.000 A 
ATOM     23  C   UNL     1       3.653   6.328  17.966  0.00  0.00    +0.000 A 
ATOM     24  C   UNL     1       4.647   7.276  17.586  0.00  0.00    +0.000 A 
ATOM     25  C   UNL     1       5.677   6.954  16.705  0.00  0.00    +0.000 A 
ATOM     26  C   UNL     1       5.727   5.658  16.243  0.00  0.00    +0.000 A 
ATOM     27  C   UNL     1       4.787   4.710  16.588  0.00  0.00    +0.000 A 
ATOM     28  C   UNL     1       5.163   3.425  15.957  0.00  0.00    +0.000 C 
ATOM     29  O   UNL     1       6.366   3.740  15.226  0.00  0.00    +0.000 OA
ATOM     30  C   UNL     1       6.721   5.051  15.370  0.00  0.00    +0.000 C 
ATOM     31  O   UNL     1       7.682   5.600  14.870  0.00  0.00    +0.000 OA
ENDBRANCH  20  23
BRANCH  20  32
ATOM     32  O   UNL     1       2.870   6.353  20.282  0.00  0.00    +0.000 OA
ATOM     33  H   UNL     1       3.491   5.605  20.200  0.00  0.00    +0.000 HD
ENDBRANCH  20  32
ENDBRANCH  19  20
ENDBRANCH   1  19
TORSDOF 6
ENDMDL
MODEL 6
REMARK VINA RESULT:      -6.9      3.780      6.684
REMARK  Name = 
REMARK  7 active torsions:
REMARK  status: ('A' for Active; 'I' for Inactive)
REMARK    1  A    between atoms: C_1  and  C_2
REMARK    2  A    between atoms: C_3  and  C_4
REMARK    3  A    between atoms: C_4  and  O_5
REMARK    4  A    between atoms: C_4  and  C_6
REMARK    5  A    between atoms: C_6  and  N_7
REMARK    6  A    between atoms: N_15  and  C_16
REMARK    7  A    between atoms: C_19  and  C_20
REMARK                            x       y       z     vdW  Elec       q    Type
REMARK                         _______ _______ _______ _____ _____    ______ ____
ROOT
ATOM      1  N   UNL     1      -0.076  13.367  18.733  0.00  0.00    +0.000 NA
ATOM      2  C   UNL     1       1.245  12.837  19.118  0.00  0.00    +0.000 C 
ATOM      3  C   UNL     1       1.257  12.044  20.433  0.00  0.00    +0.000 C 
ATOM      4  C   UNL     1       0.196  10.922  20.447  0.00  0.00    +0.000 C 
ATOM      5  C   UNL     1      -1.164  11.483  20.005  0.00  0.00    +0.000 C 
ATOM      6  C   UNL     1      -1.036  12.244  18.675  0.00  0.00    +0.000 C 
ATOM      7  C   UNL     1       0.132  10.240  21.844  0.00  0.00    +0.000 C 
ATOM      8  C   UNL     1       0.347   8.745  21.575  0.00  0.00    +0.000 C 
ATOM      9  N   UNL     1       1.202   8.806  20.406  0.00  0.00    +0.000 N 
ATOM     10  C   UNL     1       0.624   9.784  19.495  0.00  0.00    +0.000 C 
ENDROOT
BRANCH   9  11
ATOM     11  C   UNL     1       1.817   7.737  19.800  0.00  0.00    +0.000 A 
ATOM     12  C   UNL     1       2.451   7.795  18.561  0.00  0.00    +0.000 A 
ATOM     13  C   UNL     1       3.094   6.659  18.043  0.00  0.00    +0.000 A 
ATOM     14  C   UNL     1       3.088   5.449  18.747  0.00  0.00    +0.000 A 
ATOM     15  C   UNL     1       2.450   5.376  19.980  0.00  0.00    +0.000 A 
ATOM     16  C   UNL     1       1.821   6.511  20.493  0.00  0.00    +0.000 A 
BRANCH  14  17
ATOM     17  C   UNL     1       3.747   4.303  18.213  0.00  0.00    +0.000 C 
ATOM     18  N   UNL     1       4.279   3.365  17.794  0.00  0.00    +0.000 NA
ENDBRANCH  14  17
ENDBRANCH   9  11
BRANCH   1  19
ATOM     19  C   UNL     1      -0.588  14.421  19.645  0.00  0.00    +0.000 C 
BRANCH  19  20
ATOM     20  C   UNL     1      -0.154  15.892  19.386  0.00  0.00    +0.000 C 
BRANCH  20  23
ATOM     21  C   UNL     1       1.523  15.912  21.975  0.00  0.00    +0.000 C 
ATOM     22  C   UNL     1       2.090  16.209  20.615  0.00  0.00    +0.000 A 
ATOM     23  C   UNL     1       1.340  16.187  19.411  0.00  0.00    +0.000 A 
ATOM     24  C   UNL     1       2.006  16.454  18.179  0.00  0.00    +0.000 A 
ATOM     25  C   UNL     1       3.368  16.741  18.121  0.00  0.00    +0.000 A 
ATOM     26  C   UNL     1       4.048  16.802  19.316  0.00  0.00    +0.000 A 
ATOM     27  C   UNL     1       3.442  16.552  20.530  0.00  0.00    +0.000 A 
ATOM     28  C   UNL     1       4.443  16.746  21.603  0.00  0.00    +0.000 C 
ATOM     29  O   UNL     1       5.646  17.100  20.892  0.00  0.00    +0.000 OA
ATOM     30  C   UNL     1       5.447  17.135  19.541  0.00  0.00    +0.000 C 
ATOM     31  O   UNL     1       6.276  17.399  18.693  0.00  0.00    +0.000 OA
ENDBRANCH  20  23
BRANCH  20  32
ATOM     32  O   UNL     1      -0.763  16.363  18.177  0.00  0.00    +0.000 OA
ATOM     33  H   UNL     1      -0.840  15.583  17.595  0.00  0.00    +0.000 HD
ENDBRANCH  20  32
ENDBRANCH  19  20
ENDBRANCH   1  19
TORSDOF 6
ENDMDL
MODEL 7
REMARK VINA RESULT:      -6.8      4.586     10.076
REMARK  Name = 
REMARK  7 active torsions:
REMARK  status: ('A' for Active; 'I' for Inactive)
REMARK    1  A    between atoms: C_1  and  C_2
REMARK    2  A    between atoms: C_3  and  C_4
REMARK    3  A    between atoms: C_4  and  O_5
REMARK    4  A    between atoms: C_4  and  C_6
REMARK    5  A    between atoms: C_6  and  N_7
REMARK    6  A    between atoms: N_15  and  C_16
REMARK    7  A    between atoms: C_19  and  C_20
REMARK                            x       y       z     vdW  Elec       q    Type
REMARK                         _______ _______ _______ _____ _____    ______ ____
ROOT
ATOM      1  N   UNL     1       0.755  10.111  18.123  0.00  0.00    +0.000 NA
ATOM      2  C   UNL     1      -0.661  10.290  18.494  0.00  0.00    +0.000 C 
ATOM      3  C   UNL     1      -1.078   9.580  19.790  0.00  0.00    +0.000 C 
ATOM      4  C   UNL     1      -0.155   9.942  20.975  0.00  0.00    +0.000 C 
ATOM      5  C   UNL     1       1.315   9.788  20.558  0.00  0.00    +0.000 C 
ATOM      6  C   UNL     1       1.598  10.553  19.255  0.00  0.00    +0.000 C 
ATOM      7  C   UNL     1      -0.510   9.092  22.230  0.00  0.00    +0.000 C 
ATOM      8  C   UNL     1      -0.776  10.109  23.346  0.00  0.00    +0.000 C 
ATOM      9  N   UNL     1      -1.295  11.221  22.574  0.00  0.00    +0.000 N 
ATOM     10  C   UNL     1      -0.421  11.395  21.421  0.00  0.00    +0.000 C 
ENDROOT
BRANCH   9  11
ATOM     11  C   UNL     1      -1.823  12.382  23.085  0.00  0.00    +0.000 A 
ATOM     12  C   UNL     1      -1.131  13.588  23.175  0.00  0.00    +0.000 A 
ATOM     13  C   UNL     1      -1.771  14.734  23.670  0.00  0.00    +0.000 A 
ATOM     14  C   UNL     1      -3.102  14.681  24.104  0.00  0.00    +0.000 A 
ATOM     15  C   UNL     1      -3.799  13.481  24.029  0.00  0.00    +0.000 A 
ATOM     16  C   UNL     1      -3.160  12.348  23.528  0.00  0.00    +0.000 A 
BRANCH  14  17
ATOM     17  C   UNL     1      -3.743  15.853  24.602  0.00  0.00    +0.000 C 
ATOM     18  N   UNL     1      -4.259  16.799  25.022  0.00  0.00    +0.000 NA
ENDBRANCH  14  17
ENDBRANCH   9  11
BRANCH   1  19
ATOM     19  C   UNL     1       1.105   8.719  17.747  0.00  0.00    +0.000 C 
BRANCH  19  20
ATOM     20  C   UNL     1       2.531   8.201  18.092  0.00  0.00    +0.000 C 
BRANCH  20  23
ATOM     21  C   UNL     1       4.367   5.879  17.223  0.00  0.00    +0.000 C 
ATOM     22  C   UNL     1       3.463   5.820  18.422  0.00  0.00    +0.000 A 
ATOM     23  C   UNL     1       2.625   6.882  18.849  0.00  0.00    +0.000 A 
ATOM     24  C   UNL     1       1.839   6.712  20.026  0.00  0.00    +0.000 A 
ATOM     25  C   UNL     1       1.864   5.532  20.767  0.00  0.00    +0.000 A 
ATOM     26  C   UNL     1       2.651   4.508  20.291  0.00  0.00    +0.000 A 
ATOM     27  C   UNL     1       3.425   4.631  19.157  0.00  0.00    +0.000 A 
ATOM     28  C   UNL     1       4.104   3.339  18.909  0.00  0.00    +0.000 C 
ATOM     29  O   UNL     1       3.663   2.505  19.999  0.00  0.00    +0.000 OA
ATOM     30  C   UNL     1       2.811   3.167  20.835  0.00  0.00    +0.000 C 
ATOM     31  O   UNL     1       2.284   2.722  21.836  0.00  0.00    +0.000 OA
ENDBRANCH  20  23
BRANCH  20  32
ATOM     32  O   UNL     1       3.331   8.183  16.902  0.00  0.00    +0.000 OA
ATOM     33  H   UNL     1       4.078   8.787  17.073  0.00  0.00    +0.000 HD
ENDBRANCH  20  32
ENDBRANCH  19  20
ENDBRANCH   1  19
TORSDOF 6
ENDMDL
MODEL 8
REMARK VINA RESULT:      -6.8      1.081      1.826
REMARK  Name = 
REMARK  7 active torsions:
REMARK  status: ('A' for Active; 'I' for Inactive)
REMARK    1  A    between atoms: C_1  and  C_2
REMARK    2  A    between atoms: C_3  and  C_4
REMARK    3  A    between atoms: C_4  and  O_5
REMARK    4  A    between atoms: C_4  and  C_6
REMARK    5  A    between atoms: C_6  and  N_7
REMARK    6  A    between atoms: N_15  and  C_16
REMARK    7  A    between atoms: C_19  and  C_20
REMARK                            x       y       z     vdW  Elec       q    Type
REMARK                         _______ _______ _______ _____ _____    ______ ____
ROOT
ATOM      1  N   UNL     1      -0.115  11.963  18.970  0.00  0.00    +0.000 NA
ATOM      2  C   UNL     1       1.332  11.707  19.085  0.00  0.00    +0.000 C 
ATOM      3  C   UNL     1       1.715  10.661  20.142  0.00  0.00    +0.000 C 
ATOM      4  C   UNL     1       0.940   9.337  19.958  0.00  0.00    +0.000 C 
ATOM      5  C   UNL     1      -0.559   9.626  19.800  0.00  0.00    +0.000 C 
ATOM      6  C   UNL     1      -0.802  10.680  18.708  0.00  0.00    +0.000 C 
ATOM      7  C   UNL     1       1.237   8.357  21.131  0.00  0.00    +0.000 C 
ATOM      8  C   UNL     1       1.734   7.067  20.465  0.00  0.00    +0.000 C 
ATOM      9  N   UNL     1       2.371   7.608  19.280  0.00  0.00    +0.000 N 
ATOM     10  C   UNL     1       1.463   8.594  18.710  0.00  0.00    +0.000 C 
ENDROOT
BRANCH   9  11
ATOM     11  C   UNL     1       3.109   6.897  18.366  0.00  0.00    +0.000 A 
ATOM     12  C   UNL     1       3.972   7.473  17.435  0.00  0.00    +0.000 A 
ATOM     13  C   UNL     1       4.721   6.660  16.570  0.00  0.00    +0.000 A 
ATOM     14  C   UNL     1       4.597   5.266  16.610  0.00  0.00    +0.000 A 
ATOM     15  C   UNL     1       3.731   4.681  17.527  0.00  0.00    +0.000 A 
ATOM     16  C   UNL     1       2.997   5.493  18.390  0.00  0.00    +0.000 A 
BRANCH  14  17
ATOM     17  C   UNL     1       5.366   4.449  15.728  0.00  0.00    +0.000 C 
ATOM     18  N   UNL     1       5.975   3.779  15.009  0.00  0.00    +0.000 NA
ENDBRANCH  14  17
ENDBRANCH   9  11
BRANCH   1  19
ATOM     19  C   UNL     1      -0.706  12.615  20.166  0.00  0.00    +0.000 C 
BRANCH  19  20
ATOM     20  C   UNL     1      -1.958  13.517  19.968  0.00  0.00    +0.000 C 
BRANCH  20  23
ATOM     21  C   UNL     1      -1.637  13.142  23.013  0.00  0.00    +0.000 C 
ATOM     22  C   UNL     1      -2.962  13.098  22.305  0.00  0.00    +0.000 A 
ATOM     23  C   UNL     1      -3.133  13.286  20.909  0.00  0.00    +0.000 A 
ATOM     24  C   UNL     1      -4.450  13.254  20.365  0.00  0.00    +0.000 A 
ATOM     25  C   UNL     1      -5.574  13.039  21.160  0.00  0.00    +0.000 A 
ATOM     26  C   UNL     1      -5.361  12.811  22.501  0.00  0.00    +0.000 A 
ATOM     27  C   UNL     1      -4.103  12.831  23.067  0.00  0.00    +0.000 A 
ATOM     28  C   UNL     1      -4.231  12.507  24.506  0.00  0.00    +0.000 C 
ATOM     29  O   UNL     1      -5.650  12.326  24.693  0.00  0.00    +0.000 OA
ATOM     30  C   UNL     1      -6.344  12.506  23.530  0.00  0.00    +0.000 C 
ATOM     31  O   UNL     1      -7.547  12.421  23.383  0.00  0.00    +0.000 OA
ENDBRANCH  20  23
BRANCH  20  32
ATOM     32  O   UNL     1      -1.556  14.893  19.956  0.00  0.00    +0.000 OA
ATOM     33  H   UNL     1      -1.160  15.048  19.079  0.00  0.00    +0.000 HD
ENDBRANCH  20  32
ENDBRANCH  19  20
ENDBRANCH   1  19
TORSDOF 6
ENDMDL
MODEL 9
REMARK VINA RESULT:      -6.8      1.855      2.932
REMARK  Name = 
REMARK  7 active torsions:
REMARK  status: ('A' for Active; 'I' for Inactive)
REMARK    1  A    between atoms: C_1  and  C_2
REMARK    2  A    between atoms: C_3  and  C_4
REMARK    3  A    between atoms: C_4  and  O_5
REMARK    4  A    between atoms: C_4  and  C_6
REMARK    5  A    between atoms: C_6  and  N_7
REMARK    6  A    between atoms: N_15  and  C_16
REMARK    7  A    between atoms: C_19  and  C_20
REMARK                            x       y       z     vdW  Elec       q    Type
REMARK                         _______ _______ _______ _____ _____    ______ ____
ROOT
ATOM      1  N   UNL     1       0.074  11.593  21.907  0.00  0.00    +0.000 NA
ATOM      2  C   UNL     1      -0.497  10.268  21.604  0.00  0.00    +0.000 C 
ATOM      3  C   UNL     1      -0.540   9.916  20.110  0.00  0.00    +0.000 C 
ATOM      4  C   UNL     1       0.839  10.082  19.433  0.00  0.00    +0.000 C 
ATOM      5  C   UNL     1       1.437  11.450  19.792  0.00  0.00    +0.000 C 
ATOM      6  C   UNL     1       1.427  11.670  21.314  0.00  0.00    +0.000 C 
ATOM      7  C   UNL     1       0.728   9.865  17.896  0.00  0.00    +0.000 C 
ATOM      8  C   UNL     1       1.747   8.766  17.567  0.00  0.00    +0.000 C 
ATOM      9  N   UNL     1       1.724   8.006  18.801  0.00  0.00    +0.000 N 
ATOM     10  C   UNL     1       1.790   8.959  19.900  0.00  0.00    +0.000 C 
ENDROOT
BRANCH   9  11
ATOM     11  C   UNL     1       2.368   6.812  19.024  0.00  0.00    +0.000 A 
ATOM     12  C   UNL     1       3.376   6.299  18.210  0.00  0.00    +0.000 A 
ATOM     13  C   UNL     1       4.008   5.092  18.546  0.00  0.00    +0.000 A 
ATOM     14  C   UNL     1       3.622   4.373  19.684  0.00  0.00    +0.000 A 
ATOM     15  C   UNL     1       2.610   4.870  20.498  0.00  0.00    +0.000 A 
ATOM     16  C   UNL     1       1.993   6.075  20.164  0.00  0.00    +0.000 A 
BRANCH  14  17
ATOM     17  C   UNL     1       4.273   3.149  20.018  0.00  0.00    +0.000 C 
ATOM     18  N   UNL     1       4.802   2.152  20.271  0.00  0.00    +0.000 NA
ENDBRANCH  14  17
ENDBRANCH   9  11
BRANCH   1  19
ATOM     19  C   UNL     1      -0.752  12.728  21.425  0.00  0.00    +0.000 C 
BRANCH  19  20
ATOM     20  C   UNL     1      -2.121  12.986  22.117  0.00  0.00    +0.000 C 
BRANCH  20  23
ATOM     21  C   UNL     1      -4.975  13.169  23.273  0.00  0.00    +0.000 C 
ATOM     22  C   UNL     1      -4.678  12.787  21.850  0.00  0.00    +0.000 A 
ATOM     23  C   UNL     1      -3.375  12.715  21.294  0.00  0.00    +0.000 A 
ATOM     24  C   UNL     1      -3.230  12.374  19.918  0.00  0.00    +0.000 A 
ATOM     25  C   UNL     1      -4.327  12.104  19.103  0.00  0.00    +0.000 A 
ATOM     26  C   UNL     1      -5.571  12.135  19.693  0.00  0.00    +0.000 A 
ATOM     27  C   UNL     1      -5.754  12.459  21.021  0.00  0.00    +0.000 A 
ATOM     28  C   UNL     1      -7.197  12.354  21.334  0.00  0.00    +0.000 C 
ATOM     29  O   UNL     1      -7.795  11.969  20.080  0.00  0.00    +0.000 OA
ATOM     30  C   UNL     1      -6.862  11.838  19.091  0.00  0.00    +0.000 C 
ATOM     31  O   UNL     1      -7.070  11.529  17.934  0.00  0.00    +0.000 OA
ENDBRANCH  20  23
BRANCH  20  32
ATOM     32  O   UNL     1      -2.158  12.297  23.373  0.00  0.00    +0.000 OA
ATOM     33  H   UNL     1      -2.650  12.878  23.983  0.00  0.00    +0.000 HD
ENDBRANCH  20  32
ENDBRANCH  19  20
ENDBRANCH   1  19
TORSDOF 6
ENDMDL
