MODEL 1
REMARK VINA RESULT:      -5.7      0.000      0.000
REMARK  Name = 
REMARK  3 active torsions:
REMARK  status: ('A' for Active; 'I' for Inactive)
REMARK    1  A    between atoms: N_1  and  S_2
REMARK    2  A    between atoms: S_2  and  O_5
REMARK    3  A    between atoms: O_5  and  C_6
REMARK                            x       y       z     vdW  Elec       q    Type
REMARK                         _______ _______ _______ _____ _____    ______ ____
ROOT
ATOM      1  O   UNL     1       5.410   3.759  18.061  0.00  0.00    +0.000 OA
ENDROOT
BRANCH   1   2
ATOM      2  C   UNL     1       4.069   3.873  18.328  0.00  0.00    +0.000 A 
ATOM      3  C   UNL     1       3.129   4.411  17.446  0.00  0.00    +0.000 A 
ATOM      4  C   UNL     1       1.780   4.462  17.804  0.00  0.00    +0.000 A 
ATOM      5  C   UNL     1       1.364   3.968  19.039  0.00  0.00    +0.000 A 
ATOM      6  C   UNL     1       2.301   3.415  19.910  0.00  0.00    +0.000 A 
ATOM      7 BR   UNL     1       1.735   2.736  21.582  0.00  0.00    +0.000 Br
ATOM      8  C   UNL     1       3.649   3.360  19.559  0.00  0.00    +0.000 A 
ENDBRANCH   1   2
BRANCH   1   9
ATOM      9  S   UNL     1       6.444   4.985  18.333  0.00  0.00    +0.000 S 
ATOM     10  O   UNL     1       6.603   5.198  19.752  0.00  0.00    +0.000 OA
ATOM     11  O   UNL     1       6.160   6.074  17.422  0.00  0.00    +0.000 OA
BRANCH   9  12
ATOM     12  N   UNL     1       7.919   4.386  17.789  0.00  0.00    +0.000 NA
ATOM     13  H   UNL     1       8.528   5.179  17.581  0.00  0.00    +0.000 HD
ATOM     14  H   UNL     1       7.755   3.811  16.964  0.00  0.00    +0.000 HD
ENDBRANCH   9  12
ENDBRANCH   1   9
TORSDOF 3
ENDMDL
MODEL 2
REMARK VINA RESULT:      -5.7      4.337      5.094
REMARK  Name = 
REMARK  3 active torsions:
REMARK  status: ('A' for Active; 'I' for Inactive)
REMARK    1  A    between atoms: N_1  and  S_2
REMARK    2  A    between atoms: S_2  and  O_5
REMARK    3  A    between atoms: O_5  and  C_6
REMARK                            x       y       z     vdW  Elec       q    Type
REMARK                         _______ _______ _______ _____ _____    ______ ____
ROOT
ATOM      1  O   UNL     1       3.236   3.713  18.645  0.00  0.00    +0.000 OA
ENDROOT
BRANCH   1   2
ATOM      2  C   UNL     1       3.855   4.597  17.797  0.00  0.00    +0.000 A 
ATOM      3  C   UNL     1       3.850   5.984  17.959  0.00  0.00    +0.000 A 
ATOM      4  C   UNL     1       4.531   6.798  17.052  0.00  0.00    +0.000 A 
ATOM      5  C   UNL     1       5.227   6.231  15.986  0.00  0.00    +0.000 A 
ATOM      6  C   UNL     1       5.246   4.845  15.837  0.00  0.00    +0.000 A 
ATOM      7 BR   UNL     1       6.198   4.074  14.396  0.00  0.00    +0.000 Br
ATOM      8  C   UNL     1       4.569   4.026  16.740  0.00  0.00    +0.000 A 
ENDBRANCH   1   2
BRANCH   1   9
ATOM      9  S   UNL     1       1.631   3.454  18.587  0.00  0.00    +0.000 S 
ATOM     10  O   UNL     1       1.100   3.893  17.319  0.00  0.00    +0.000 OA
ATOM     11  O   UNL     1       1.029   3.842  19.845  0.00  0.00    +0.000 OA
BRANCH   9  12
ATOM     12  N   UNL     1       1.501   1.777  18.584  0.00  0.00    +0.000 NA
ATOM     13  H   UNL     1       1.004   1.494  19.429  0.00  0.00    +0.000 HD
ATOM     14  H   UNL     1       2.437   1.375  18.547  0.00  0.00    +0.000 HD
ENDBRANCH   9  12
ENDBRANCH   1   9
TORSDOF 3
ENDMDL
MODEL 3
REMARK VINA RESULT:      -5.6      1.537      1.746
REMARK  Name = 
REMARK  3 active torsions:
REMARK  status: ('A' for Active; 'I' for Inactive)
REMARK    1  A    between atoms: N_1  and  S_2
REMARK    2  A    between atoms: S_2  and  O_5
REMARK    3  A    between atoms: O_5  and  C_6
REMARK                            x       y       z     vdW  Elec       q    Type
REMARK                         _______ _______ _______ _____ _____    ______ ____
ROOT
ATOM      1  O   UNL     1       6.158   4.042  18.891  0.00  0.00    +0.000 OA
ENDROOT
BRANCH   1   2
ATOM      2  C   UNL     1       4.823   4.080  18.573  0.00  0.00    +0.000 A 
ATOM      3  C   UNL     1       4.277   3.573  17.393  0.00  0.00    +0.000 A 
ATOM      4  C   UNL     1       2.899   3.638  17.173  0.00  0.00    +0.000 A 
ATOM      5  C   UNL     1       2.062   4.201  18.134  0.00  0.00    +0.000 A 
ATOM      6  C   UNL     1       2.608   4.690  19.320  0.00  0.00    +0.000 A 
ATOM      7 BR   UNL     1       1.472   5.445  20.630  0.00  0.00    +0.000 Br
ATOM      8  C   UNL     1       3.983   4.627  19.546  0.00  0.00    +0.000 A 
ENDBRANCH   1   2
BRANCH   1   9
ATOM      9  S   UNL     1       7.220   5.096  18.250  0.00  0.00    +0.000 S 
ATOM     10  O   UNL     1       6.539   6.299  17.834  0.00  0.00    +0.000 OA
ATOM     11  O   UNL     1       8.136   4.394  17.377  0.00  0.00    +0.000 OA
BRANCH   9  12
ATOM     12  N   UNL     1       8.178   5.538  19.560  0.00  0.00    +0.000 NA
ATOM     13  H   UNL     1       9.005   4.940  19.566  0.00  0.00    +0.000 HD
ATOM     14  H   UNL     1       7.632   5.434  20.415  0.00  0.00    +0.000 HD
ENDBRANCH   9  12
ENDBRANCH   1   9
TORSDOF 3
ENDMDL
MODEL 4
REMARK VINA RESULT:      -5.5      2.410      2.826
REMARK  Name = 
REMARK  3 active torsions:
REMARK  status: ('A' for Active; 'I' for Inactive)
REMARK    1  A    between atoms: N_1  and  S_2
REMARK    2  A    between atoms: S_2  and  O_5
REMARK    3  A    between atoms: O_5  and  C_6
REMARK                            x       y       z     vdW  Elec       q    Type
REMARK                         _______ _______ _______ _____ _____    ______ ____
ROOT
ATOM      1  O   UNL     1       6.165   4.430  18.556  0.00  0.00    +0.000 OA
ENDROOT
BRANCH   1   2
ATOM      2  C   UNL     1       4.820   4.566  18.317  0.00  0.00    +0.000 A 
ATOM      3  C   UNL     1       3.943   3.501  18.104  0.00  0.00    +0.000 A 
ATOM      4  C   UNL     1       2.584   3.744  17.891  0.00  0.00    +0.000 A 
ATOM      5  C   UNL     1       2.096   5.049  17.898  0.00  0.00    +0.000 A 
ATOM      6  C   UNL     1       2.970   6.109  18.129  0.00  0.00    +0.000 A 
ATOM      7 BR   UNL     1       2.306   7.880  18.150  0.00  0.00    +0.000 Br
ATOM      8  C   UNL     1       4.328   5.874  18.344  0.00  0.00    +0.000 A 
ENDBRANCH   1   2
BRANCH   1   9
ATOM      9  S   UNL     1       7.266   4.597  17.371  0.00  0.00    +0.000 S 
ATOM     10  O   UNL     1       6.681   4.258  16.095  0.00  0.00    +0.000 OA
ATOM     11  O   UNL     1       8.534   4.047  17.802  0.00  0.00    +0.000 OA
BRANCH   9  12
ATOM     12  N   UNL     1       7.548   6.254  17.322  0.00  0.00    +0.000 NA
ATOM     13  H   UNL     1       6.831   6.682  16.735  0.00  0.00    +0.000 HD
ATOM     14  H   UNL     1       8.484   6.417  16.952  0.00  0.00    +0.000 HD
ENDBRANCH   9  12
ENDBRANCH   1   9
TORSDOF 3
ENDMDL
MODEL 5
REMARK VINA RESULT:      -5.5      1.781      2.044
REMARK  Name = 
REMARK  3 active torsions:
REMARK  status: ('A' for Active; 'I' for Inactive)
REMARK    1  A    between atoms: N_1  and  S_2
REMARK    2  A    between atoms: S_2  and  O_5
REMARK    3  A    between atoms: O_5  and  C_6
REMARK                            x       y       z     vdW  Elec       q    Type
REMARK                         _______ _______ _______ _____ _____    ______ ____
ROOT
ATOM      1  O   UNL     1       5.792   4.514  16.809  0.00  0.00    +0.000 OA
ENDROOT
BRANCH   1   2
ATOM      2  C   UNL     1       4.559   4.774  17.351  0.00  0.00    +0.000 A 
ATOM      3  C   UNL     1       4.026   6.052  17.529  0.00  0.00    +0.000 A 
ATOM      4  C   UNL     1       2.748   6.210  18.070  0.00  0.00    +0.000 A 
ATOM      5  C   UNL     1       1.995   5.093  18.427  0.00  0.00    +0.000 A 
ATOM      6  C   UNL     1       2.522   3.817  18.232  0.00  0.00    +0.000 A 
ATOM      7 BR   UNL     1       1.497   2.301  18.707  0.00  0.00    +0.000 Br
ATOM      8  C   UNL     1       3.797   3.652  17.691  0.00  0.00    +0.000 A 
ENDBRANCH   1   2
BRANCH   1   9
ATOM      9  S   UNL     1       7.167   4.957  17.558  0.00  0.00    +0.000 S 
ATOM     10  O   UNL     1       8.268   4.141  17.105  0.00  0.00    +0.000 OA
ATOM     11  O   UNL     1       6.906   5.178  18.965  0.00  0.00    +0.000 OA
BRANCH   9  12
ATOM     12  N   UNL     1       7.463   6.502  16.961  0.00  0.00    +0.000 NA
ATOM     13  H   UNL     1       8.415   6.525  16.596  0.00  0.00    +0.000 HD
ATOM     14  H   UNL     1       7.333   7.175  17.716  0.00  0.00    +0.000 HD
ENDBRANCH   9  12
ENDBRANCH   1   9
TORSDOF 3
ENDMDL
MODEL 6
REMARK VINA RESULT:      -5.5      3.762      4.505
REMARK  Name = 
REMARK  3 active torsions:
REMARK  status: ('A' for Active; 'I' for Inactive)
REMARK    1  A    between atoms: N_1  and  S_2
REMARK    2  A    between atoms: S_2  and  O_5
REMARK    3  A    between atoms: O_5  and  C_6
REMARK                            x       y       z     vdW  Elec       q    Type
REMARK                         _______ _______ _______ _____ _____    ______ ____
ROOT
ATOM      1  O   UNL     1       3.129   3.653  18.313  0.00  0.00    +0.000 OA
ENDROOT
BRANCH   1   2
ATOM      2  C   UNL     1       3.810   4.569  17.550  0.00  0.00    +0.000 A 
ATOM      3  C   UNL     1       3.848   5.941  17.807  0.00  0.00    +0.000 A 
ATOM      4  C   UNL     1       4.590   6.788  16.983  0.00  0.00    +0.000 A 
ATOM      5  C   UNL     1       5.305   6.268  15.905  0.00  0.00    +0.000 A 
ATOM      6  C   UNL     1       5.280   4.896  15.661  0.00  0.00    +0.000 A 
ATOM      7 BR   UNL     1       6.257   4.188  14.205  0.00  0.00    +0.000 Br
ATOM      8  C   UNL     1       4.542   4.044  16.482  0.00  0.00    +0.000 A 
ENDBRANCH   1   2
BRANCH   1   9
ATOM      9  S   UNL     1       3.878   2.759  19.447  0.00  0.00    +0.000 S 
ATOM     10  O   UNL     1       2.991   2.518  20.560  0.00  0.00    +0.000 OA
ATOM     11  O   UNL     1       5.229   3.243  19.637  0.00  0.00    +0.000 OA
BRANCH   9  12
ATOM     12  N   UNL     1       4.092   1.268  18.698  0.00  0.00    +0.000 NA
ATOM     13  H   UNL     1       5.088   1.140  18.522  0.00  0.00    +0.000 HD
ATOM     14  H   UNL     1       3.552   1.256  17.833  0.00  0.00    +0.000 HD
ENDBRANCH   9  12
ENDBRANCH   1   9
TORSDOF 3
ENDMDL
MODEL 7
REMARK VINA RESULT:      -5.5      1.034      1.181
REMARK  Name = 
REMARK  3 active torsions:
REMARK  status: ('A' for Active; 'I' for Inactive)
REMARK    1  A    between atoms: N_1  and  S_2
REMARK    2  A    between atoms: S_2  and  O_5
REMARK    3  A    between atoms: O_5  and  C_6
REMARK                            x       y       z     vdW  Elec       q    Type
REMARK                         _______ _______ _______ _____ _____    ______ ____
ROOT
ATOM      1  O   UNL     1       5.768   3.708  18.575  0.00  0.00    +0.000 OA
ENDROOT
BRANCH   1   2
ATOM      2  C   UNL     1       4.396   3.691  18.542  0.00  0.00    +0.000 A 
ATOM      3  C   UNL     1       3.628   3.937  17.402  0.00  0.00    +0.000 A 
ATOM      4  C   UNL     1       2.235   3.873  17.467  0.00  0.00    +0.000 A 
ATOM      5  C   UNL     1       1.603   3.553  18.668  0.00  0.00    +0.000 A 
ATOM      6  C   UNL     1       2.372   3.290  19.800  0.00  0.00    +0.000 A 
ATOM      7 BR   UNL     1       1.517   2.847  21.428  0.00  0.00    +0.000 Br
ATOM      8  C   UNL     1       3.764   3.351  19.742  0.00  0.00    +0.000 A 
ENDBRANCH   1   2
BRANCH   1   9
ATOM      9  S   UNL     1       6.611   5.078  18.331  0.00  0.00    +0.000 S 
ATOM     10  O   UNL     1       5.714   6.175  18.055  0.00  0.00    +0.000 OA
ATOM     11  O   UNL     1       7.760   4.801  17.496  0.00  0.00    +0.000 OA
BRANCH   9  12
ATOM     12  N   UNL     1       7.284   5.402  19.838  0.00  0.00    +0.000 NA
ATOM     13  H   UNL     1       8.073   6.035  19.706  0.00  0.00    +0.000 HD
ATOM     14  H   UNL     1       7.575   4.522  20.263  0.00  0.00    +0.000 HD
ENDBRANCH   9  12
ENDBRANCH   1   9
TORSDOF 3
ENDMDL
MODEL 8
REMARK VINA RESULT:      -5.5      1.843      2.128
REMARK  Name = 
REMARK  3 active torsions:
REMARK  status: ('A' for Active; 'I' for Inactive)
REMARK    1  A    between atoms: N_1  and  S_2
REMARK    2  A    between atoms: S_2  and  O_5
REMARK    3  A    between atoms: O_5  and  C_6
REMARK                            x       y       z     vdW  Elec       q    Type
REMARK                         _______ _______ _______ _____ _____    ______ ____
ROOT
ATOM      1  O   UNL     1       6.106   5.122  18.335  0.00  0.00    +0.000 OA
ENDROOT
BRANCH   1   2
ATOM      2  C   UNL     1       4.734   5.113  18.331  0.00  0.00    +0.000 A 
ATOM      3  C   UNL     1       3.936   6.205  17.984  0.00  0.00    +0.000 A 
ATOM      4  C   UNL     1       2.544   6.086  17.989  0.00  0.00    +0.000 A 
ATOM      5  C   UNL     1       1.945   4.876  18.332  0.00  0.00    +0.000 A 
ATOM      6  C   UNL     1       2.744   3.782  18.660  0.00  0.00    +0.000 A 
ATOM      7 BR   UNL     1       1.932   2.136  19.116  0.00  0.00    +0.000 Br
ATOM      8  C   UNL     1       4.134   3.893  18.656  0.00  0.00    +0.000 A 
ENDBRANCH   1   2
BRANCH   1   9
ATOM      9  S   UNL     1       6.967   4.780  16.998  0.00  0.00    +0.000 S 
ATOM     10  O   UNL     1       6.115   4.195  15.991  0.00  0.00    +0.000 OA
ATOM     11  O   UNL     1       8.231   4.182  17.372  0.00  0.00    +0.000 OA
BRANCH   9  12
ATOM     12  N   UNL     1       7.403   6.295  16.409  0.00  0.00    +0.000 NA
ATOM     13  H   UNL     1       6.589   6.907  16.473  0.00  0.00    +0.000 HD
ATOM     14  H   UNL     1       7.722   6.192  15.447  0.00  0.00    +0.000 HD
ENDBRANCH   9  12
ENDBRANCH   1   9
TORSDOF 3
ENDMDL
MODEL 9
REMARK VINA RESULT:      -5.5      1.259      1.272
REMARK  Name = 
REMARK  3 active torsions:
REMARK  status: ('A' for Active; 'I' for Inactive)
REMARK    1  A    between atoms: N_1  and  S_2
REMARK    2  A    between atoms: S_2  and  O_5
REMARK    3  A    between atoms: O_5  and  C_6
REMARK                            x       y       z     vdW  Elec       q    Type
REMARK                         _______ _______ _______ _____ _____    ______ ____
ROOT
ATOM      1  O   UNL     1       5.649   4.416  17.294  0.00  0.00    +0.000 OA
ENDROOT
BRANCH   1   2
ATOM      2  C   UNL     1       4.498   4.752  17.963  0.00  0.00    +0.000 A 
ATOM      3  C   UNL     1       3.694   5.850  17.652  0.00  0.00    +0.000 A 
ATOM      4  C   UNL     1       2.528   6.094  18.380  0.00  0.00    +0.000 A 
ATOM      5  C   UNL     1       2.155   5.238  19.414  0.00  0.00    +0.000 A 
ATOM      6  C   UNL     1       2.950   4.132  19.711  0.00  0.00    +0.000 A 
ATOM      7 BR   UNL     1       2.440   2.964  21.109  0.00  0.00    +0.000 Br
ATOM      8  C   UNL     1       4.116   3.882  18.987  0.00  0.00    +0.000 A 
ENDBRANCH   1   2
BRANCH   1   9
ATOM      9  S   UNL     1       7.018   5.278  17.462  0.00  0.00    +0.000 S 
ATOM     10  O   UNL     1       6.984   6.035  18.691  0.00  0.00    +0.000 OA
ATOM     11  O   UNL     1       7.368   5.889  16.197  0.00  0.00    +0.000 OA
BRANCH   9  12
ATOM     12  N   UNL     1       8.202   4.103  17.678  0.00  0.00    +0.000 NA
ATOM     13  H   UNL     1       8.969   4.301  17.035  0.00  0.00    +0.000 HD
ATOM     14  H   UNL     1       7.790   3.187  17.501  0.00  0.00    +0.000 HD
ENDBRANCH   9  12
ENDBRANCH   1   9
TORSDOF 3
ENDMDL
