MODEL 1
REMARK VINA RESULT:      -8.6      0.000      0.000
REMARK  Name = 
REMARK  2 active torsions:
REMARK  status: ('A' for Active; 'I' for Inactive)
REMARK    1  A    between atoms: C_10  and  C_11
REMARK    2  A    between atoms: C_11  and  O_12
REMARK                            x       y       z     vdW  Elec       q    Type
REMARK                         _______ _______ _______ _____ _____    ______ ____
ROOT
ATOM      1  N   UNL     1       8.873   6.024  13.136  0.00  0.00    +0.000 N 
ATOM      2  C   UNL     1       7.792   5.238  13.474  0.00  0.00    +0.000 A 
ATOM      3  N   UNL     1       7.221   4.536  12.507  0.00  0.00    +0.000 NA
ATOM      4  C   UNL     1       6.216   3.763  12.878  0.00  0.00    +0.000 A 
ATOM      5  N   UNL     1       5.596   3.009  11.906  0.00  0.00    +0.000 N 
ATOM      6  N   UNL     1       5.753   3.667  14.111  0.00  0.00    +0.000 NA
ATOM      7  C   UNL     1       6.405   4.406  15.019  0.00  0.00    +0.000 A 
ATOM      8  N   UNL     1       5.979   4.279  16.374  0.00  0.00    +0.000 N 
ATOM      9  C   UNL     1       4.986   3.451  16.844  0.00  0.00    +0.000 A 
ATOM     10  C   UNL     1       5.033   3.576  18.217  0.00  0.00    +0.000 A 
ATOM     11  N   UNL     1       5.975   4.520  18.540  0.00  0.00    +0.000 NA
ATOM     12  N   UNL     1       6.542   4.944  17.416  0.00  0.00    +0.000 NA
ATOM     13  N   UNL     1       7.437   5.207  14.746  0.00  0.00    +0.000 NA
ATOM     14  H   UNL     1       9.310   5.681  12.292  0.00  0.00    +0.000 HD
ATOM     15  H   UNL     1       9.471   6.165  13.940  0.00  0.00    +0.000 HD
ATOM     16  H   UNL     1       5.733   3.416  10.991  0.00  0.00    +0.000 HD
ATOM     17  H   UNL     1       4.651   2.766  12.168  0.00  0.00    +0.000 HD
ENDROOT
BRANCH  10  18
ATOM     18  C   UNL     1       4.252   2.840  19.276  0.00  0.00    +0.000 C 
ATOM     19  C   UNL     1       3.321   3.777  20.002  0.00  0.00    +0.000 C 
ATOM     20  C   UNL     1       1.983   3.722  19.920  0.00  0.00    +0.000 C 
ATOM     21  C   UNL     1       1.321   2.692  19.086  0.00  0.00    +0.000 C 
ATOM     22  O   UNL     1       0.118   2.721  18.871  0.00  0.00    +0.000 OA
ATOM     23  C   UNL     1       2.177   1.617  18.531  0.00  0.00    +0.000 C 
ATOM     24  C   UNL     1       3.510   1.682  18.651  0.00  0.00    +0.000 C 
BRANCH  18  25
ATOM     25  O   UNL     1       5.101   2.269  20.267  0.00  0.00    +0.000 OA
ATOM     26  H   UNL     1       5.442   3.018  20.791  0.00  0.00    +0.000 HD
ENDBRANCH  18  25
ENDBRANCH  10  18
TORSDOF 2
ENDMDL
MODEL 2
REMARK VINA RESULT:      -8.1      1.147      1.257
REMARK  Name = 
REMARK  2 active torsions:
REMARK  status: ('A' for Active; 'I' for Inactive)
REMARK    1  A    between atoms: C_10  and  C_11
REMARK    2  A    between atoms: C_11  and  O_12
REMARK                            x       y       z     vdW  Elec       q    Type
REMARK                         _______ _______ _______ _____ _____    ______ ____
ROOT
ATOM      1  N   UNL     1       8.989   5.875  12.926  0.00  0.00    +0.000 N 
ATOM      2  C   UNL     1       7.837   5.238  13.338  0.00  0.00    +0.000 A 
ATOM      3  N   UNL     1       7.321   4.327  12.529  0.00  0.00    +0.000 NA
ATOM      4  C   UNL     1       6.242   3.709  12.977  0.00  0.00    +0.000 A 
ATOM      5  N   UNL     1       5.675   2.747  12.170  0.00  0.00    +0.000 N 
ATOM      6  N   UNL     1       5.661   3.951  14.136  0.00  0.00    +0.000 NA
ATOM      7  C   UNL     1       6.266   4.881  14.889  0.00  0.00    +0.000 A 
ATOM      8  N   UNL     1       5.707   5.125  16.178  0.00  0.00    +0.000 N 
ATOM      9  C   UNL     1       4.629   4.479  16.737  0.00  0.00    +0.000 A 
ATOM     10  C   UNL     1       4.553   4.956  18.030  0.00  0.00    +0.000 A 
ATOM     11  N   UNL     1       5.514   5.922  18.198  0.00  0.00    +0.000 NA
ATOM     12  N   UNL     1       6.207   6.021  17.068  0.00  0.00    +0.000 NA
ATOM     13  N   UNL     1       7.362   5.551  14.531  0.00  0.00    +0.000 NA
ATOM     14  H   UNL     1       9.483   5.310  12.250  0.00  0.00    +0.000 HD
ATOM     15  H   UNL     1       9.515   6.202  13.726  0.00  0.00    +0.000 HD
ATOM     16  H   UNL     1       5.920   2.897  11.201  0.00  0.00    +0.000 HD
ATOM     17  H   UNL     1       4.697   2.609  12.384  0.00  0.00    +0.000 HD
ENDROOT
BRANCH  10  18
ATOM     18  C   UNL     1       3.635   4.546  19.153  0.00  0.00    +0.000 C 
ATOM     19  C   UNL     1       2.215   4.957  18.859  0.00  0.00    +0.000 C 
ATOM     20  C   UNL     1       1.217   4.093  18.617  0.00  0.00    +0.000 C 
ATOM     21  C   UNL     1       1.464   2.632  18.634  0.00  0.00    +0.000 C 
ATOM     22  O   UNL     1       0.613   1.837  18.263  0.00  0.00    +0.000 OA
ATOM     23  C   UNL     1       2.782   2.174  19.131  0.00  0.00    +0.000 C 
ATOM     24  C   UNL     1       3.754   3.059  19.392  0.00  0.00    +0.000 C 
BRANCH  18  25
ATOM     25  O   UNL     1       3.987   5.169  20.385  0.00  0.00    +0.000 OA
ATOM     26  H   UNL     1       3.348   5.894  20.510  0.00  0.00    +0.000 HD
ENDBRANCH  18  25
ENDBRANCH  10  18
TORSDOF 2
ENDMDL
MODEL 3
REMARK VINA RESULT:      -8.0      4.695      7.261
REMARK  Name = 
REMARK  2 active torsions:
REMARK  status: ('A' for Active; 'I' for Inactive)
REMARK    1  A    between atoms: C_10  and  C_11
REMARK    2  A    between atoms: C_11  and  O_12
REMARK                            x       y       z     vdW  Elec       q    Type
REMARK                         _______ _______ _______ _____ _____    ______ ____
ROOT
ATOM      1  N   UNL     1      -0.234   9.522  21.736  0.00  0.00    +0.000 N 
ATOM      2  C   UNL     1       0.566   9.209  20.657  0.00  0.00    +0.000 A 
ATOM      3  N   UNL     1       0.742  10.145  19.737  0.00  0.00    +0.000 NA
ATOM      4  C   UNL     1       1.548   9.823  18.740  0.00  0.00    +0.000 A 
ATOM      5  N   UNL     1       1.767  10.769  17.763  0.00  0.00    +0.000 N 
ATOM      6  N   UNL     1       2.153   8.658  18.606  0.00  0.00    +0.000 NA
ATOM      7  C   UNL     1       1.922   7.783  19.595  0.00  0.00    +0.000 A 
ATOM      8  N   UNL     1       2.610   6.535  19.521  0.00  0.00    +0.000 N 
ATOM      9  C   UNL     1       3.510   6.154  18.553  0.00  0.00    +0.000 A 
ATOM     10  C   UNL     1       4.003   4.938  18.978  0.00  0.00    +0.000 A 
ATOM     11  N   UNL     1       3.345   4.575  20.126  0.00  0.00    +0.000 NA
ATOM     12  N   UNL     1       2.499   5.548  20.447  0.00  0.00    +0.000 NA
ATOM     13  N   UNL     1       1.135   8.017  20.646  0.00  0.00    +0.000 NA
ATOM     14  H   UNL     1      -0.274  10.522  21.868  0.00  0.00    +0.000 HD
ATOM     15  H   UNL     1       0.024   8.961  22.538  0.00  0.00    +0.000 HD
ATOM     16  H   UNL     1       1.006  11.434  17.728  0.00  0.00    +0.000 HD
ATOM     17  H   UNL     1       2.053  10.346  16.891  0.00  0.00    +0.000 HD
ENDROOT
BRANCH  10  18
ATOM     18  C   UNL     1       5.089   4.081  18.381  0.00  0.00    +0.000 C 
ATOM     19  C   UNL     1       4.814   3.806  16.924  0.00  0.00    +0.000 C 
ATOM     20  C   UNL     1       5.557   4.286  15.915  0.00  0.00    +0.000 C 
ATOM     21  C   UNL     1       6.739   5.137  16.187  0.00  0.00    +0.000 C 
ATOM     22  O   UNL     1       7.332   5.711  15.286  0.00  0.00    +0.000 OA
ATOM     23  C   UNL     1       7.179   5.254  17.597  0.00  0.00    +0.000 C 
ATOM     24  C   UNL     1       6.432   4.741  18.585  0.00  0.00    +0.000 C 
BRANCH  18  25
ATOM     25  O   UNL     1       5.179   2.810  19.019  0.00  0.00    +0.000 OA
ATOM     26  H   UNL     1       5.414   2.993  19.947  0.00  0.00    +0.000 HD
ENDBRANCH  18  25
ENDBRANCH  10  18
TORSDOF 2
ENDMDL
MODEL 4
REMARK VINA RESULT:      -7.8      6.204      8.108
REMARK  Name = 
REMARK  2 active torsions:
REMARK  status: ('A' for Active; 'I' for Inactive)
REMARK    1  A    between atoms: C_10  and  C_11
REMARK    2  A    between atoms: C_11  and  O_12
REMARK                            x       y       z     vdW  Elec       q    Type
REMARK                         _______ _______ _______ _____ _____    ______ ____
ROOT
ATOM      1  N   UNL     1      -0.670  12.968  17.986  0.00  0.00    +0.000 N 
ATOM      2  C   UNL     1      -0.322  12.026  18.932  0.00  0.00    +0.000 A 
ATOM      3  N   UNL     1      -0.795  12.190  20.157  0.00  0.00    +0.000 NA
ATOM      4  C   UNL     1      -0.475  11.246  21.024  0.00  0.00    +0.000 A 
ATOM      5  N   UNL     1      -0.951  11.371  22.311  0.00  0.00    +0.000 N 
ATOM      6  N   UNL     1       0.276  10.195  20.753  0.00  0.00    +0.000 NA
ATOM      7  C   UNL     1       0.695  10.112  19.482  0.00  0.00    +0.000 A 
ATOM      8  N   UNL     1       1.454   8.957  19.131  0.00  0.00    +0.000 N 
ATOM      9  C   UNL     1       1.771   7.905  19.959  0.00  0.00    +0.000 A 
ATOM     10  C   UNL     1       2.388   6.979  19.144  0.00  0.00    +0.000 A 
ATOM     11  N   UNL     1       2.505   7.511  17.884  0.00  0.00    +0.000 NA
ATOM     12  N   UNL     1       1.938   8.714  17.886  0.00  0.00    +0.000 NA
ATOM     13  N   UNL     1       0.416  11.007  18.532  0.00  0.00    +0.000 NA
ATOM     14  H   UNL     1      -1.523  13.440  18.252  0.00  0.00    +0.000 HD
ATOM     15  H   UNL     1      -0.639  12.563  17.059  0.00  0.00    +0.000 HD
ATOM     16  H   UNL     1      -1.161  12.336  22.526  0.00  0.00    +0.000 HD
ATOM     17  H   UNL     1      -0.379  10.863  22.972  0.00  0.00    +0.000 HD
ENDROOT
BRANCH  10  18
ATOM     18  C   UNL     1       2.870   5.587  19.464  0.00  0.00    +0.000 C 
ATOM     19  C   UNL     1       1.975   4.935  20.487  0.00  0.00    +0.000 C 
ATOM     20  C   UNL     1       1.181   3.883  20.230  0.00  0.00    +0.000 C 
ATOM     21  C   UNL     1       1.145   3.278  18.879  0.00  0.00    +0.000 C 
ATOM     22  O   UNL     1       0.318   2.428  18.582  0.00  0.00    +0.000 OA
ATOM     23  C   UNL     1       2.161   3.738  17.904  0.00  0.00    +0.000 C 
ATOM     24  C   UNL     1       2.962   4.773  18.195  0.00  0.00    +0.000 C 
BRANCH  18  25
ATOM     25  O   UNL     1       4.181   5.590  20.021  0.00  0.00    +0.000 OA
ATOM     26  H   UNL     1       4.793   5.597  19.263  0.00  0.00    +0.000 HD
ENDBRANCH  18  25
ENDBRANCH  10  18
TORSDOF 2
ENDMDL
MODEL 5
REMARK VINA RESULT:      -7.6      4.997      6.598
REMARK  Name = 
REMARK  2 active torsions:
REMARK  status: ('A' for Active; 'I' for Inactive)
REMARK    1  A    between atoms: C_10  and  C_11
REMARK    2  A    between atoms: C_11  and  O_12
REMARK                            x       y       z     vdW  Elec       q    Type
REMARK                         _______ _______ _______ _____ _____    ______ ____
ROOT
ATOM      1  N   UNL     1       2.437  12.172  17.420  0.00  0.00    +0.000 N 
ATOM      2  C   UNL     1       2.003  11.083  18.147  0.00  0.00    +0.000 A 
ATOM      3  N   UNL     1       1.024  11.281  19.016  0.00  0.00    +0.000 NA
ATOM      4  C   UNL     1       0.607  10.207  19.662  0.00  0.00    +0.000 A 
ATOM      5  N   UNL     1      -0.415  10.364  20.572  0.00  0.00    +0.000 N 
ATOM      6  N   UNL     1       1.104   8.994  19.508  0.00  0.00    +0.000 NA
ATOM      7  C   UNL     1       2.081   8.894  18.596  0.00  0.00    +0.000 A 
ATOM      8  N   UNL     1       2.600   7.588  18.352  0.00  0.00    +0.000 N 
ATOM      9  C   UNL     1       2.174   6.418  18.936  0.00  0.00    +0.000 A 
ATOM     10  C   UNL     1       2.872   5.418  18.290  0.00  0.00    +0.000 A 
ATOM     11  N   UNL     1       3.748   5.996  17.405  0.00  0.00    +0.000 NA
ATOM     12  N   UNL     1       3.579   7.313  17.452  0.00  0.00    +0.000 NA
ATOM     13  N   UNL     1       2.563   9.916  17.886  0.00  0.00    +0.000 NA
ATOM     14  H   UNL     1       1.716  12.879  17.376  0.00  0.00    +0.000 HD
ATOM     15  H   UNL     1       2.840  11.871  16.542  0.00  0.00    +0.000 HD
ATOM     16  H   UNL     1      -0.460  11.318  20.904  0.00  0.00    +0.000 HD
ATOM     17  H   UNL     1      -0.412   9.631  21.268  0.00  0.00    +0.000 HD
ENDROOT
BRANCH  10  18
ATOM     18  C   UNL     1       2.758   3.922  18.431  0.00  0.00    +0.000 C 
ATOM     19  C   UNL     1       3.693   3.413  19.497  0.00  0.00    +0.000 C 
ATOM     20  C   UNL     1       3.289   2.886  20.664  0.00  0.00    +0.000 C 
ATOM     21  C   UNL     1       1.846   2.764  20.975  0.00  0.00    +0.000 C 
ATOM     22  O   UNL     1       1.459   2.437  22.088  0.00  0.00    +0.000 OA
ATOM     23  C   UNL     1       0.890   3.043  19.878  0.00  0.00    +0.000 C 
ATOM     24  C   UNL     1       1.323   3.543  18.713  0.00  0.00    +0.000 C 
BRANCH  18  25
ATOM     25  O   UNL     1       3.111   3.243  17.229  0.00  0.00    +0.000 OA
ATOM     26  H   UNL     1       4.081   3.309  17.160  0.00  0.00    +0.000 HD
ENDBRANCH  18  25
ENDBRANCH  10  18
TORSDOF 2
ENDMDL
MODEL 6
REMARK VINA RESULT:      -7.6      5.420      8.085
REMARK  Name = 
REMARK  2 active torsions:
REMARK  status: ('A' for Active; 'I' for Inactive)
REMARK    1  A    between atoms: C_10  and  C_11
REMARK    2  A    between atoms: C_11  and  O_12
REMARK                            x       y       z     vdW  Elec       q    Type
REMARK                         _______ _______ _______ _____ _____    ______ ____
ROOT
ATOM      1  N   UNL     1      -0.493   8.619  22.484  0.00  0.00    +0.000 N 
ATOM      2  C   UNL     1       0.098   8.957  21.283  0.00  0.00    +0.000 A 
ATOM      3  N   UNL     1      -0.154  10.163  20.799  0.00  0.00    +0.000 NA
ATOM      4  C   UNL     1       0.463  10.465  19.670  0.00  0.00    +0.000 A 
ATOM      5  N   UNL     1       0.237  11.713  19.131  0.00  0.00    +0.000 N 
ATOM      6  N   UNL     1       1.273   9.657  19.013  0.00  0.00    +0.000 NA
ATOM      7  C   UNL     1       1.474   8.464  19.591  0.00  0.00    +0.000 A 
ATOM      8  N   UNL     1       2.394   7.586  18.947  0.00  0.00    +0.000 N 
ATOM      9  C   UNL     1       3.120   7.853  17.809  0.00  0.00    +0.000 A 
ATOM     10  C   UNL     1       3.960   6.770  17.654  0.00  0.00    +0.000 A 
ATOM     11  N   UNL     1       3.674   5.850  18.632  0.00  0.00    +0.000 NA
ATOM     12  N   UNL     1       2.720   6.351  19.410  0.00  0.00    +0.000 NA
ATOM     13  N   UNL     1       0.907   8.070  20.733  0.00  0.00    +0.000 NA
ATOM     14  H   UNL     1      -0.731   9.450  23.007  0.00  0.00    +0.000 HD
ATOM     15  H   UNL     1       0.057   7.916  22.960  0.00  0.00    +0.000 HD
ATOM     16  H   UNL     1      -0.643  12.091  19.453  0.00  0.00    +0.000 HD
ATOM     17  H   UNL     1       0.412  11.728  18.136  0.00  0.00    +0.000 HD
ENDROOT
BRANCH  10  18
ATOM     18  C   UNL     1       5.053   6.540  16.643  0.00  0.00    +0.000 C 
ATOM     19  C   UNL     1       6.366   7.086  17.141  0.00  0.00    +0.000 C 
ATOM     20  C   UNL     1       7.422   6.326  17.469  0.00  0.00    +0.000 C 
ATOM     21  C   UNL     1       7.356   4.851  17.346  0.00  0.00    +0.000 C 
ATOM     22  O   UNL     1       8.243   4.134  17.785  0.00  0.00    +0.000 OA
ATOM     23  C   UNL     1       6.174   4.281  16.657  0.00  0.00    +0.000 C 
ATOM     24  C   UNL     1       5.144   5.068  16.315  0.00  0.00    +0.000 C 
BRANCH  18  25
ATOM     25  O   UNL     1       4.786   7.198  15.408  0.00  0.00    +0.000 OA
ATOM     26  H   UNL     1       4.659   6.490  14.750  0.00  0.00    +0.000 HD
ENDBRANCH  18  25
ENDBRANCH  10  18
TORSDOF 2
ENDMDL
MODEL 7
REMARK VINA RESULT:      -7.6      5.355      7.953
REMARK  Name = 
REMARK  2 active torsions:
REMARK  status: ('A' for Active; 'I' for Inactive)
REMARK    1  A    between atoms: C_10  and  C_11
REMARK    2  A    between atoms: C_11  and  O_12
REMARK                            x       y       z     vdW  Elec       q    Type
REMARK                         _______ _______ _______ _____ _____    ______ ____
ROOT
ATOM      1  N   UNL     1      -0.559  11.678  19.090  0.00  0.00    +0.000 N 
ATOM      2  C   UNL     1      -0.059  10.568  19.739  0.00  0.00    +0.000 A 
ATOM      3  N   UNL     1      -0.555  10.285  20.934  0.00  0.00    +0.000 NA
ATOM      4  C   UNL     1      -0.083   9.191  21.505  0.00  0.00    +0.000 A 
ATOM      5  N   UNL     1      -0.575   8.854  22.746  0.00  0.00    +0.000 N 
ATOM      6  N   UNL     1       0.835   8.401  20.978  0.00  0.00    +0.000 NA
ATOM      7  C   UNL     1       1.264   8.765  19.762  0.00  0.00    +0.000 A 
ATOM      8  N   UNL     1       2.207   7.902  19.130  0.00  0.00    +0.000 N 
ATOM      9  C   UNL     1       2.695   6.718  19.632  0.00  0.00    +0.000 A 
ATOM     10  C   UNL     1       3.460   6.184  18.616  0.00  0.00    +0.000 A 
ATOM     11  N   UNL     1       3.488   7.075  17.573  0.00  0.00    +0.000 NA
ATOM     12  N   UNL     1       2.728   8.117  17.894  0.00  0.00    +0.000 NA
ATOM     13  N   UNL     1       0.841   9.843  19.099  0.00  0.00    +0.000 NA
ATOM     14  H   UNL     1      -1.479  11.907  19.439  0.00  0.00    +0.000 HD
ATOM     15  H   UNL     1      -0.458  11.575  18.089  0.00  0.00    +0.000 HD
ATOM     16  H   UNL     1      -0.945   9.666  23.221  0.00  0.00    +0.000 HD
ATOM     17  H   UNL     1       0.072   8.272  23.259  0.00  0.00    +0.000 HD
ENDROOT
BRANCH  10  18
ATOM     18  C   UNL     1       4.168   4.855  18.543  0.00  0.00    +0.000 C 
ATOM     19  C   UNL     1       4.169   4.326  17.132  0.00  0.00    +0.000 C 
ATOM     20  C   UNL     1       5.271   4.203  16.376  0.00  0.00    +0.000 C 
ATOM     21  C   UNL     1       6.599   4.586  16.911  0.00  0.00    +0.000 C 
ATOM     22  O   UNL     1       7.586   4.632  16.192  0.00  0.00    +0.000 OA
ATOM     23  C   UNL     1       6.682   4.901  18.356  0.00  0.00    +0.000 C 
ATOM     24  C   UNL     1       5.568   4.991  19.096  0.00  0.00    +0.000 C 
BRANCH  18  25
ATOM     25  O   UNL     1       3.528   3.864  19.343  0.00  0.00    +0.000 OA
ATOM     26  H   UNL     1       3.030   3.301  18.722  0.00  0.00    +0.000 HD
ENDBRANCH  18  25
ENDBRANCH  10  18
TORSDOF 2
ENDMDL
MODEL 8
REMARK VINA RESULT:      -7.6      5.162      7.969
REMARK  Name = 
REMARK  2 active torsions:
REMARK  status: ('A' for Active; 'I' for Inactive)
REMARK    1  A    between atoms: C_10  and  C_11
REMARK    2  A    between atoms: C_11  and  O_12
REMARK                            x       y       z     vdW  Elec       q    Type
REMARK                         _______ _______ _______ _____ _____    ______ ____
ROOT
ATOM      1  N   UNL     1      -0.408   9.253  23.045  0.00  0.00    +0.000 N 
ATOM      2  C   UNL     1       0.216   9.160  21.818  0.00  0.00    +0.000 A 
ATOM      3  N   UNL     1       0.185  10.229  21.036  0.00  0.00    +0.000 NA
ATOM      4  C   UNL     1       0.829  10.115  19.888  0.00  0.00    +0.000 A 
ATOM      5  N   UNL     1       0.830  11.204  19.045  0.00  0.00    +0.000 N 
ATOM      6  N   UNL     1       1.464   9.031  19.483  0.00  0.00    +0.000 NA
ATOM      7  C   UNL     1       1.448   8.009  20.350  0.00  0.00    +0.000 A 
ATOM      8  N   UNL     1       2.178   6.842  19.978  0.00  0.00    +0.000 N 
ATOM      9  C   UNL     1       2.922   6.673  18.833  0.00  0.00    +0.000 A 
ATOM     10  C   UNL     1       3.544   5.451  18.984  0.00  0.00    +0.000 A 
ATOM     11  N   UNL     1       3.108   4.878  20.153  0.00  0.00    +0.000 NA
ATOM     12  N   UNL     1       2.277   5.727  20.748  0.00  0.00    +0.000 NA
ATOM     13  N   UNL     1       0.837   8.029  21.536  0.00  0.00    +0.000 NA
ATOM     14  H   UNL     1      -0.478  10.219  23.334  0.00  0.00    +0.000 HD
ATOM     15  H   UNL     1       0.010   8.606  23.701  0.00  0.00    +0.000 HD
ATOM     16  H   UNL     1       0.041  11.807  19.232  0.00  0.00    +0.000 HD
ATOM     17  H   UNL     1       0.988  10.933  18.084  0.00  0.00    +0.000 HD
ENDROOT
BRANCH  10  18
ATOM     18  C   UNL     1       4.558   4.774  18.099  0.00  0.00    +0.000 C 
ATOM     19  C   UNL     1       4.574   5.399  16.728  0.00  0.00    +0.000 C 
ATOM     20  C   UNL     1       5.601   6.108  16.235  0.00  0.00    +0.000 C 
ATOM     21  C   UNL     1       6.828   6.315  17.040  0.00  0.00    +0.000 C 
ATOM     22  O   UNL     1       7.706   7.085  16.677  0.00  0.00    +0.000 OA
ATOM     23  C   UNL     1       6.951   5.542  18.297  0.00  0.00    +0.000 C 
ATOM     24  C   UNL     1       5.919   4.819  18.754  0.00  0.00    +0.000 C 
BRANCH  18  25
ATOM     25  O   UNL     1       4.264   3.393  17.908  0.00  0.00    +0.000 OA
ATOM     26  H   UNL     1       4.675   2.926  18.658  0.00  0.00    +0.000 HD
ENDBRANCH  18  25
ENDBRANCH  10  18
TORSDOF 2
ENDMDL
MODEL 9
REMARK VINA RESULT:      -7.5      1.385      2.293
REMARK  Name = 
REMARK  2 active torsions:
REMARK  status: ('A' for Active; 'I' for Inactive)
REMARK    1  A    between atoms: C_10  and  C_11
REMARK    2  A    between atoms: C_11  and  O_12
REMARK                            x       y       z     vdW  Elec       q    Type
REMARK                         _______ _______ _______ _____ _____    ______ ____
ROOT
ATOM      1  N   UNL     1       8.766   5.903  13.485  0.00  0.00    +0.000 N 
ATOM      2  C   UNL     1       7.602   5.170  13.592  0.00  0.00    +0.000 A 
ATOM      3  N   UNL     1       7.370   4.254  12.665  0.00  0.00    +0.000 NA
ATOM      4  C   UNL     1       6.267   3.544  12.826  0.00  0.00    +0.000 A 
ATOM      5  N   UNL     1       5.989   2.574  11.889  0.00  0.00    +0.000 N 
ATOM      6  N   UNL     1       5.405   3.703  13.813  0.00  0.00    +0.000 NA
ATOM      7  C   UNL     1       5.735   4.646  14.706  0.00  0.00    +0.000 A 
ATOM      8  N   UNL     1       4.863   4.803  15.824  0.00  0.00    +0.000 N 
ATOM      9  C   UNL     1       3.735   4.062  16.091  0.00  0.00    +0.000 A 
ATOM     10  C   UNL     1       3.312   4.486  17.334  0.00  0.00    +0.000 A 
ATOM     11  N   UNL     1       4.125   5.512  17.748  0.00  0.00    +0.000 NA
ATOM     12  N   UNL     1       5.061   5.701  16.824  0.00  0.00    +0.000 NA
ATOM     13  N   UNL     1       6.830   5.406  14.638  0.00  0.00    +0.000 NA
ATOM     14  H   UNL     1       9.452   5.399  12.940  0.00  0.00    +0.000 HD
ATOM     15  H   UNL     1       9.056   6.237  14.394  0.00  0.00    +0.000 HD
ATOM     16  H   UNL     1       6.449   2.775  11.012  0.00  0.00    +0.000 HD
ATOM     17  H   UNL     1       5.002   2.359  11.855  0.00  0.00    +0.000 HD
ENDROOT
BRANCH  10  18
ATOM     18  C   UNL     1       2.185   3.972  18.191  0.00  0.00    +0.000 C 
ATOM     19  C   UNL     1       2.347   2.497  18.459  0.00  0.00    +0.000 C 
ATOM     20  C   UNL     1       2.617   1.977  19.667  0.00  0.00    +0.000 C 
ATOM     21  C   UNL     1       2.768   2.856  20.849  0.00  0.00    +0.000 C 
ATOM     22  O   UNL     1       3.168   2.422  21.920  0.00  0.00    +0.000 OA
ATOM     23  C   UNL     1       2.403   4.282  20.684  0.00  0.00    +0.000 C 
ATOM     24  C   UNL     1       2.110   4.772  19.471  0.00  0.00    +0.000 C 
BRANCH  18  25
ATOM     25  O   UNL     1       0.918   4.128  17.560  0.00  0.00    +0.000 OA
ATOM     26  H   UNL     1       0.966   3.614  16.733  0.00  0.00    +0.000 HD
ENDBRANCH  18  25
ENDBRANCH  10  18
TORSDOF 2
ENDMDL
