MODEL 1
REMARK VINA RESULT:      -8.1      0.000      0.000
REMARK  Name = 
REMARK  10 active torsions:
REMARK  status: ('A' for Active; 'I' for Inactive)
REMARK    1  A    between atoms: C_1  and  O_2
REMARK    2  A    between atoms: O_2  and  C_3
REMARK    3  A    between atoms: C_6  and  C_7
REMARK    4  A    between atoms: N_8  and  N_9
REMARK    5  A    between atoms: N_9  and  C_10
REMARK    6  A    between atoms: C_15  and  C_16
REMARK    7  A    between atoms: C_16  and  O_18
REMARK    8  A    between atoms: C_20  and  C_21
REMARK    9  A    between atoms: C_21  and  N_22
REMARK   10  A    between atoms: C_24  and  N_25
REMARK                            x       y       z     vdW  Elec       q    Type
REMARK                         _______ _______ _______ _____ _____    ______ ____
ROOT
ATOM      1  C   UNL     1       3.665   4.004  17.740  0.00  0.00    +0.000 A 
ATOM      2  C   UNL     1       2.325   4.271  18.047  0.00  0.00    +0.000 A 
ATOM      3  C   UNL     1       1.861   5.574  18.155  0.00  0.00    +0.000 A 
ATOM      4  C   UNL     1       2.724   6.642  17.931  0.00  0.00    +0.000 A 
ATOM      5  C   UNL     1       4.045   6.396  17.535  0.00  0.00    +0.000 A 
ATOM      6  C   UNL     1       4.533   5.069  17.415  0.00  0.00    +0.000 A 
ENDROOT
BRANCH   1   8
ATOM      7  C   UNL     1       3.331   1.790  18.486  0.00  0.00    +0.000 C 
ATOM      8  O   UNL     1       4.163   2.721  17.774  0.00  0.00    +0.000 OA
ENDBRANCH   1   8
BRANCH   4   9
ATOM      9  C   UNL     1       2.217   8.018  18.153  0.00  0.00    +0.000 C 
ATOM     10  N   UNL     1       1.764   8.348  19.321  0.00  0.00    +0.000 NA
BRANCH  10  11
ATOM     11  N   UNL     1       1.311   9.613  19.486  0.00  0.00    +0.000 N 
ATOM     12  H   UNL     1       1.100  10.218  18.684  0.00  0.00    +0.000 HD
BRANCH  11  13
ATOM     13  C   UNL     1       0.572   9.886  20.666  0.00  0.00    +0.000 A 
ATOM     14  C   UNL     1       0.678   9.018  21.773  0.00  0.00    +0.000 A 
ATOM     15  C   UNL     1      -0.017   9.250  22.963  0.00  0.00    +0.000 A 
ATOM     16  C   UNL     1      -0.814  10.380  23.091  0.00  0.00    +0.000 A 
ATOM     17  C   UNL     1      -0.919  11.272  22.026  0.00  0.00    +0.000 A 
ATOM     18  C   UNL     1      -0.261  11.017  20.804  0.00  0.00    +0.000 A 
BRANCH  18  19
ATOM     19  C   UNL     1      -0.452  11.950  19.664  0.00  0.00    +0.000 C 
ATOM     20  O   UNL     1      -1.545  12.206  19.185  0.00  0.00    +0.000 OA
BRANCH  19  21
ATOM     21  O   UNL     1       0.683  12.547  19.239  0.00  0.00    +0.000 OA
ATOM     22  H   UNL     1       0.551  13.365  18.723  0.00  0.00    +0.000 HD
ENDBRANCH  19  21
ENDBRANCH  18  19
ENDBRANCH  11  13
ENDBRANCH  10  11
ENDBRANCH   4   9
BRANCH   6  23
ATOM     23  C   UNL     1       5.981   4.868  17.023  0.00  0.00    +0.000 C 
BRANCH  23  24
ATOM     24  N   UNL     1       6.228   4.863  15.578  0.00  0.00    +0.000 N 
ATOM     25  C   UNL     1       5.495   4.189  14.637  0.00  0.00    +0.000 A 
ATOM     26  C   UNL     1       6.297   4.099  13.515  0.00  0.00    +0.000 A 
ATOM     27  C   UNL     1       7.461   4.814  13.841  0.00  0.00    +0.000 A 
ATOM     28  N   UNL     1       7.427   5.291  15.100  0.00  0.00    +0.000 NA
BRANCH  26  29
ATOM     29  N   UNL     1       6.022   3.385  12.308  0.00  0.00    +0.000 N 
ATOM     30  O   UNL     1       6.994   2.918  11.699  0.00  0.00    +0.000 OA
ATOM     31  O   UNL     1       4.842   3.318  11.958  0.00  0.00    +0.000 OA
ENDBRANCH  26  29
ENDBRANCH  23  24
ENDBRANCH   6  23
TORSDOF 9
ENDMDL
MODEL 2
REMARK VINA RESULT:      -8.0      2.062      2.652
REMARK  Name = 
REMARK  10 active torsions:
REMARK  status: ('A' for Active; 'I' for Inactive)
REMARK    1  A    between atoms: C_1  and  O_2
REMARK    2  A    between atoms: O_2  and  C_3
REMARK    3  A    between atoms: C_6  and  C_7
REMARK    4  A    between atoms: N_8  and  N_9
REMARK    5  A    between atoms: N_9  and  C_10
REMARK    6  A    between atoms: C_15  and  C_16
REMARK    7  A    between atoms: C_16  and  O_18
REMARK    8  A    between atoms: C_20  and  C_21
REMARK    9  A    between atoms: C_21  and  N_22
REMARK   10  A    between atoms: C_24  and  N_25
REMARK                            x       y       z     vdW  Elec       q    Type
REMARK                         _______ _______ _______ _____ _____    ______ ____
ROOT
ATOM      1  C   UNL     1       2.721   3.834  19.568  0.00  0.00    +0.000 A 
ATOM      2  C   UNL     1       2.094   4.607  20.554  0.00  0.00    +0.000 A 
ATOM      3  C   UNL     1       1.885   5.967  20.373  0.00  0.00    +0.000 A 
ATOM      4  C   UNL     1       2.278   6.580  19.186  0.00  0.00    +0.000 A 
ATOM      5  C   UNL     1       2.824   5.807  18.154  0.00  0.00    +0.000 A 
ATOM      6  C   UNL     1       3.039   4.416  18.322  0.00  0.00    +0.000 A 
ENDROOT
BRANCH   1   8
ATOM      7  C   UNL     1       4.386   2.343  20.328  0.00  0.00    +0.000 C 
ATOM      8  O   UNL     1       3.060   2.520  19.800  0.00  0.00    +0.000 OA
ENDBRANCH   1   8
BRANCH   4   9
ATOM      9  C   UNL     1       2.129   8.051  19.070  0.00  0.00    +0.000 C 
ATOM     10  N   UNL     1       1.592   8.553  18.002  0.00  0.00    +0.000 NA
BRANCH  10  11
ATOM     11  N   UNL     1       1.472   9.900  17.933  0.00  0.00    +0.000 N 
ATOM     12  H   UNL     1       2.036  10.458  17.282  0.00  0.00    +0.000 HD
BRANCH  11  13
ATOM     13  C   UNL     1       0.211  10.453  18.276  0.00  0.00    +0.000 A 
ATOM     14  C   UNL     1      -0.953   9.996  17.624  0.00  0.00    +0.000 A 
ATOM     15  C   UNL     1      -2.220  10.498  17.936  0.00  0.00    +0.000 A 
ATOM     16  C   UNL     1      -2.361  11.450  18.937  0.00  0.00    +0.000 A 
ATOM     17  C   UNL     1      -1.234  11.903  19.619  0.00  0.00    +0.000 A 
ATOM     18  C   UNL     1       0.054  11.438  19.274  0.00  0.00    +0.000 A 
BRANCH  18  19
ATOM     19  C   UNL     1       1.241  11.996  19.971  0.00  0.00    +0.000 C 
ATOM     20  O   UNL     1       1.438  11.864  21.168  0.00  0.00    +0.000 OA
BRANCH  19  21
ATOM     21  O   UNL     1       2.125  12.611  19.155  0.00  0.00    +0.000 OA
ATOM     22  H   UNL     1       2.127  13.585  19.208  0.00  0.00    +0.000 HD
ENDBRANCH  19  21
ENDBRANCH  18  19
ENDBRANCH  11  13
ENDBRANCH  10  11
ENDBRANCH   4   9
BRANCH   6  23
ATOM     23  C   UNL     1       3.671   3.642  17.184  0.00  0.00    +0.000 C 
BRANCH  23  24
ATOM     24  N   UNL     1       4.873   4.263  16.617  0.00  0.00    +0.000 N 
ATOM     25  C   UNL     1       5.089   4.539  15.292  0.00  0.00    +0.000 A 
ATOM     26  C   UNL     1       6.455   4.698  15.150  0.00  0.00    +0.000 A 
ATOM     27  C   UNL     1       6.973   4.581  16.450  0.00  0.00    +0.000 A 
ATOM     28  N   UNL     1       6.012   4.320  17.356  0.00  0.00    +0.000 NA
BRANCH  26  29
ATOM     29  N   UNL     1       7.183   4.884  13.935  0.00  0.00    +0.000 N 
ATOM     30  O   UNL     1       6.814   4.225  12.954  0.00  0.00    +0.000 OA
ATOM     31  O   UNL     1       8.138   5.662  13.972  0.00  0.00    +0.000 OA
ENDBRANCH  26  29
ENDBRANCH  23  24
ENDBRANCH   6  23
TORSDOF 9
ENDMDL
MODEL 3
REMARK VINA RESULT:      -8.0      2.200      2.987
REMARK  Name = 
REMARK  10 active torsions:
REMARK  status: ('A' for Active; 'I' for Inactive)
REMARK    1  A    between atoms: C_1  and  O_2
REMARK    2  A    between atoms: O_2  and  C_3
REMARK    3  A    between atoms: C_6  and  C_7
REMARK    4  A    between atoms: N_8  and  N_9
REMARK    5  A    between atoms: N_9  and  C_10
REMARK    6  A    between atoms: C_15  and  C_16
REMARK    7  A    between atoms: C_16  and  O_18
REMARK    8  A    between atoms: C_20  and  C_21
REMARK    9  A    between atoms: C_21  and  N_22
REMARK   10  A    between atoms: C_24  and  N_25
REMARK                            x       y       z     vdW  Elec       q    Type
REMARK                         _______ _______ _______ _____ _____    ______ ____
ROOT
ATOM      1  C   UNL     1       2.712   4.046  20.581  0.00  0.00    +0.000 A 
ATOM      2  C   UNL     1       1.681   4.897  20.997  0.00  0.00    +0.000 A 
ATOM      3  C   UNL     1       1.535   6.166  20.454  0.00  0.00    +0.000 A 
ATOM      4  C   UNL     1       2.406   6.602  19.460  0.00  0.00    +0.000 A 
ATOM      5  C   UNL     1       3.387   5.733  18.966  0.00  0.00    +0.000 A 
ATOM      6  C   UNL     1       3.546   4.431  19.508  0.00  0.00    +0.000 A 
ENDROOT
BRANCH   1   8
ATOM      7  C   UNL     1       1.785   2.274  21.833  0.00  0.00    +0.000 C 
ATOM      8  O   UNL     1       2.949   2.848  21.216  0.00  0.00    +0.000 OA
ENDBRANCH   1   8
BRANCH   4   9
ATOM      9  C   UNL     1       2.281   7.998  18.975  0.00  0.00    +0.000 C 
ATOM     10  N   UNL     1       1.380   8.772  19.493  0.00  0.00    +0.000 NA
BRANCH  10  11
ATOM     11  N   UNL     1       1.297  10.041  19.026  0.00  0.00    +0.000 N 
ATOM     12  H   UNL     1       1.975  10.410  18.349  0.00  0.00    +0.000 HD
BRANCH  11  13
ATOM     13  C   UNL     1       0.006  10.628  18.979  0.00  0.00    +0.000 A 
ATOM     14  C   UNL     1      -0.871  10.304  17.923  0.00  0.00    +0.000 A 
ATOM     15  C   UNL     1      -2.157  10.843  17.840  0.00  0.00    +0.000 A 
ATOM     16  C   UNL     1      -2.616  11.699  18.833  0.00  0.00    +0.000 A 
ATOM     17  C   UNL     1      -1.784  12.019  19.904  0.00  0.00    +0.000 A 
ATOM     18  C   UNL     1      -0.466  11.518  19.968  0.00  0.00    +0.000 A 
BRANCH  18  19
ATOM     19  C   UNL     1       0.420  11.937  21.084  0.00  0.00    +0.000 C 
ATOM     20  O   UNL     1       1.592  12.239  20.931  0.00  0.00    +0.000 OA
BRANCH  19  21
ATOM     21  O   UNL     1      -0.199  12.018  22.283  0.00  0.00    +0.000 OA
ATOM     22  H   UNL     1       0.306  11.654  23.034  0.00  0.00    +0.000 HD
ENDBRANCH  19  21
ENDBRANCH  18  19
ENDBRANCH  11  13
ENDBRANCH  10  11
ENDBRANCH   4   9
BRANCH   6  23
ATOM     23  C   UNL     1       4.651   3.554  18.961  0.00  0.00    +0.000 C 
BRANCH  23  24
ATOM     24  N   UNL     1       5.544   4.219  18.007  0.00  0.00    +0.000 N 
ATOM     25  C   UNL     1       5.370   4.282  16.649  0.00  0.00    +0.000 A 
ATOM     26  C   UNL     1       6.607   4.594  16.116  0.00  0.00    +0.000 A 
ATOM     27  C   UNL     1       7.446   4.780  17.227  0.00  0.00    +0.000 A 
ATOM     28  N   UNL     1       6.804   4.557  18.389  0.00  0.00    +0.000 NA
BRANCH  26  29
ATOM     29  N   UNL     1       6.963   4.658  14.735  0.00  0.00    +0.000 N 
ATOM     30  O   UNL     1       6.370   3.889  13.967  0.00  0.00    +0.000 OA
ATOM     31  O   UNL     1       7.854   5.452  14.425  0.00  0.00    +0.000 OA
ENDBRANCH  26  29
ENDBRANCH  23  24
ENDBRANCH   6  23
TORSDOF 9
ENDMDL
MODEL 4
REMARK VINA RESULT:      -8.0      2.100      2.830
REMARK  Name = 
REMARK  10 active torsions:
REMARK  status: ('A' for Active; 'I' for Inactive)
REMARK    1  A    between atoms: C_1  and  O_2
REMARK    2  A    between atoms: O_2  and  C_3
REMARK    3  A    between atoms: C_6  and  C_7
REMARK    4  A    between atoms: N_8  and  N_9
REMARK    5  A    between atoms: N_9  and  C_10
REMARK    6  A    between atoms: C_15  and  C_16
REMARK    7  A    between atoms: C_16  and  O_18
REMARK    8  A    between atoms: C_20  and  C_21
REMARK    9  A    between atoms: C_21  and  N_22
REMARK   10  A    between atoms: C_24  and  N_25
REMARK                            x       y       z     vdW  Elec       q    Type
REMARK                         _______ _______ _______ _____ _____    ______ ____
ROOT
ATOM      1  C   UNL     1       3.287   3.512  19.516  0.00  0.00    +0.000 A 
ATOM      2  C   UNL     1       1.987   3.362  20.014  0.00  0.00    +0.000 A 
ATOM      3  C   UNL     1       1.285   4.445  20.525  0.00  0.00    +0.000 A 
ATOM      4  C   UNL     1       1.863   5.712  20.524  0.00  0.00    +0.000 A 
ATOM      5  C   UNL     1       3.126   5.898  19.949  0.00  0.00    +0.000 A 
ATOM      6  C   UNL     1       3.853   4.802  19.418  0.00  0.00    +0.000 A 
ENDROOT
BRANCH   1   8
ATOM      7  C   UNL     1       3.448   1.635  18.095  0.00  0.00    +0.000 C 
ATOM      8  O   UNL     1       4.039   2.421  19.143  0.00  0.00    +0.000 OA
ENDBRANCH   1   8
BRANCH   4   9
ATOM      9  C   UNL     1       1.123   6.824  21.168  0.00  0.00    +0.000 C 
ATOM     10  N   UNL     1       1.480   8.047  20.931  0.00  0.00    +0.000 NA
BRANCH  10  11
ATOM     11  N   UNL     1       0.780   9.036  21.535  0.00  0.00    +0.000 N 
ATOM     12  H   UNL     1       1.031   9.380  22.469  0.00  0.00    +0.000 HD
BRANCH  11  13
ATOM     13  C   UNL     1       0.132   9.976  20.693  0.00  0.00    +0.000 A 
ATOM     14  C   UNL     1       0.371   9.949  19.303  0.00  0.00    +0.000 A 
ATOM     15  C   UNL     1      -0.253  10.843  18.429  0.00  0.00    +0.000 A 
ATOM     16  C   UNL     1      -1.163  11.769  18.918  0.00  0.00    +0.000 A 
ATOM     17  C   UNL     1      -1.443  11.804  20.283  0.00  0.00    +0.000 A 
ATOM     18  C   UNL     1      -0.778  10.939  21.178  0.00  0.00    +0.000 A 
BRANCH  18  19
ATOM     19  C   UNL     1      -1.045  11.052  22.635  0.00  0.00    +0.000 C 
ATOM     20  O   UNL     1      -0.276  10.642  23.489  0.00  0.00    +0.000 OA
BRANCH  19  21
ATOM     21  O   UNL     1      -2.186  11.706  22.941  0.00  0.00    +0.000 OA
ATOM     22  H   UNL     1      -2.084  12.664  23.095  0.00  0.00    +0.000 HD
ENDBRANCH  19  21
ENDBRANCH  18  19
ENDBRANCH  11  13
ENDBRANCH  10  11
ENDBRANCH   4   9
BRANCH   6  23
ATOM     23  C   UNL     1       5.231   5.061  18.848  0.00  0.00    +0.000 C 
BRANCH  23  24
ATOM     24  N   UNL     1       5.275   5.177  17.386  0.00  0.00    +0.000 N 
ATOM     25  C   UNL     1       6.047   4.424  16.541  0.00  0.00    +0.000 A 
ATOM     26  C   UNL     1       6.116   5.127  15.353  0.00  0.00    +0.000 A 
ATOM     27  C   UNL     1       5.292   6.248  15.545  0.00  0.00    +0.000 A 
ATOM     28  N   UNL     1       4.768   6.285  16.785  0.00  0.00    +0.000 NA
BRANCH  26  29
ATOM     29  N   UNL     1       6.900   4.809  14.202  0.00  0.00    +0.000 N 
ATOM     30  O   UNL     1       6.528   3.846  13.519  0.00  0.00    +0.000 OA
ATOM     31  O   UNL     1       7.901   5.501  14.002  0.00  0.00    +0.000 OA
ENDBRANCH  26  29
ENDBRANCH  23  24
ENDBRANCH   6  23
TORSDOF 9
ENDMDL
MODEL 5
REMARK VINA RESULT:      -7.9      1.589      2.041
REMARK  Name = 
REMARK  10 active torsions:
REMARK  status: ('A' for Active; 'I' for Inactive)
REMARK    1  A    between atoms: C_1  and  O_2
REMARK    2  A    between atoms: O_2  and  C_3
REMARK    3  A    between atoms: C_6  and  C_7
REMARK    4  A    between atoms: N_8  and  N_9
REMARK    5  A    between atoms: N_9  and  C_10
REMARK    6  A    between atoms: C_15  and  C_16
REMARK    7  A    between atoms: C_16  and  O_18
REMARK    8  A    between atoms: C_20  and  C_21
REMARK    9  A    between atoms: C_21  and  N_22
REMARK   10  A    between atoms: C_24  and  N_25
REMARK                            x       y       z     vdW  Elec       q    Type
REMARK                         _______ _______ _______ _____ _____    ______ ____
ROOT
ATOM      1  C   UNL     1       3.575   4.296  18.270  0.00  0.00    +0.000 A 
ATOM      2  C   UNL     1       2.256   4.754  18.389  0.00  0.00    +0.000 A 
ATOM      3  C   UNL     1       1.941   6.091  18.191  0.00  0.00    +0.000 A 
ATOM      4  C   UNL     1       2.938   6.997  17.843  0.00  0.00    +0.000 A 
ATOM      5  C   UNL     1       4.246   6.543  17.631  0.00  0.00    +0.000 A 
ATOM      6  C   UNL     1       4.583   5.179  17.825  0.00  0.00    +0.000 A 
ENDROOT
BRANCH   1   8
ATOM      7  C   UNL     1       3.955   2.761  20.022  0.00  0.00    +0.000 C 
ATOM      8  O   UNL     1       3.916   3.005  18.606  0.00  0.00    +0.000 OA
ENDBRANCH   1   8
BRANCH   4   9
ATOM      9  C   UNL     1       2.580   8.432  17.738  0.00  0.00    +0.000 C 
ATOM     10  N   UNL     1       1.547   8.879  18.381  0.00  0.00    +0.000 NA
BRANCH  10  11
ATOM     11  N   UNL     1       1.253  10.196  18.261  0.00  0.00    +0.000 N 
ATOM     12  H   UNL     1       1.267  10.670  17.351  0.00  0.00    +0.000 HD
BRANCH  11  13
ATOM     13  C   UNL     1       0.371  10.750  19.224  0.00  0.00    +0.000 A 
ATOM     14  C   UNL     1       0.816  10.950  20.547  0.00  0.00    +0.000 A 
ATOM     15  C   UNL     1      -0.009  11.506  21.528  0.00  0.00    +0.000 A 
ATOM     16  C   UNL     1      -1.296  11.910  21.203  0.00  0.00    +0.000 A 
ATOM     17  C   UNL     1      -1.759  11.752  19.899  0.00  0.00    +0.000 A 
ATOM     18  C   UNL     1      -0.949  11.144  18.915  0.00  0.00    +0.000 A 
BRANCH  18  19
ATOM     19  C   UNL     1      -1.498  10.923  17.553  0.00  0.00    +0.000 C 
ATOM     20  O   UNL     1      -1.644   9.816  17.062  0.00  0.00    +0.000 OA
BRANCH  19  21
ATOM     21  O   UNL     1      -1.886  12.053  16.921  0.00  0.00    +0.000 OA
ATOM     22  H   UNL     1      -2.231  12.755  17.505  0.00  0.00    +0.000 HD
ENDBRANCH  19  21
ENDBRANCH  18  19
ENDBRANCH  11  13
ENDBRANCH  10  11
ENDBRANCH   4   9
BRANCH   6  23
ATOM     23  C   UNL     1       6.022   4.757  17.621  0.00  0.00    +0.000 C 
BRANCH  23  24
ATOM     24  N   UNL     1       6.371   4.424  16.236  0.00  0.00    +0.000 N 
ATOM     25  C   UNL     1       7.395   4.972  15.508  0.00  0.00    +0.000 A 
ATOM     26  C   UNL     1       7.103   4.718  14.181  0.00  0.00    +0.000 A 
ATOM     27  C   UNL     1       5.932   3.944  14.208  0.00  0.00    +0.000 A 
ATOM     28  N   UNL     1       5.479   3.753  15.461  0.00  0.00    +0.000 NA
BRANCH  26  29
ATOM     29  N   UNL     1       7.810   5.190  13.033  0.00  0.00    +0.000 N 
ATOM     30  O   UNL     1       7.467   4.730  11.935  0.00  0.00    +0.000 OA
ATOM     31  O   UNL     1       8.723   5.993  13.234  0.00  0.00    +0.000 OA
ENDBRANCH  26  29
ENDBRANCH  23  24
ENDBRANCH   6  23
TORSDOF 9
ENDMDL
MODEL 6
REMARK VINA RESULT:      -7.9      1.737      2.161
REMARK  Name = 
REMARK  10 active torsions:
REMARK  status: ('A' for Active; 'I' for Inactive)
REMARK    1  A    between atoms: C_1  and  O_2
REMARK    2  A    between atoms: O_2  and  C_3
REMARK    3  A    between atoms: C_6  and  C_7
REMARK    4  A    between atoms: N_8  and  N_9
REMARK    5  A    between atoms: N_9  and  C_10
REMARK    6  A    between atoms: C_15  and  C_16
REMARK    7  A    between atoms: C_16  and  O_18
REMARK    8  A    between atoms: C_20  and  C_21
REMARK    9  A    between atoms: C_21  and  N_22
REMARK   10  A    between atoms: C_24  and  N_25
REMARK                            x       y       z     vdW  Elec       q    Type
REMARK                         _______ _______ _______ _____ _____    ______ ____
ROOT
ATOM      1  C   UNL     1       3.711   4.495  17.975  0.00  0.00    +0.000 A 
ATOM      2  C   UNL     1       2.401   4.875  18.294  0.00  0.00    +0.000 A 
ATOM      3  C   UNL     1       2.015   6.208  18.268  0.00  0.00    +0.000 A 
ATOM      4  C   UNL     1       2.928   7.191  17.896  0.00  0.00    +0.000 A 
ATOM      5  C   UNL     1       4.216   6.822  17.487  0.00  0.00    +0.000 A 
ATOM      6  C   UNL     1       4.624   5.464  17.504  0.00  0.00    +0.000 A 
ENDROOT
BRANCH   1   8
ATOM      7  C   UNL     1       3.115   2.213  17.908  0.00  0.00    +0.000 C 
ATOM      8  O   UNL     1       4.137   3.197  18.139  0.00  0.00    +0.000 OA
ENDBRANCH   1   8
BRANCH   4   9
ATOM      9  C   UNL     1       2.507   8.610  17.976  0.00  0.00    +0.000 C 
ATOM     10  N   UNL     1       1.248   8.906  17.904  0.00  0.00    +0.000 NA
BRANCH  10  11
ATOM     11  N   UNL     1       0.902  10.213  17.983  0.00  0.00    +0.000 N 
ATOM     12  H   UNL     1       1.497  10.951  17.589  0.00  0.00    +0.000 HD
BRANCH  11  13
ATOM     13  C   UNL     1      -0.483  10.512  18.041  0.00  0.00    +0.000 A 
ATOM     14  C   UNL     1      -1.396   9.747  17.285  0.00  0.00    +0.000 A 
ATOM     15  C   UNL     1      -2.771   9.991  17.320  0.00  0.00    +0.000 A 
ATOM     16  C   UNL     1      -3.277  10.989  18.141  0.00  0.00    +0.000 A 
ATOM     17  C   UNL     1      -2.406  11.746  18.922  0.00  0.00    +0.000 A 
ATOM     18  C   UNL     1      -1.011  11.539  18.853  0.00  0.00    +0.000 A 
BRANCH  18  19
ATOM     19  C   UNL     1      -0.104  12.411  19.642  0.00  0.00    +0.000 C 
ATOM     20  O   UNL     1      -0.164  12.515  20.857  0.00  0.00    +0.000 OA
BRANCH  19  21
ATOM     21  O   UNL     1       0.841  13.037  18.908  0.00  0.00    +0.000 OA
ATOM     22  H   UNL     1       0.993  12.659  18.022  0.00  0.00    +0.000 HD
ENDBRANCH  19  21
ENDBRANCH  18  19
ENDBRANCH  11  13
ENDBRANCH  10  11
ENDBRANCH   4   9
BRANCH   6  23
ATOM     23  C   UNL     1       6.042   5.133  17.090  0.00  0.00    +0.000 C 
BRANCH  23  24
ATOM     24  N   UNL     1       6.252   5.048  15.641  0.00  0.00    +0.000 N 
ATOM     25  C   UNL     1       5.476   4.350  14.753  0.00  0.00    +0.000 A 
ATOM     26  C   UNL     1       6.247   4.180  13.619  0.00  0.00    +0.000 A 
ATOM     27  C   UNL     1       7.438   4.876  13.880  0.00  0.00    +0.000 A 
ATOM     28  N   UNL     1       7.449   5.415  15.113  0.00  0.00    +0.000 NA
BRANCH  26  29
ATOM     29  N   UNL     1       5.921   3.415  12.457  0.00  0.00    +0.000 N 
ATOM     30  O   UNL     1       6.864   2.899  11.842  0.00  0.00    +0.000 OA
ATOM     31  O   UNL     1       4.730   3.357  12.145  0.00  0.00    +0.000 OA
ENDBRANCH  26  29
ENDBRANCH  23  24
ENDBRANCH   6  23
TORSDOF 9
ENDMDL
MODEL 7
REMARK VINA RESULT:      -7.9      0.988      1.326
REMARK  Name = 
REMARK  10 active torsions:
REMARK  status: ('A' for Active; 'I' for Inactive)
REMARK    1  A    between atoms: C_1  and  O_2
REMARK    2  A    between atoms: O_2  and  C_3
REMARK    3  A    between atoms: C_6  and  C_7
REMARK    4  A    between atoms: N_8  and  N_9
REMARK    5  A    between atoms: N_9  and  C_10
REMARK    6  A    between atoms: C_15  and  C_16
REMARK    7  A    between atoms: C_16  and  O_18
REMARK    8  A    between atoms: C_20  and  C_21
REMARK    9  A    between atoms: C_21  and  N_22
REMARK   10  A    between atoms: C_24  and  N_25
REMARK                            x       y       z     vdW  Elec       q    Type
REMARK                         _______ _______ _______ _____ _____    ______ ____
ROOT
ATOM      1  C   UNL     1       3.696   4.075  18.016  0.00  0.00    +0.000 A 
ATOM      2  C   UNL     1       2.399   4.492  18.344  0.00  0.00    +0.000 A 
ATOM      3  C   UNL     1       2.054   5.836  18.333  0.00  0.00    +0.000 A 
ATOM      4  C   UNL     1       2.996   6.794  17.968  0.00  0.00    +0.000 A 
ATOM      5  C   UNL     1       4.271   6.390  17.551  0.00  0.00    +0.000 A 
ATOM      6  C   UNL     1       4.637   5.020  17.551  0.00  0.00    +0.000 A 
ENDROOT
BRANCH   1   8
ATOM      7  C   UNL     1       3.021   1.883  18.571  0.00  0.00    +0.000 C 
ATOM      8  O   UNL     1       4.083   2.762  18.165  0.00  0.00    +0.000 OA
ENDBRANCH   1   8
BRANCH   4   9
ATOM      9  C   UNL     1       2.620   8.225  18.065  0.00  0.00    +0.000 C 
ATOM     10  N   UNL     1       1.396   8.578  17.828  0.00  0.00    +0.000 NA
BRANCH  10  11
ATOM     11  N   UNL     1       1.090   9.893  17.928  0.00  0.00    +0.000 N 
ATOM     12  H   UNL     1       0.905  10.468  17.098  0.00  0.00    +0.000 HD
BRANCH  11  13
ATOM     13  C   UNL     1       0.444  10.317  19.118  0.00  0.00    +0.000 A 
ATOM     14  C   UNL     1       0.969   9.937  20.371  0.00  0.00    +0.000 A 
ATOM     15  C   UNL     1       0.379  10.341  21.572  0.00  0.00    +0.000 A 
ATOM     16  C   UNL     1      -0.736  11.167  21.553  0.00  0.00    +0.000 A 
ATOM     17  C   UNL     1      -1.264  11.583  20.333  0.00  0.00    +0.000 A 
ATOM     18  C   UNL     1      -0.704  11.138  19.116  0.00  0.00    +0.000 A 
BRANCH  18  19
ATOM     19  C   UNL     1      -1.335  11.540  17.832  0.00  0.00    +0.000 C 
ATOM     20  O   UNL     1      -1.985  10.776  17.138  0.00  0.00    +0.000 OA
BRANCH  19  21
ATOM     21  O   UNL     1      -1.184  12.847  17.526  0.00  0.00    +0.000 OA
ATOM     22  H   UNL     1      -1.119  13.446  18.293  0.00  0.00    +0.000 HD
ENDBRANCH  19  21
ENDBRANCH  18  19
ENDBRANCH  11  13
ENDBRANCH  10  11
ENDBRANCH   4   9
BRANCH   6  23
ATOM     23  C   UNL     1       6.042   4.650  17.130  0.00  0.00    +0.000 C 
BRANCH  23  24
ATOM     24  N   UNL     1       6.310   4.800  15.695  0.00  0.00    +0.000 N 
ATOM     25  C   UNL     1       5.706   4.099  14.685  0.00  0.00    +0.000 A 
ATOM     26  C   UNL     1       6.530   4.226  13.582  0.00  0.00    +0.000 A 
ATOM     27  C   UNL     1       7.561   5.084  13.995  0.00  0.00    +0.000 A 
ATOM     28  N   UNL     1       7.433   5.446  15.285  0.00  0.00    +0.000 NA
BRANCH  26  29
ATOM     29  N   UNL     1       6.389   3.578  12.317  0.00  0.00    +0.000 N 
ATOM     30  O   UNL     1       5.371   2.893  12.148  0.00  0.00    +0.000 OA
ATOM     31  O   UNL     1       7.308   3.729  11.509  0.00  0.00    +0.000 OA
ENDBRANCH  26  29
ENDBRANCH  23  24
ENDBRANCH   6  23
TORSDOF 9
ENDMDL
MODEL 8
REMARK VINA RESULT:      -7.8      0.883      1.173
REMARK  Name = 
REMARK  10 active torsions:
REMARK  status: ('A' for Active; 'I' for Inactive)
REMARK    1  A    between atoms: C_1  and  O_2
REMARK    2  A    between atoms: O_2  and  C_3
REMARK    3  A    between atoms: C_6  and  C_7
REMARK    4  A    between atoms: N_8  and  N_9
REMARK    5  A    between atoms: N_9  and  C_10
REMARK    6  A    between atoms: C_15  and  C_16
REMARK    7  A    between atoms: C_16  and  O_18
REMARK    8  A    between atoms: C_20  and  C_21
REMARK    9  A    between atoms: C_21  and  N_22
REMARK   10  A    between atoms: C_24  and  N_25
REMARK                            x       y       z     vdW  Elec       q    Type
REMARK                         _______ _______ _______ _____ _____    ______ ____
ROOT
ATOM      1  C   UNL     1       3.921   4.444  17.822  0.00  0.00    +0.000 A 
ATOM      2  C   UNL     1       2.629   4.831  18.200  0.00  0.00    +0.000 A 
ATOM      3  C   UNL     1       2.243   6.164  18.174  0.00  0.00    +0.000 A 
ATOM      4  C   UNL     1       3.138   7.139  17.743  0.00  0.00    +0.000 A 
ATOM      5  C   UNL     1       4.403   6.762  17.276  0.00  0.00    +0.000 A 
ATOM      6  C   UNL     1       4.810   5.403  17.292  0.00  0.00    +0.000 A 
ENDROOT
BRANCH   1   8
ATOM      7  C   UNL     1       3.622   2.406  18.974  0.00  0.00    +0.000 C 
ATOM      8  O   UNL     1       4.353   3.146  17.983  0.00  0.00    +0.000 OA
ENDBRANCH   1   8
BRANCH   4   9
ATOM      9  C   UNL     1       2.724   8.560  17.823  0.00  0.00    +0.000 C 
ATOM     10  N   UNL     1       1.526   8.852  18.222  0.00  0.00    +0.000 NA
BRANCH  10  11
ATOM     11  N   UNL     1       1.185  10.161  18.284  0.00  0.00    +0.000 N 
ATOM     12  H   UNL     1       0.959  10.699  17.440  0.00  0.00    +0.000 HD
BRANCH  11  13
ATOM     13  C   UNL     1       0.562  10.610  19.478  0.00  0.00    +0.000 A 
ATOM     14  C   UNL     1       0.301   9.693  20.517  0.00  0.00    +0.000 A 
ATOM     15  C   UNL     1      -0.296  10.087  21.717  0.00  0.00    +0.000 A 
ATOM     16  C   UNL     1      -0.618  11.421  21.926  0.00  0.00    +0.000 A 
ATOM     17  C   UNL     1      -0.348  12.358  20.931  0.00  0.00    +0.000 A 
ATOM     18  C   UNL     1       0.208  11.959  19.696  0.00  0.00    +0.000 A 
BRANCH  18  19
ATOM     19  C   UNL     1       0.415  12.970  18.628  0.00  0.00    +0.000 C 
ATOM     20  O   UNL     1       1.489  13.152  18.078  0.00  0.00    +0.000 OA
BRANCH  19  21
ATOM     21  O   UNL     1      -0.705  13.634  18.268  0.00  0.00    +0.000 OA
ATOM     22  H   UNL     1      -1.179  14.071  19.000  0.00  0.00    +0.000 HD
ENDBRANCH  19  21
ENDBRANCH  18  19
ENDBRANCH  11  13
ENDBRANCH  10  11
ENDBRANCH   4   9
BRANCH   6  23
ATOM     23  C   UNL     1       6.206   5.064  16.813  0.00  0.00    +0.000 C 
BRANCH  23  24
ATOM     24  N   UNL     1       6.346   4.969  15.356  0.00  0.00    +0.000 N 
ATOM     25  C   UNL     1       5.573   4.206  14.520  0.00  0.00    +0.000 A 
ATOM     26  C   UNL     1       6.294   4.068  13.349  0.00  0.00    +0.000 A 
ATOM     27  C   UNL     1       7.448   4.845  13.538  0.00  0.00    +0.000 A 
ATOM     28  N   UNL     1       7.487   5.405  14.761  0.00  0.00    +0.000 NA
BRANCH  26  29
ATOM     29  N   UNL     1       5.961   3.264  12.217  0.00  0.00    +0.000 N 
ATOM     30  O   UNL     1       6.882   2.621  11.694  0.00  0.00    +0.000 OA
ATOM     31  O   UNL     1       4.789   3.299  11.835  0.00  0.00    +0.000 OA
ENDBRANCH  26  29
ENDBRANCH  23  24
ENDBRANCH   6  23
TORSDOF 9
ENDMDL
MODEL 9
REMARK VINA RESULT:      -7.8      1.763      2.076
REMARK  Name = 
REMARK  10 active torsions:
REMARK  status: ('A' for Active; 'I' for Inactive)
REMARK    1  A    between atoms: C_1  and  O_2
REMARK    2  A    between atoms: O_2  and  C_3
REMARK    3  A    between atoms: C_6  and  C_7
REMARK    4  A    between atoms: N_8  and  N_9
REMARK    5  A    between atoms: N_9  and  C_10
REMARK    6  A    between atoms: C_15  and  C_16
REMARK    7  A    between atoms: C_16  and  O_18
REMARK    8  A    between atoms: C_20  and  C_21
REMARK    9  A    between atoms: C_21  and  N_22
REMARK   10  A    between atoms: C_24  and  N_25
REMARK                            x       y       z     vdW  Elec       q    Type
REMARK                         _______ _______ _______ _____ _____    ______ ____
ROOT
ATOM      1  C   UNL     1       3.645   4.189  18.624  0.00  0.00    +0.000 A 
ATOM      2  C   UNL     1       2.427   4.771  19.001  0.00  0.00    +0.000 A 
ATOM      3  C   UNL     1       2.153   6.102  18.724  0.00  0.00    +0.000 A 
ATOM      4  C   UNL     1       3.084   6.877  18.038  0.00  0.00    +0.000 A 
ATOM      5  C   UNL     1       4.268   6.290  17.574  0.00  0.00    +0.000 A 
ATOM      6  C   UNL     1       4.560   4.929  17.845  0.00  0.00    +0.000 A 
ENDROOT
BRANCH   1   8
ATOM      7  C   UNL     1       3.499   2.566  20.331  0.00  0.00    +0.000 C 
ATOM      8  O   UNL     1       3.980   2.915  19.023  0.00  0.00    +0.000 OA
ENDBRANCH   1   8
BRANCH   4   9
ATOM      9  C   UNL     1       2.797   8.319  17.848  0.00  0.00    +0.000 C 
ATOM     10  N   UNL     1       1.599   8.763  18.062  0.00  0.00    +0.000 NA
BRANCH  10  11
ATOM     11  N   UNL     1       1.376  10.087  17.879  0.00  0.00    +0.000 N 
ATOM     12  H   UNL     1       1.839  10.612  17.129  0.00  0.00    +0.000 HD
BRANCH  11  13
ATOM     13  C   UNL     1       0.115  10.591  18.288  0.00  0.00    +0.000 A 
ATOM     14  C   UNL     1      -1.061  10.118  17.669  0.00  0.00    +0.000 A 
ATOM     15  C   UNL     1      -2.328  10.571  18.046  0.00  0.00    +0.000 A 
ATOM     16  C   UNL     1      -2.456  11.489  19.079  0.00  0.00    +0.000 A 
ATOM     17  C   UNL     1      -1.317  11.958  19.730  0.00  0.00    +0.000 A 
ATOM     18  C   UNL     1      -0.031  11.542  19.321  0.00  0.00    +0.000 A 
BRANCH  18  19
ATOM     19  C   UNL     1       1.167  12.116  19.987  0.00  0.00    +0.000 C 
ATOM     20  O   UNL     1       2.039  12.723  19.387  0.00  0.00    +0.000 OA
BRANCH  19  21
ATOM     21  O   UNL     1       1.180  11.966  21.329  0.00  0.00    +0.000 OA
ATOM     22  H   UNL     1       0.659  11.213  21.666  0.00  0.00    +0.000 HD
ENDBRANCH  19  21
ENDBRANCH  18  19
ENDBRANCH  11  13
ENDBRANCH  10  11
ENDBRANCH   4   9
BRANCH   6  23
ATOM     23  C   UNL     1       5.875   4.364  17.353  0.00  0.00    +0.000 C 
BRANCH  23  24
ATOM     24  N   UNL     1       6.164   4.628  15.939  0.00  0.00    +0.000 N 
ATOM     25  C   UNL     1       5.593   3.993  14.868  0.00  0.00    +0.000 A 
ATOM     26  C   UNL     1       6.433   4.220  13.794  0.00  0.00    +0.000 A 
ATOM     27  C   UNL     1       7.438   5.066  14.289  0.00  0.00    +0.000 A 
ATOM     28  N   UNL     1       7.279   5.327  15.601  0.00  0.00    +0.000 NA
BRANCH  26  29
ATOM     29  N   UNL     1       6.329   3.667  12.481  0.00  0.00    +0.000 N 
ATOM     30  O   UNL     1       7.238   3.937  11.684  0.00  0.00    +0.000 OA
ATOM     31  O   UNL     1       5.327   2.990  12.240  0.00  0.00    +0.000 OA
ENDBRANCH  26  29
ENDBRANCH  23  24
ENDBRANCH   6  23
TORSDOF 9
ENDMDL
