MODEL 1
REMARK VINA RESULT:      -8.9      0.000      0.000
REMARK  Name = 
REMARK  4 active torsions:
REMARK  status: ('A' for Active; 'I' for Inactive)
REMARK    1  A    between atoms: C_10  and  C_11
REMARK    2  A    between atoms: C_11  and  O_12
REMARK    3  A    between atoms: O_12  and  C_13
REMARK    4  A    between atoms: C_26  and  C_27
REMARK                            x       y       z     vdW  Elec       q    Type
REMARK                         _______ _______ _______ _____ _____    ______ ____
ROOT
ATOM      1  N   UNL     1      -0.235  12.490  18.456  0.00  0.00    +0.000 N 
ATOM      2  C   UNL     1      -0.006  11.437  19.305  0.00  0.00    +0.000 A 
ATOM      3  N   UNL     1       0.766  10.444  18.985  0.00  0.00    +0.000 NA
ATOM      4  C   UNL     1       0.968   9.410  19.888  0.00  0.00    +0.000 A 
ATOM      5  N   UNL     1       1.744   8.351  19.467  0.00  0.00    +0.000 N 
ATOM      6  C   UNL     1       2.344   8.278  18.131  0.00  0.00    +0.000 C 
ATOM      7  C   UNL     1       2.200   6.855  17.544  0.00  0.00    +0.000 C 
ATOM      8  N   UNL     1       2.696   5.792  18.455  0.00  0.00    +0.000 NA
ATOM      9  C   UNL     1       2.528   4.470  17.827  0.00  0.00    +0.000 C 
ATOM     10  C   UNL     1       2.875   3.284  18.752  0.00  0.00    +0.000 C 
ATOM     11  C   UNL     1       2.167   3.431  20.103  0.00  0.00    +0.000 C 
ATOM     12  C   UNL     1       2.410   4.806  20.716  0.00  0.00    +0.000 C 
ATOM     13  C   UNL     1       1.973   5.906  19.747  0.00  0.00    +0.000 C 
ATOM     14  C   UNL     1       2.207   7.303  20.383  0.00  0.00    +0.000 C 
ATOM     15  N   UNL     1       0.445   9.398  21.090  0.00  0.00    +0.000 NA
ATOM     16  C   UNL     1      -0.365  10.423  21.436  0.00  0.00    +0.000 A 
ATOM     17  N   UNL     1      -1.036  10.682  22.541  0.00  0.00    +0.000 NA
ATOM     18  C   UNL     1      -1.731  11.835  22.230  0.00  0.00    +0.000 A 
ATOM     19  N   UNL     1      -1.514  12.315  20.992  0.00  0.00    +0.000 NA
ATOM     20  N   UNL     1      -0.616  11.418  20.549  0.00  0.00    +0.000 N 
ATOM     21  H   UNL     1      -0.017  12.321  17.483  0.00  0.00    +0.000 HD
ATOM     22  H   UNL     1      -1.077  13.034  18.638  0.00  0.00    +0.000 HD
ENDROOT
BRANCH  18  23
ATOM     23  C   UNL     1      -2.660  12.493  23.197  0.00  0.00    +0.000 A 
ATOM     24  C   UNL     1      -2.596  13.813  23.604  0.00  0.00    +0.000 A 
ATOM     25  C   UNL     1      -3.665  14.015  24.512  0.00  0.00    +0.000 A 
ATOM     26  C   UNL     1      -4.306  12.804  24.619  0.00  0.00    +0.000 A 
ATOM     27  O   UNL     1      -3.714  11.880  23.820  0.00  0.00    +0.000 OA
ENDBRANCH  18  23
BRANCH  10  28
ATOM     28  C   UNL     1       4.392   3.100  18.930  0.00  0.00    +0.000 C 
BRANCH  28  29
ATOM     29  O   UNL     1       5.045   3.635  17.776  0.00  0.00    +0.000 OA
BRANCH  29  30
ATOM     30  C   UNL     1       5.986   4.601  17.998  0.00  0.00    +0.000 A 
ATOM     31  C   UNL     1       6.231   5.441  16.909  0.00  0.00    +0.000 A 
ATOM     32  C   UNL     1       7.148   6.488  17.012  0.00  0.00    +0.000 A 
ATOM     33  C   UNL     1       7.817   6.708  18.214  0.00  0.00    +0.000 A 
ATOM     34  C   UNL     1       7.567   5.881  19.309  0.00  0.00    +0.000 A 
ATOM     35  C   UNL     1       6.652   4.827  19.202  0.00  0.00    +0.000 A 
ENDBRANCH  29  30
ENDBRANCH  28  29
ENDBRANCH  10  28
TORSDOF 4
ENDMDL
MODEL 2
REMARK VINA RESULT:      -8.9      1.001      1.377
REMARK  Name = 
REMARK  4 active torsions:
REMARK  status: ('A' for Active; 'I' for Inactive)
REMARK    1  A    between atoms: C_10  and  C_11
REMARK    2  A    between atoms: C_11  and  O_12
REMARK    3  A    between atoms: O_12  and  C_13
REMARK    4  A    between atoms: C_26  and  C_27
REMARK                            x       y       z     vdW  Elec       q    Type
REMARK                         _______ _______ _______ _____ _____    ______ ____
ROOT
ATOM      1  N   UNL     1       0.195  12.685  18.308  0.00  0.00    +0.000 N 
ATOM      2  C   UNL     1       0.405  11.679  19.218  0.00  0.00    +0.000 A 
ATOM      3  N   UNL     1       1.001  10.571  18.902  0.00  0.00    +0.000 NA
ATOM      4  C   UNL     1       1.193   9.593  19.867  0.00  0.00    +0.000 A 
ATOM      5  N   UNL     1       1.772   8.410  19.456  0.00  0.00    +0.000 N 
ATOM      6  C   UNL     1       2.177   8.155  18.070  0.00  0.00    +0.000 C 
ATOM      7  C   UNL     1       1.783   6.722  17.641  0.00  0.00    +0.000 C 
ATOM      8  N   UNL     1       2.263   5.676  18.580  0.00  0.00    +0.000 NA
ATOM      9  C   UNL     1       1.853   4.344  18.105  0.00  0.00    +0.000 C 
ATOM     10  C   UNL     1       2.173   3.198  19.089  0.00  0.00    +0.000 C 
ATOM     11  C   UNL     1       1.673   3.543  20.495  0.00  0.00    +0.000 C 
ATOM     12  C   UNL     1       2.160   4.916  20.943  0.00  0.00    +0.000 C 
ATOM     13  C   UNL     1       1.737   5.986  19.934  0.00  0.00    +0.000 C 
ATOM     14  C   UNL     1       2.221   7.384  20.403  0.00  0.00    +0.000 C 
ATOM     15  N   UNL     1       0.837   9.744  21.118  0.00  0.00    +0.000 NA
ATOM     16  C   UNL     1       0.211  10.890  21.463  0.00  0.00    +0.000 A 
ATOM     17  N   UNL     1      -0.272  11.321  22.612  0.00  0.00    +0.000 NA
ATOM     18  C   UNL     1      -0.856  12.529  22.280  0.00  0.00    +0.000 A 
ATOM     19  N   UNL     1      -0.748  12.879  20.986  0.00  0.00    +0.000 NA
ATOM     20  N   UNL     1      -0.033  11.839  20.523  0.00  0.00    +0.000 N 
ATOM     21  H   UNL     1       0.261  12.413  17.336  0.00  0.00    +0.000 HD
ATOM     22  H   UNL     1      -0.543  13.348  18.539  0.00  0.00    +0.000 HD
ENDROOT
BRANCH  18  23
ATOM     23  C   UNL     1      -1.562  13.378  23.287  0.00  0.00    +0.000 A 
ATOM     24  C   UNL     1      -2.907  13.307  23.600  0.00  0.00    +0.000 A 
ATOM     25  C   UNL     1      -3.147  14.278  24.604  0.00  0.00    +0.000 A 
ATOM     26  C   UNL     1      -1.940  14.896  24.830  0.00  0.00    +0.000 A 
ATOM     27  O   UNL     1      -0.973  14.352  24.048  0.00  0.00    +0.000 OA
ENDBRANCH  18  23
BRANCH  10  28
ATOM     28  C   UNL     1       3.666   2.828  19.097  0.00  0.00    +0.000 C 
BRANCH  28  29
ATOM     29  O   UNL     1       4.218   3.168  17.823  0.00  0.00    +0.000 OA
BRANCH  29  30
ATOM     30  C   UNL     1       5.258   4.055  17.824  0.00  0.00    +0.000 A 
ATOM     31  C   UNL     1       5.585   4.574  19.079  0.00  0.00    +0.000 A 
ATOM     32  C   UNL     1       6.647   5.468  19.223  0.00  0.00    +0.000 A 
ATOM     33  C   UNL     1       7.398   5.838  18.110  0.00  0.00    +0.000 A 
ATOM     34  C   UNL     1       7.085   5.313  16.856  0.00  0.00    +0.000 A 
ATOM     35  C   UNL     1       6.016   4.422  16.712  0.00  0.00    +0.000 A 
ENDBRANCH  29  30
ENDBRANCH  28  29
ENDBRANCH  10  28
TORSDOF 4
ENDMDL
MODEL 3
REMARK VINA RESULT:      -8.7      0.616      1.033
REMARK  Name = 
REMARK  4 active torsions:
REMARK  status: ('A' for Active; 'I' for Inactive)
REMARK    1  A    between atoms: C_10  and  C_11
REMARK    2  A    between atoms: C_11  and  O_12
REMARK    3  A    between atoms: O_12  and  C_13
REMARK    4  A    between atoms: C_26  and  C_27
REMARK                            x       y       z     vdW  Elec       q    Type
REMARK                         _______ _______ _______ _____ _____    ______ ____
ROOT
ATOM      1  N   UNL     1      -0.425  12.887  18.114  0.00  0.00    +0.000 N 
ATOM      2  C   UNL     1      -0.227  11.859  19.001  0.00  0.00    +0.000 A 
ATOM      3  N   UNL     1       0.591  10.882  18.760  0.00  0.00    +0.000 NA
ATOM      4  C   UNL     1       0.757   9.874  19.699  0.00  0.00    +0.000 A 
ATOM      5  N   UNL     1       1.589   8.829  19.358  0.00  0.00    +0.000 N 
ATOM      6  C   UNL     1       2.284   8.744  18.070  0.00  0.00    +0.000 C 
ATOM      7  C   UNL     1       2.221   7.305  17.507  0.00  0.00    +0.000 C 
ATOM      8  N   UNL     1       2.680   6.277  18.475  0.00  0.00    +0.000 NA
ATOM      9  C   UNL     1       2.592   4.937  17.868  0.00  0.00    +0.000 C 
ATOM     10  C   UNL     1       2.905   3.782  18.843  0.00  0.00    +0.000 C 
ATOM     11  C   UNL     1       2.099   3.938  20.136  0.00  0.00    +0.000 C 
ATOM     12  C   UNL     1       2.260   5.332  20.733  0.00  0.00    +0.000 C 
ATOM     13  C   UNL     1       1.864   6.398  19.710  0.00  0.00    +0.000 C 
ATOM     14  C   UNL     1       2.014   7.814  20.328  0.00  0.00    +0.000 C 
ATOM     15  N   UNL     1       0.151   9.873  20.860  0.00  0.00    +0.000 NA
ATOM     16  C   UNL     1      -0.709  10.880  21.125  0.00  0.00    +0.000 A 
ATOM     17  N   UNL     1      -1.464  11.144  22.174  0.00  0.00    +0.000 NA
ATOM     18  C   UNL     1      -2.166  12.270  21.788  0.00  0.00    +0.000 A 
ATOM     19  N   UNL     1      -1.875  12.729  20.557  0.00  0.00    +0.000 NA
ATOM     20  N   UNL     1      -0.924  11.850  20.199  0.00  0.00    +0.000 N 
ATOM     21  H   UNL     1      -0.133  12.704  17.163  0.00  0.00    +0.000 HD
ATOM     22  H   UNL     1      -1.292  13.410  18.223  0.00  0.00    +0.000 HD
ENDROOT
BRANCH  18  23
ATOM     23  C   UNL     1      -3.179  12.921  22.671  0.00  0.00    +0.000 A 
ATOM     24  C   UNL     1      -3.356  14.284  22.825  0.00  0.00    +0.000 A 
ATOM     25  C   UNL     1      -4.422  14.459  23.743  0.00  0.00    +0.000 A 
ATOM     26  C   UNL     1      -4.818  13.195  24.109  0.00  0.00    +0.000 A 
ATOM     27  O   UNL     1      -4.082  12.258  23.459  0.00  0.00    +0.000 OA
ENDBRANCH  18  23
BRANCH  10  28
ATOM     28  C   UNL     1       4.410   3.645  19.130  0.00  0.00    +0.000 C 
BRANCH  28  29
ATOM     29  O   UNL     1       5.124   3.939  17.927  0.00  0.00    +0.000 OA
BRANCH  29  30
ATOM     30  C   UNL     1       6.001   4.985  17.976  0.00  0.00    +0.000 A 
ATOM     31  C   UNL     1       6.850   4.987  19.085  0.00  0.00    +0.000 A 
ATOM     32  C   UNL     1       7.813   5.985  19.241  0.00  0.00    +0.000 A 
ATOM     33  C   UNL     1       7.941   6.982  18.277  0.00  0.00    +0.000 A 
ATOM     34  C   UNL     1       7.106   6.979  17.160  0.00  0.00    +0.000 A 
ATOM     35  C   UNL     1       6.136   5.982  17.009  0.00  0.00    +0.000 A 
ENDBRANCH  29  30
ENDBRANCH  28  29
ENDBRANCH  10  28
TORSDOF 4
ENDMDL
MODEL 4
REMARK VINA RESULT:      -8.2      0.780      1.264
REMARK  Name = 
REMARK  4 active torsions:
REMARK  status: ('A' for Active; 'I' for Inactive)
REMARK    1  A    between atoms: C_10  and  C_11
REMARK    2  A    between atoms: C_11  and  O_12
REMARK    3  A    between atoms: O_12  and  C_13
REMARK    4  A    between atoms: C_26  and  C_27
REMARK                            x       y       z     vdW  Elec       q    Type
REMARK                         _______ _______ _______ _____ _____    ______ ____
ROOT
ATOM      1  N   UNL     1      -0.188  12.328  18.434  0.00  0.00    +0.000 N 
ATOM      2  C   UNL     1       0.015  11.306  19.327  0.00  0.00    +0.000 A 
ATOM      3  N   UNL     1       0.737  10.267  19.041  0.00  0.00    +0.000 NA
ATOM      4  C   UNL     1       0.914   9.269  19.988  0.00  0.00    +0.000 A 
ATOM      5  N   UNL     1       1.637   8.159  19.603  0.00  0.00    +0.000 N 
ATOM      6  C   UNL     1       2.206   7.998  18.262  0.00  0.00    +0.000 C 
ATOM      7  C   UNL     1       1.990   6.557  17.746  0.00  0.00    +0.000 C 
ATOM      8  N   UNL     1       2.460   5.517  18.696  0.00  0.00    +0.000 NA
ATOM      9  C   UNL     1       2.224   4.176  18.136  0.00  0.00    +0.000 C 
ATOM     10  C   UNL     1       2.540   3.020  19.110  0.00  0.00    +0.000 C 
ATOM     11  C   UNL     1       1.866   3.261  20.464  0.00  0.00    +0.000 C 
ATOM     12  C   UNL     1       2.179   4.651  21.007  0.00  0.00    +0.000 C 
ATOM     13  C   UNL     1       1.769   5.722  19.995  0.00  0.00    +0.000 C 
ATOM     14  C   UNL     1       2.074   7.136  20.559  0.00  0.00    +0.000 C 
ATOM     15  N   UNL     1       0.416   9.336  21.198  0.00  0.00    +0.000 NA
ATOM     16  C   UNL     1      -0.343  10.409  21.511  0.00  0.00    +0.000 A 
ATOM     17  N   UNL     1      -0.981  10.748  22.614  0.00  0.00    +0.000 NA
ATOM     18  C   UNL     1      -1.633  11.914  22.261  0.00  0.00    +0.000 A 
ATOM     19  N   UNL     1      -1.421  12.326  20.998  0.00  0.00    +0.000 NA
ATOM     20  N   UNL     1      -0.571  11.372  20.581  0.00  0.00    +0.000 N 
ATOM     21  H   UNL     1       0.004  12.104  17.465  0.00  0.00    +0.000 HD
ATOM     22  H   UNL     1      -1.002  12.915  18.604  0.00  0.00    +0.000 HD
ENDROOT
BRANCH  18  23
ATOM     23  C   UNL     1      -2.513  12.656  23.212  0.00  0.00    +0.000 A 
ATOM     24  C   UNL     1      -2.264  13.915  23.726  0.00  0.00    +0.000 A 
ATOM     25  C   UNL     1      -3.354  14.237  24.573  0.00  0.00    +0.000 A 
ATOM     26  C   UNL     1      -4.193  13.148  24.541  0.00  0.00    +0.000 A 
ATOM     27  O   UNL     1      -3.701  12.193  23.713  0.00  0.00    +0.000 OA
ENDBRANCH  18  23
BRANCH  10  28
ATOM     28  C   UNL     1       4.051   2.780  19.268  0.00  0.00    +0.000 C 
BRANCH  28  29
ATOM     29  O   UNL     1       4.724   4.027  19.079  0.00  0.00    +0.000 OA
BRANCH  29  30
ATOM     30  C   UNL     1       5.451   4.162  17.930  0.00  0.00    +0.000 A 
ATOM     31  C   UNL     1       6.733   4.690  18.106  0.00  0.00    +0.000 A 
ATOM     32  C   UNL     1       7.589   4.853  17.016  0.00  0.00    +0.000 A 
ATOM     33  C   UNL     1       7.171   4.474  15.743  0.00  0.00    +0.000 A 
ATOM     34  C   UNL     1       5.898   3.934  15.562  0.00  0.00    +0.000 A 
ATOM     35  C   UNL     1       5.037   3.778  16.654  0.00  0.00    +0.000 A 
ENDBRANCH  29  30
ENDBRANCH  28  29
ENDBRANCH  10  28
TORSDOF 4
ENDMDL
MODEL 5
REMARK VINA RESULT:      -8.1      1.276      1.345
REMARK  Name = 
REMARK  4 active torsions:
REMARK  status: ('A' for Active; 'I' for Inactive)
REMARK    1  A    between atoms: C_10  and  C_11
REMARK    2  A    between atoms: C_11  and  O_12
REMARK    3  A    between atoms: O_12  and  C_13
REMARK    4  A    between atoms: C_26  and  C_27
REMARK                            x       y       z     vdW  Elec       q    Type
REMARK                         _______ _______ _______ _____ _____    ______ ____
ROOT
ATOM      1  N   UNL     1      -0.591  13.350  17.791  0.00  0.00    +0.000 N 
ATOM      2  C   UNL     1      -0.448  12.360  18.731  0.00  0.00    +0.000 A 
ATOM      3  N   UNL     1       0.375  11.369  18.574  0.00  0.00    +0.000 NA
ATOM      4  C   UNL     1       0.483  10.402  19.563  0.00  0.00    +0.000 A 
ATOM      5  N   UNL     1       1.324   9.338  19.311  0.00  0.00    +0.000 N 
ATOM      6  C   UNL     1       2.084   9.194  18.065  0.00  0.00    +0.000 C 
ATOM      7  C   UNL     1       2.038   7.732  17.562  0.00  0.00    +0.000 C 
ATOM      8  N   UNL     1       2.438   6.744  18.596  0.00  0.00    +0.000 NA
ATOM      9  C   UNL     1       2.372   5.380  18.044  0.00  0.00    +0.000 C 
ATOM     10  C   UNL     1       2.624   4.266  19.082  0.00  0.00    +0.000 C 
ATOM     11  C   UNL     1       1.754   4.483  20.324  0.00  0.00    +0.000 C 
ATOM     12  C   UNL     1       1.895   5.900  20.868  0.00  0.00    +0.000 C 
ATOM     13  C   UNL     1       1.561   6.923  19.781  0.00  0.00    +0.000 C 
ATOM     14  C   UNL     1       1.690   8.364  20.345  0.00  0.00    +0.000 C 
ATOM     15  N   UNL     1      -0.182  10.454  20.690  0.00  0.00    +0.000 NA
ATOM     16  C   UNL     1      -1.046  11.478  20.867  0.00  0.00    +0.000 A 
ATOM     17  N   UNL     1      -1.852  11.790  21.863  0.00  0.00    +0.000 NA
ATOM     18  C   UNL     1      -2.524  12.903  21.392  0.00  0.00    +0.000 A 
ATOM     19  N   UNL     1      -2.166  13.307  20.160  0.00  0.00    +0.000 NA
ATOM     20  N   UNL     1      -1.205  12.407  19.890  0.00  0.00    +0.000 N 
ATOM     21  H   UNL     1      -0.252  13.124  16.865  0.00  0.00    +0.000 HD
ATOM     22  H   UNL     1      -1.458  13.882  17.833  0.00  0.00    +0.000 HD
ENDROOT
BRANCH  18  23
ATOM     23  C   UNL     1      -3.576  13.598  22.193  0.00  0.00    +0.000 A 
ATOM     24  C   UNL     1      -4.885  13.806  21.797  0.00  0.00    +0.000 A 
ATOM     25  C   UNL     1      -5.531  14.490  22.857  0.00  0.00    +0.000 A 
ATOM     26  C   UNL     1      -4.575  14.675  23.827  0.00  0.00    +0.000 A 
ATOM     27  O   UNL     1      -3.394  14.130  23.442  0.00  0.00    +0.000 OA
ENDBRANCH  18  23
BRANCH  10  28
ATOM     28  C   UNL     1       4.111   4.134  19.453  0.00  0.00    +0.000 C 
BRANCH  28  29
ATOM     29  O   UNL     1       4.876   4.139  18.245  0.00  0.00    +0.000 OA
BRANCH  29  30
ATOM     30  C   UNL     1       5.899   5.042  18.173  0.00  0.00    +0.000 A 
ATOM     31  C   UNL     1       5.931   5.797  16.998  0.00  0.00    +0.000 A 
ATOM     32  C   UNL     1       6.909   6.776  16.809  0.00  0.00    +0.000 A 
ATOM     33  C   UNL     1       7.853   7.013  17.805  0.00  0.00    +0.000 A 
ATOM     34  C   UNL     1       7.819   6.271  18.986  0.00  0.00    +0.000 A 
ATOM     35  C   UNL     1       6.843   5.286  19.170  0.00  0.00    +0.000 A 
ENDBRANCH  29  30
ENDBRANCH  28  29
ENDBRANCH  10  28
TORSDOF 4
ENDMDL
MODEL 6
REMARK VINA RESULT:      -8.1      2.646      3.899
REMARK  Name = 
REMARK  4 active torsions:
REMARK  status: ('A' for Active; 'I' for Inactive)
REMARK    1  A    between atoms: C_10  and  C_11
REMARK    2  A    between atoms: C_11  and  O_12
REMARK    3  A    between atoms: O_12  and  C_13
REMARK    4  A    between atoms: C_26  and  C_27
REMARK                            x       y       z     vdW  Elec       q    Type
REMARK                         _______ _______ _______ _____ _____    ______ ____
ROOT
ATOM      1  N   UNL     1      -0.665   9.295  23.427  0.00  0.00    +0.000 N 
ATOM      2  C   UNL     1       0.003   9.491  22.245  0.00  0.00    +0.000 A 
ATOM      3  N   UNL     1       0.513   8.511  21.565  0.00  0.00    +0.000 NA
ATOM      4  C   UNL     1       1.170   8.770  20.370  0.00  0.00    +0.000 A 
ATOM      5  N   UNL     1       1.748   7.697  19.726  0.00  0.00    +0.000 N 
ATOM      6  C   UNL     1       1.699   6.327  20.247  0.00  0.00    +0.000 C 
ATOM      7  C   UNL     1       3.071   5.632  20.087  0.00  0.00    +0.000 C 
ATOM      8  N   UNL     1       3.605   5.700  18.703  0.00  0.00    +0.000 NA
ATOM      9  C   UNL     1       4.908   5.017  18.630  0.00  0.00    +0.000 C 
ATOM     10  C   UNL     1       5.620   5.159  17.268  0.00  0.00    +0.000 C 
ATOM     11  C   UNL     1       5.657   6.628  16.834  0.00  0.00    +0.000 C 
ATOM     12  C   UNL     1       4.273   7.266  16.896  0.00  0.00    +0.000 C 
ATOM     13  C   UNL     1       3.686   7.127  18.302  0.00  0.00    +0.000 C 
ATOM     14  C   UNL     1       2.286   7.794  18.365  0.00  0.00    +0.000 C 
ATOM     15  N   UNL     1       1.272   9.971  19.856  0.00  0.00    +0.000 NA
ATOM     16  C   UNL     1       0.750  11.004  20.555  0.00  0.00    +0.000 A 
ATOM     17  N   UNL     1       0.708  12.299  20.315  0.00  0.00    +0.000 NA
ATOM     18  C   UNL     1       0.112  12.815  21.450  0.00  0.00    +0.000 A 
ATOM     19  N   UNL     1      -0.233  11.904  22.378  0.00  0.00    +0.000 NA
ATOM     20  N   UNL     1       0.148  10.778  21.750  0.00  0.00    +0.000 N 
ATOM     21  H   UNL     1      -0.492   8.407  23.882  0.00  0.00    +0.000 HD
ATOM     22  H   UNL     1      -0.735  10.105  24.040  0.00  0.00    +0.000 HD
ENDROOT
BRANCH  18  23
ATOM     23  C   UNL     1      -0.124  14.279  21.633  0.00  0.00    +0.000 A 
ATOM     24  C   UNL     1       0.213  15.269  20.728  0.00  0.00    +0.000 A 
ATOM     25  C   UNL     1      -0.196  16.501  21.296  0.00  0.00    +0.000 A 
ATOM     26  C   UNL     1      -0.740  16.192  22.520  0.00  0.00    +0.000 A 
ATOM     27  O   UNL     1      -0.712  14.852  22.729  0.00  0.00    +0.000 OA
ENDBRANCH  18  23
BRANCH  10  28
ATOM     28  C   UNL     1       4.996   4.267  16.182  0.00  0.00    +0.000 C 
BRANCH  28  29
ATOM     29  O   UNL     1       6.042   3.502  15.576  0.00  0.00    +0.000 OA
BRANCH  29  30
ATOM     30  C   UNL     1       6.396   3.850  14.304  0.00  0.00    +0.000 A 
ATOM     31  C   UNL     1       7.392   4.827  14.220  0.00  0.00    +0.000 A 
ATOM     32  C   UNL     1       7.867   5.252  12.978  0.00  0.00    +0.000 A 
ATOM     33  C   UNL     1       7.355   4.690  11.811  0.00  0.00    +0.000 A 
ATOM     34  C   UNL     1       6.370   3.706  11.888  0.00  0.00    +0.000 A 
ATOM     35  C   UNL     1       5.890   3.286  13.133  0.00  0.00    +0.000 A 
ENDBRANCH  29  30
ENDBRANCH  28  29
ENDBRANCH  10  28
TORSDOF 4
ENDMDL
MODEL 7
REMARK VINA RESULT:      -8.0      1.533      2.226
REMARK  Name = 
REMARK  4 active torsions:
REMARK  status: ('A' for Active; 'I' for Inactive)
REMARK    1  A    between atoms: C_10  and  C_11
REMARK    2  A    between atoms: C_11  and  O_12
REMARK    3  A    between atoms: O_12  and  C_13
REMARK    4  A    between atoms: C_26  and  C_27
REMARK                            x       y       z     vdW  Elec       q    Type
REMARK                         _______ _______ _______ _____ _____    ______ ____
ROOT
ATOM      1  N   UNL     1      -1.091  14.239  18.862  0.00  0.00    +0.000 N 
ATOM      2  C   UNL     1      -0.965  13.105  19.624  0.00  0.00    +0.000 A 
ATOM      3  N   UNL     1      -0.041  12.222  19.406  0.00  0.00    +0.000 NA
ATOM      4  C   UNL     1       0.043  11.098  20.216  0.00  0.00    +0.000 A 
ATOM      5  N   UNL     1       1.003  10.162  19.894  0.00  0.00    +0.000 N 
ATOM      6  C   UNL     1       1.913  10.306  18.753  0.00  0.00    +0.000 C 
ATOM      7  C   UNL     1       2.063   8.963  18.001  0.00  0.00    +0.000 C 
ATOM      8  N   UNL     1       2.432   7.832  18.890  0.00  0.00    +0.000 NA
ATOM      9  C   UNL     1       2.558   6.592  18.104  0.00  0.00    +0.000 C 
ATOM     10  C   UNL     1       2.792   5.326  18.955  0.00  0.00    +0.000 C 
ATOM     11  C   UNL     1       1.767   5.247  20.091  0.00  0.00    +0.000 C 
ATOM     12  C   UNL     1       1.711   6.545  20.888  0.00  0.00    +0.000 C 
ATOM     13  C   UNL     1       1.410   7.725  19.962  0.00  0.00    +0.000 C 
ATOM     14  C   UNL     1       1.337   9.042  20.781  0.00  0.00    +0.000 C 
ATOM     15  N   UNL     1      -0.750  10.893  21.239  0.00  0.00    +0.000 NA
ATOM     16  C   UNL     1      -1.722  11.802  21.477  0.00  0.00    +0.000 A 
ATOM     17  N   UNL     1      -2.663  11.867  22.397  0.00  0.00    +0.000 NA
ATOM     18  C   UNL     1      -3.378  12.996  22.045  0.00  0.00    +0.000 A 
ATOM     19  N   UNL     1      -2.919  13.646  20.960  0.00  0.00    +0.000 NA
ATOM     20  N   UNL     1      -1.853  12.882  20.665  0.00  0.00    +0.000 N 
ATOM     21  H   UNL     1      -0.627  14.213  17.963  0.00  0.00    +0.000 HD
ATOM     22  H   UNL     1      -2.003  14.691  18.882  0.00  0.00    +0.000 HD
ENDROOT
BRANCH  18  23
ATOM     23  C   UNL     1      -4.576  13.454  22.811  0.00  0.00    +0.000 A 
ATOM     24  C   UNL     1      -4.881  14.767  23.119  0.00  0.00    +0.000 A 
ATOM     25  C   UNL     1      -6.100  14.747  23.841  0.00  0.00    +0.000 A 
ATOM     26  C   UNL     1      -6.456  13.423  23.947  0.00  0.00    +0.000 A 
ATOM     27  O   UNL     1      -5.549  12.635  23.317  0.00  0.00    +0.000 OA
ENDBRANCH  18  23
BRANCH  10  28
ATOM     28  C   UNL     1       4.231   5.234  19.489  0.00  0.00    +0.000 C 
BRANCH  28  29
ATOM     29  O   UNL     1       4.876   4.129  18.849  0.00  0.00    +0.000 OA
BRANCH  29  30
ATOM     30  C   UNL     1       5.436   4.371  17.627  0.00  0.00    +0.000 A 
ATOM     31  C   UNL     1       6.546   5.220  17.649  0.00  0.00    +0.000 A 
ATOM     32  C   UNL     1       7.229   5.526  16.471  0.00  0.00    +0.000 A 
ATOM     33  C   UNL     1       6.812   4.972  15.263  0.00  0.00    +0.000 A 
ATOM     34  C   UNL     1       5.713   4.114  15.236  0.00  0.00    +0.000 A 
ATOM     35  C   UNL     1       5.024   3.814  16.416  0.00  0.00    +0.000 A 
ENDBRANCH  29  30
ENDBRANCH  28  29
ENDBRANCH  10  28
TORSDOF 4
ENDMDL
MODEL 8
REMARK VINA RESULT:      -8.0      1.136      1.382
REMARK  Name = 
REMARK  4 active torsions:
REMARK  status: ('A' for Active; 'I' for Inactive)
REMARK    1  A    between atoms: C_10  and  C_11
REMARK    2  A    between atoms: C_11  and  O_12
REMARK    3  A    between atoms: O_12  and  C_13
REMARK    4  A    between atoms: C_26  and  C_27
REMARK                            x       y       z     vdW  Elec       q    Type
REMARK                         _______ _______ _______ _____ _____    ______ ____
ROOT
ATOM      1  N   UNL     1      -0.745  13.029  17.897  0.00  0.00    +0.000 N 
ATOM      2  C   UNL     1      -0.500  12.057  18.834  0.00  0.00    +0.000 A 
ATOM      3  N   UNL     1       0.319  11.075  18.617  0.00  0.00    +0.000 NA
ATOM      4  C   UNL     1       0.534  10.126  19.606  0.00  0.00    +0.000 A 
ATOM      5  N   UNL     1       1.364   9.069  19.294  0.00  0.00    +0.000 N 
ATOM      6  C   UNL     1       2.007   8.915  17.986  0.00  0.00    +0.000 C 
ATOM      7  C   UNL     1       1.937   7.444  17.512  0.00  0.00    +0.000 C 
ATOM      8  N   UNL     1       2.446   6.479  18.519  0.00  0.00    +0.000 NA
ATOM      9  C   UNL     1       2.349   5.105  17.997  0.00  0.00    +0.000 C 
ATOM     10  C   UNL     1       2.714   4.012  19.025  0.00  0.00    +0.000 C 
ATOM     11  C   UNL     1       1.959   4.238  20.338  0.00  0.00    +0.000 C 
ATOM     12  C   UNL     1       2.130   5.666  20.845  0.00  0.00    +0.000 C 
ATOM     13  C   UNL     1       1.680   6.666  19.778  0.00  0.00    +0.000 C 
ATOM     14  C   UNL     1       1.839   8.118  20.304  0.00  0.00    +0.000 C 
ATOM     15  N   UNL     1      -0.024  10.188  20.790  0.00  0.00    +0.000 NA
ATOM     16  C   UNL     1      -0.884  11.203  21.030  0.00  0.00    +0.000 A 
ATOM     17  N   UNL     1      -1.599  11.521  22.092  0.00  0.00    +0.000 NA
ATOM     18  C   UNL     1      -2.328  12.616  21.669  0.00  0.00    +0.000 A 
ATOM     19  N   UNL     1      -2.093  13.004  20.402  0.00  0.00    +0.000 NA
ATOM     20  N   UNL     1      -1.147  12.113  20.058  0.00  0.00    +0.000 N 
ATOM     21  H   UNL     1      -0.490  12.791  16.946  0.00  0.00    +0.000 HD
ATOM     22  H   UNL     1      -1.612  13.549  18.010  0.00  0.00    +0.000 HD
ENDROOT
BRANCH  18  23
ATOM     23  C   UNL     1      -3.312  13.310  22.553  0.00  0.00    +0.000 A 
ATOM     24  C   UNL     1      -2.999  14.063  23.670  0.00  0.00    +0.000 A 
ATOM     25  C   UNL     1      -4.224  14.541  24.200  0.00  0.00    +0.000 A 
ATOM     26  C   UNL     1      -5.211  14.036  23.387  0.00  0.00    +0.000 A 
ATOM     27  O   UNL     1      -4.670  13.301  22.382  0.00  0.00    +0.000 OA
ENDBRANCH  18  23
BRANCH  10  28
ATOM     28  C   UNL     1       4.231   3.907  19.258  0.00  0.00    +0.000 C 
BRANCH  28  29
ATOM     29  O   UNL     1       4.812   3.245  18.131  0.00  0.00    +0.000 OA
BRANCH  29  30
ATOM     30  C   UNL     1       5.582   4.010  17.302  0.00  0.00    +0.000 A 
ATOM     31  C   UNL     1       5.503   3.671  15.949  0.00  0.00    +0.000 A 
ATOM     32  C   UNL     1       6.218   4.393  14.993  0.00  0.00    +0.000 A 
ATOM     33  C   UNL     1       7.009   5.470  15.386  0.00  0.00    +0.000 A 
ATOM     34  C   UNL     1       7.082   5.823  16.733  0.00  0.00    +0.000 A 
ATOM     35  C   UNL     1       6.370   5.094  17.692  0.00  0.00    +0.000 A 
ENDBRANCH  29  30
ENDBRANCH  28  29
ENDBRANCH  10  28
TORSDOF 4
ENDMDL
MODEL 9
REMARK VINA RESULT:      -7.9      2.692      4.341
REMARK  Name = 
REMARK  4 active torsions:
REMARK  status: ('A' for Active; 'I' for Inactive)
REMARK    1  A    between atoms: C_10  and  C_11
REMARK    2  A    between atoms: C_11  and  O_12
REMARK    3  A    between atoms: O_12  and  C_13
REMARK    4  A    between atoms: C_26  and  C_27
REMARK                            x       y       z     vdW  Elec       q    Type
REMARK                         _______ _______ _______ _____ _____    ______ ____
ROOT
ATOM      1  N   UNL     1      -0.723   8.522  22.030  0.00  0.00    +0.000 N 
ATOM      2  C   UNL     1       0.152   8.801  21.011  0.00  0.00    +0.000 A 
ATOM      3  N   UNL     1       0.933   7.899  20.501  0.00  0.00    +0.000 NA
ATOM      4  C   UNL     1       1.792   8.237  19.465  0.00  0.00    +0.000 A 
ATOM      5  N   UNL     1       2.644   7.254  19.010  0.00  0.00    +0.000 N 
ATOM      6  C   UNL     1       2.679   5.899  19.570  0.00  0.00    +0.000 C 
ATOM      7  C   UNL     1       4.137   5.415  19.741  0.00  0.00    +0.000 C 
ATOM      8  N   UNL     1       4.946   5.543  18.502  0.00  0.00    +0.000 NA
ATOM      9  C   UNL     1       6.317   5.062  18.741  0.00  0.00    +0.000 C 
ATOM     10  C   UNL     1       7.282   5.291  17.558  0.00  0.00    +0.000 C 
ATOM     11  C   UNL     1       7.203   6.743  17.075  0.00  0.00    +0.000 C 
ATOM     12  C   UNL     1       5.763   7.168  16.810  0.00  0.00    +0.000 C 
ATOM     13  C   UNL     1       4.908   6.961  18.062  0.00  0.00    +0.000 C 
ATOM     14  C   UNL     1       3.447   7.412  17.792  0.00  0.00    +0.000 C 
ATOM     15  N   UNL     1       1.831   9.433  18.931  0.00  0.00    +0.000 NA
ATOM     16  C   UNL     1       1.027  10.385  19.453  0.00  0.00    +0.000 A 
ATOM     17  N   UNL     1       0.853  11.657  19.151  0.00  0.00    +0.000 NA
ATOM     18  C   UNL     1      -0.044  12.092  20.107  0.00  0.00    +0.000 A 
ATOM     19  N   UNL     1      -0.450  11.152  20.979  0.00  0.00    +0.000 NA
ATOM     20  N   UNL     1       0.216  10.088  20.501  0.00  0.00    +0.000 N 
ATOM     21  H   UNL     1      -0.530   7.677  22.552  0.00  0.00    +0.000 HD
ATOM     22  H   UNL     1      -1.041   9.321  22.576  0.00  0.00    +0.000 HD
ENDROOT
BRANCH  18  23
ATOM     23  C   UNL     1      -0.522  13.507  20.168  0.00  0.00    +0.000 A 
ATOM     24  C   UNL     1      -0.234  14.495  19.244  0.00  0.00    +0.000 A 
ATOM     25  C   UNL     1      -0.892  15.671  19.683  0.00  0.00    +0.000 A 
ATOM     26  C   UNL     1      -1.525  15.336  20.856  0.00  0.00    +0.000 A 
ATOM     27  O   UNL     1      -1.318  14.029  21.153  0.00  0.00    +0.000 OA
ENDBRANCH  18  23
BRANCH  10  28
ATOM     28  C   UNL     1       7.046   4.301  16.405  0.00  0.00    +0.000 C 
BRANCH  28  29
ATOM     29  O   UNL     1       7.483   4.916  15.191  0.00  0.00    +0.000 OA
BRANCH  29  30
ATOM     30  C   UNL     1       6.943   4.434  14.032  0.00  0.00    +0.000 A 
ATOM     31  C   UNL     1       5.620   3.997  14.139  0.00  0.00    +0.000 A 
ATOM     32  C   UNL     1       4.941   3.507  13.022  0.00  0.00    +0.000 A 
ATOM     33  C   UNL     1       5.581   3.465  11.785  0.00  0.00    +0.000 A 
ATOM     34  C   UNL     1       6.897   3.912  11.668  0.00  0.00    +0.000 A 
ATOM     35  C   UNL     1       7.579   4.396  12.790  0.00  0.00    +0.000 A 
ENDBRANCH  29  30
ENDBRANCH  28  29
ENDBRANCH  10  28
TORSDOF 4
ENDMDL
