MODEL 1
REMARK VINA RESULT:      -7.4      0.000      0.000
REMARK  Name = 
REMARK  11 active torsions:
REMARK  status: ('A' for Active; 'I' for Inactive)
REMARK    1  A    between atoms: C_1  and  O_2
REMARK    2  A    between atoms: O_2  and  C_3
REMARK    3  A    between atoms: C_9  and  C_10
REMARK    4  A    between atoms: C_10  and  C_12
REMARK    5  A    between atoms: C_13  and  O_14
REMARK    6  A    between atoms: C_13  and  C_15
REMARK    7  A    between atoms: C_15  and  O_17
REMARK    8  A    between atoms: N_19  and  C_20
REMARK    9  A    between atoms: C_20  and  C_21
REMARK   10  A    between atoms: C_23  and  C_24
REMARK   11  A    between atoms: C_26  and  C_27
REMARK                            x       y       z     vdW  Elec       q    Type
REMARK                         _______ _______ _______ _____ _____    ______ ____
ROOT
ATOM      1  C   UNL     1       2.748   6.057  18.234  0.00  0.00    +0.000 A 
ATOM      2  C   UNL     1       3.044   7.408  17.982  0.00  0.00    +0.000 A 
ATOM      3  C   UNL     1       4.118   7.775  17.185  0.00  0.00    +0.000 A 
ATOM      4  C   UNL     1       4.969   6.808  16.654  0.00  0.00    +0.000 A 
ATOM      5  C   UNL     1       4.723   5.458  16.955  0.00  0.00    +0.000 A 
ATOM      6  C   UNL     1       3.611   5.051  17.709  0.00  0.00    +0.000 A 
ATOM      7  C   UNL     1       3.638   3.606  17.761  0.00  0.00    +0.000 A 
ATOM      8  C   UNL     1       4.791   3.209  17.103  0.00  0.00    +0.000 A 
ATOM      9  N   UNL     1       5.437   4.322  16.623  0.00  0.00    +0.000 N 
ENDROOT
BRANCH   1  11
ATOM     10  C   UNL     1       1.669   6.269  20.330  0.00  0.00    +0.000 C 
ATOM     11  O   UNL     1       1.691   5.682  19.030  0.00  0.00    +0.000 OA
ENDBRANCH   1  11
BRANCH   7  12
ATOM     12  C   UNL     1       2.627   2.727  18.347  0.00  0.00    +0.000 C 
ATOM     13  O   UNL     1       1.811   2.078  17.695  0.00  0.00    +0.000 OA
BRANCH  12  14
ATOM     14  C   UNL     1       2.635   2.608  19.827  0.00  0.00    +0.000 C 
ATOM     15  C   UNL     1       1.492   2.761  20.520  0.00  0.00    +0.000 C 
BRANCH  15  16
ATOM     16  O   UNL     1       0.251   3.042  19.957  0.00  0.00    +0.000 OA
ATOM     17  H   UNL     1      -0.317   3.417  20.672  0.00  0.00    +0.000 HD
ENDBRANCH  15  16
BRANCH  15  18
ATOM     18  C   UNL     1       1.534   2.621  22.005  0.00  0.00    +0.000 C 
ATOM     19  O   UNL     1       0.770   1.954  22.679  0.00  0.00    +0.000 OA
BRANCH  18  20
ATOM     20  O   UNL     1       2.559   3.349  22.500  0.00  0.00    +0.000 OA
ATOM     21  H   UNL     1       2.225   4.228  22.795  0.00  0.00    +0.000 HD
ENDBRANCH  18  20
ENDBRANCH  15  18
ENDBRANCH  12  14
ENDBRANCH   7  12
BRANCH   9  22
ATOM     22  C   UNL     1       6.762   4.297  15.993  0.00  0.00    +0.000 C 
BRANCH  22  23
ATOM     23  C   UNL     1       6.772   4.407  14.484  0.00  0.00    +0.000 A 
ATOM     24  C   UNL     1       7.547   5.352  13.797  0.00  0.00    +0.000 A 
ATOM     25  C   UNL     1       7.637   5.339  12.398  0.00  0.00    +0.000 A 
ATOM     26  C   UNL     1       8.474   6.352  11.675  0.00  0.00    +0.000 C 
ATOM     27  C   UNL     1       6.959   4.351  11.675  0.00  0.00    +0.000 A 
ATOM     28  C   UNL     1       6.184   3.390  12.331  0.00  0.00    +0.000 A 
ATOM     29  C   UNL     1       5.521   2.286  11.558  0.00  0.00    +0.000 C 
ATOM     30  C   UNL     1       6.084   3.436  13.730  0.00  0.00    +0.000 A 
ENDBRANCH  22  23
ENDBRANCH   9  22
TORSDOF 8
ENDMDL
MODEL 2
REMARK VINA RESULT:      -7.1      3.357      7.758
REMARK  Name = 
REMARK  11 active torsions:
REMARK  status: ('A' for Active; 'I' for Inactive)
REMARK    1  A    between atoms: C_1  and  O_2
REMARK    2  A    between atoms: O_2  and  C_3
REMARK    3  A    between atoms: C_9  and  C_10
REMARK    4  A    between atoms: C_10  and  C_12
REMARK    5  A    between atoms: C_13  and  O_14
REMARK    6  A    between atoms: C_13  and  C_15
REMARK    7  A    between atoms: C_15  and  O_17
REMARK    8  A    between atoms: N_19  and  C_20
REMARK    9  A    between atoms: C_20  and  C_21
REMARK   10  A    between atoms: C_23  and  C_24
REMARK   11  A    between atoms: C_26  and  C_27
REMARK                            x       y       z     vdW  Elec       q    Type
REMARK                         _______ _______ _______ _____ _____    ______ ____
ROOT
ATOM      1  C   UNL     1       3.762   3.543  19.541  0.00  0.00    +0.000 A 
ATOM      2  C   UNL     1       2.573   2.935  19.978  0.00  0.00    +0.000 A 
ATOM      3  C   UNL     1       1.333   3.492  19.697  0.00  0.00    +0.000 A 
ATOM      4  C   UNL     1       1.238   4.703  19.017  0.00  0.00    +0.000 A 
ATOM      5  C   UNL     1       2.424   5.354  18.634  0.00  0.00    +0.000 A 
ATOM      6  C   UNL     1       3.690   4.788  18.852  0.00  0.00    +0.000 A 
ATOM      7  C   UNL     1       4.663   5.690  18.275  0.00  0.00    +0.000 A 
ATOM      8  C   UNL     1       3.956   6.784  17.802  0.00  0.00    +0.000 A 
ATOM      9  N   UNL     1       2.616   6.577  18.021  0.00  0.00    +0.000 N 
ENDROOT
BRANCH   1  11
ATOM     10  C   UNL     1       4.978   1.810  20.600  0.00  0.00    +0.000 C 
ATOM     11  O   UNL     1       4.997   3.005  19.821  0.00  0.00    +0.000 OA
ENDBRANCH   1  11
BRANCH   7  12
ATOM     12  C   UNL     1       6.105   5.476  18.165  0.00  0.00    +0.000 C 
ATOM     13  O   UNL     1       6.849   5.266  19.121  0.00  0.00    +0.000 OA
BRANCH  12  14
ATOM     14  C   UNL     1       6.671   5.488  16.792  0.00  0.00    +0.000 C 
ATOM     15  C   UNL     1       6.383   4.489  15.938  0.00  0.00    +0.000 C 
BRANCH  15  16
ATOM     16  O   UNL     1       5.578   3.394  16.236  0.00  0.00    +0.000 OA
ATOM     17  H   UNL     1       5.589   2.800  15.446  0.00  0.00    +0.000 HD
ENDBRANCH  15  16
BRANCH  15  18
ATOM     18  C   UNL     1       6.958   4.540  14.562  0.00  0.00    +0.000 C 
ATOM     19  O   UNL     1       6.595   3.869  13.614  0.00  0.00    +0.000 OA
BRANCH  18  20
ATOM     20  O   UNL     1       7.953   5.454  14.520  0.00  0.00    +0.000 OA
ATOM     21  H   UNL     1       8.007   5.838  13.614  0.00  0.00    +0.000 HD
ENDBRANCH  18  20
ENDBRANCH  15  18
ENDBRANCH  12  14
ENDBRANCH   7  12
BRANCH   9  22
ATOM     22  C   UNL     1       1.577   7.584  17.775  0.00  0.00    +0.000 C 
BRANCH  22  23
ATOM     23  C   UNL     1       1.535   8.735  18.756  0.00  0.00    +0.000 A 
ATOM     24  C   UNL     1       1.583  10.078  18.355  0.00  0.00    +0.000 A 
ATOM     25  C   UNL     1       1.405  11.117  19.278  0.00  0.00    +0.000 A 
ATOM     26  C   UNL     1       1.453  12.550  18.836  0.00  0.00    +0.000 C 
ATOM     27  C   UNL     1       1.153  10.811  20.620  0.00  0.00    +0.000 A 
ATOM     28  C   UNL     1       1.092   9.482  21.050  0.00  0.00    +0.000 A 
ATOM     29  C   UNL     1       0.746   9.156  22.474  0.00  0.00    +0.000 C 
ATOM     30  C   UNL     1       1.299   8.455  20.117  0.00  0.00    +0.000 A 
ENDBRANCH  22  23
ENDBRANCH   9  22
TORSDOF 8
ENDMDL
MODEL 3
REMARK VINA RESULT:      -7.1      3.318      7.914
REMARK  Name = 
REMARK  11 active torsions:
REMARK  status: ('A' for Active; 'I' for Inactive)
REMARK    1  A    between atoms: C_1  and  O_2
REMARK    2  A    between atoms: O_2  and  C_3
REMARK    3  A    between atoms: C_9  and  C_10
REMARK    4  A    between atoms: C_10  and  C_12
REMARK    5  A    between atoms: C_13  and  O_14
REMARK    6  A    between atoms: C_13  and  C_15
REMARK    7  A    between atoms: C_15  and  O_17
REMARK    8  A    between atoms: N_19  and  C_20
REMARK    9  A    between atoms: C_20  and  C_21
REMARK   10  A    between atoms: C_23  and  C_24
REMARK   11  A    between atoms: C_26  and  C_27
REMARK                            x       y       z     vdW  Elec       q    Type
REMARK                         _______ _______ _______ _____ _____    ______ ____
ROOT
ATOM      1  C   UNL     1       2.779   2.490  18.396  0.00  0.00    +0.000 A 
ATOM      2  C   UNL     1       1.522   1.875  18.524  0.00  0.00    +0.000 A 
ATOM      3  C   UNL     1       0.465   2.519  19.153  0.00  0.00    +0.000 A 
ATOM      4  C   UNL     1       0.641   3.776  19.726  0.00  0.00    +0.000 A 
ATOM      5  C   UNL     1       1.912   4.372  19.663  0.00  0.00    +0.000 A 
ATOM      6  C   UNL     1       2.984   3.773  18.982  0.00  0.00    +0.000 A 
ATOM      7  C   UNL     1       4.103   4.687  19.064  0.00  0.00    +0.000 A 
ATOM      8  C   UNL     1       3.684   5.755  19.842  0.00  0.00    +0.000 A 
ATOM      9  N   UNL     1       2.372   5.560  20.198  0.00  0.00    +0.000 N 
ENDROOT
BRANCH   1  11
ATOM     10  C   UNL     1       4.479   0.852  18.560  0.00  0.00    +0.000 C 
ATOM     11  O   UNL     1       3.836   1.859  17.782  0.00  0.00    +0.000 OA
ENDBRANCH   1  11
BRANCH   7  12
ATOM     12  C   UNL     1       5.406   4.544  18.417  0.00  0.00    +0.000 C 
ATOM     13  O   UNL     1       6.442   4.238  19.004  0.00  0.00    +0.000 OA
BRANCH  12  14
ATOM     14  C   UNL     1       5.440   4.757  16.947  0.00  0.00    +0.000 C 
ATOM     15  C   UNL     1       6.610   4.701  16.287  0.00  0.00    +0.000 C 
BRANCH  15  16
ATOM     16  O   UNL     1       7.847   4.462  16.877  0.00  0.00    +0.000 OA
ATOM     17  H   UNL     1       8.502   5.054  16.435  0.00  0.00    +0.000 HD
ENDBRANCH  15  16
BRANCH  15  18
ATOM     18  C   UNL     1       6.605   4.907  14.809  0.00  0.00    +0.000 C 
ATOM     19  O   UNL     1       7.515   5.382  14.153  0.00  0.00    +0.000 OA
BRANCH  18  20
ATOM     20  O   UNL     1       5.430   4.480  14.295  0.00  0.00    +0.000 OA
ATOM     21  H   UNL     1       4.940   5.246  13.918  0.00  0.00    +0.000 HD
ENDBRANCH  18  20
ENDBRANCH  15  18
ENDBRANCH  12  14
ENDBRANCH   7  12
BRANCH   9  22
ATOM     22  C   UNL     1       1.638   6.418  21.134  0.00  0.00    +0.000 C 
BRANCH  22  23
ATOM     23  C   UNL     1       1.433   7.850  20.688  0.00  0.00    +0.000 A 
ATOM     24  C   UNL     1       1.793   8.306  19.412  0.00  0.00    +0.000 A 
ATOM     25  C   UNL     1       1.465   9.601  18.986  0.00  0.00    +0.000 A 
ATOM     26  C   UNL     1       1.852  10.076  17.616  0.00  0.00    +0.000 C 
ATOM     27  C   UNL     1       0.747  10.446  19.839  0.00  0.00    +0.000 A 
ATOM     28  C   UNL     1       0.367  10.017  21.114  0.00  0.00    +0.000 A 
ATOM     29  C   UNL     1      -0.470  10.897  21.997  0.00  0.00    +0.000 C 
ATOM     30  C   UNL     1       0.727   8.727  21.534  0.00  0.00    +0.000 A 
ENDBRANCH  22  23
ENDBRANCH   9  22
TORSDOF 8
ENDMDL
MODEL 4
REMARK VINA RESULT:      -7.0      3.381      7.852
REMARK  Name = 
REMARK  11 active torsions:
REMARK  status: ('A' for Active; 'I' for Inactive)
REMARK    1  A    between atoms: C_1  and  O_2
REMARK    2  A    between atoms: O_2  and  C_3
REMARK    3  A    between atoms: C_9  and  C_10
REMARK    4  A    between atoms: C_10  and  C_12
REMARK    5  A    between atoms: C_13  and  O_14
REMARK    6  A    between atoms: C_13  and  C_15
REMARK    7  A    between atoms: C_15  and  O_17
REMARK    8  A    between atoms: N_19  and  C_20
REMARK    9  A    between atoms: C_20  and  C_21
REMARK   10  A    between atoms: C_23  and  C_24
REMARK   11  A    between atoms: C_26  and  C_27
REMARK                            x       y       z     vdW  Elec       q    Type
REMARK                         _______ _______ _______ _____ _____    ______ ____
ROOT
ATOM      1  C   UNL     1       3.620   3.412  20.158  0.00  0.00    +0.000 A 
ATOM      2  C   UNL     1       2.436   2.903  20.718  0.00  0.00    +0.000 A 
ATOM      3  C   UNL     1       1.202   3.470  20.435  0.00  0.00    +0.000 A 
ATOM      4  C   UNL     1       1.110   4.600  19.625  0.00  0.00    +0.000 A 
ATOM      5  C   UNL     1       2.295   5.158  19.114  0.00  0.00    +0.000 A 
ATOM      6  C   UNL     1       3.552   4.573  19.334  0.00  0.00    +0.000 A 
ATOM      7  C   UNL     1       4.522   5.367  18.612  0.00  0.00    +0.000 A 
ATOM      8  C   UNL     1       3.827   6.426  18.051  0.00  0.00    +0.000 A 
ATOM      9  N   UNL     1       2.494   6.296  18.356  0.00  0.00    +0.000 N 
ENDROOT
BRANCH   1  11
ATOM     10  C   UNL     1       4.873   1.440  20.540  0.00  0.00    +0.000 C 
ATOM     11  O   UNL     1       4.850   2.863  20.438  0.00  0.00    +0.000 OA
ENDBRANCH   1  11
BRANCH   7  12
ATOM     12  C   UNL     1       5.949   5.088  18.459  0.00  0.00    +0.000 C 
ATOM     13  O   UNL     1       6.783   5.234  19.349  0.00  0.00    +0.000 OA
BRANCH  12  14
ATOM     14  C   UNL     1       6.380   4.564  17.138  0.00  0.00    +0.000 C 
ATOM     15  C   UNL     1       6.691   5.417  16.145  0.00  0.00    +0.000 C 
BRANCH  15  16
ATOM     16  O   UNL     1       6.635   6.804  16.240  0.00  0.00    +0.000 OA
ATOM     17  H   UNL     1       7.543   7.118  16.470  0.00  0.00    +0.000 HD
ENDBRANCH  15  16
BRANCH  15  18
ATOM     18  C   UNL     1       7.134   4.855  14.835  0.00  0.00    +0.000 C 
ATOM     19  O   UNL     1       7.930   5.372  14.072  0.00  0.00    +0.000 OA
BRANCH  18  20
ATOM     20  O   UNL     1       6.518   3.673  14.617  0.00  0.00    +0.000 OA
ATOM     21  H   UNL     1       7.128   2.936  14.852  0.00  0.00    +0.000 HD
ENDBRANCH  18  20
ENDBRANCH  15  18
ENDBRANCH  12  14
ENDBRANCH   7  12
BRANCH   9  22
ATOM     22  C   UNL     1       1.477   7.307  18.045  0.00  0.00    +0.000 C 
BRANCH  22  23
ATOM     23  C   UNL     1       1.472   8.528  18.940  0.00  0.00    +0.000 A 
ATOM     24  C   UNL     1       1.541   9.836  18.440  0.00  0.00    +0.000 A 
ATOM     25  C   UNL     1       1.398  10.944  19.286  0.00  0.00    +0.000 A 
ATOM     26  C   UNL     1       1.469  12.339  18.738  0.00  0.00    +0.000 C 
ATOM     27  C   UNL     1       1.160  10.743  20.650  0.00  0.00    +0.000 A 
ATOM     28  C   UNL     1       1.079   9.451  21.178  0.00  0.00    +0.000 A 
ATOM     29  C   UNL     1       0.747   9.238  22.627  0.00  0.00    +0.000 C 
ATOM     30  C   UNL     1       1.252   8.354  20.320  0.00  0.00    +0.000 A 
ENDBRANCH  22  23
ENDBRANCH   9  22
TORSDOF 8
ENDMDL
MODEL 5
REMARK VINA RESULT:      -7.0      2.659      6.746
REMARK  Name = 
REMARK  11 active torsions:
REMARK  status: ('A' for Active; 'I' for Inactive)
REMARK    1  A    between atoms: C_1  and  O_2
REMARK    2  A    between atoms: O_2  and  C_3
REMARK    3  A    between atoms: C_9  and  C_10
REMARK    4  A    between atoms: C_10  and  C_12
REMARK    5  A    between atoms: C_13  and  O_14
REMARK    6  A    between atoms: C_13  and  C_15
REMARK    7  A    between atoms: C_15  and  O_17
REMARK    8  A    between atoms: N_19  and  C_20
REMARK    9  A    between atoms: C_20  and  C_21
REMARK   10  A    between atoms: C_23  and  C_24
REMARK   11  A    between atoms: C_26  and  C_27
REMARK                            x       y       z     vdW  Elec       q    Type
REMARK                         _______ _______ _______ _____ _____    ______ ____
ROOT
ATOM      1  C   UNL     1       5.455   4.985  17.181  0.00  0.00    +0.000 A 
ATOM      2  C   UNL     1       6.625   5.722  16.930  0.00  0.00    +0.000 A 
ATOM      3  C   UNL     1       6.653   7.101  17.079  0.00  0.00    +0.000 A 
ATOM      4  C   UNL     1       5.501   7.800  17.431  0.00  0.00    +0.000 A 
ATOM      5  C   UNL     1       4.309   7.080  17.618  0.00  0.00    +0.000 A 
ATOM      6  C   UNL     1       4.261   5.680  17.533  0.00  0.00    +0.000 A 
ATOM      7  C   UNL     1       2.907   5.281  17.847  0.00  0.00    +0.000 A 
ATOM      8  C   UNL     1       2.185   6.449  18.036  0.00  0.00    +0.000 A 
ATOM      9  N   UNL     1       3.030   7.523  17.898  0.00  0.00    +0.000 N 
ENDROOT
BRANCH   1  11
ATOM     10  C   UNL     1       5.588   3.148  15.694  0.00  0.00    +0.000 C 
ATOM     11  O   UNL     1       5.412   3.618  17.029  0.00  0.00    +0.000 OA
ENDBRANCH   1  11
BRANCH   7  12
ATOM     12  C   UNL     1       2.400   3.916  17.986  0.00  0.00    +0.000 C 
ATOM     13  O   UNL     1       1.814   3.301  17.098  0.00  0.00    +0.000 OA
BRANCH  12  14
ATOM     14  C   UNL     1       2.655   3.248  19.288  0.00  0.00    +0.000 C 
ATOM     15  C   UNL     1       1.747   3.333  20.276  0.00  0.00    +0.000 C 
BRANCH  15  16
ATOM     16  O   UNL     1       0.544   4.027  20.195  0.00  0.00    +0.000 OA
ATOM     17  H   UNL     1      -0.035   3.536  19.562  0.00  0.00    +0.000 HD
ENDBRANCH  15  16
BRANCH  15  18
ATOM     18  C   UNL     1       2.030   2.637  21.566  0.00  0.00    +0.000 C 
ATOM     19  O   UNL     1       1.214   2.390  22.435  0.00  0.00    +0.000 OA
BRANCH  18  20
ATOM     20  O   UNL     1       3.341   2.314  21.629  0.00  0.00    +0.000 OA
ATOM     21  H   UNL     1       3.536   1.603  20.976  0.00  0.00    +0.000 HD
ENDBRANCH  18  20
ENDBRANCH  15  18
ENDBRANCH  12  14
ENDBRANCH   7  12
BRANCH   9  22
ATOM     22  C   UNL     1       2.588   8.922  17.895  0.00  0.00    +0.000 C 
BRANCH  22  23
ATOM     23  C   UNL     1       1.363   9.223  18.731  0.00  0.00    +0.000 A 
ATOM     24  C   UNL     1       1.323   9.030  20.119  0.00  0.00    +0.000 A 
ATOM     25  C   UNL     1       0.221   9.445  20.878  0.00  0.00    +0.000 A 
ATOM     26  C   UNL     1       0.193   9.237  22.363  0.00  0.00    +0.000 C 
ATOM     27  C   UNL     1      -0.850  10.085  20.244  0.00  0.00    +0.000 A 
ATOM     28  C   UNL     1      -0.837  10.300  18.862  0.00  0.00    +0.000 A 
ATOM     29  C   UNL     1      -1.952  11.054  18.197  0.00  0.00    +0.000 C 
ATOM     30  C   UNL     1       0.263   9.852  18.115  0.00  0.00    +0.000 A 
ENDBRANCH  22  23
ENDBRANCH   9  22
TORSDOF 8
ENDMDL
MODEL 6
REMARK VINA RESULT:      -7.0      3.758      8.245
REMARK  Name = 
REMARK  11 active torsions:
REMARK  status: ('A' for Active; 'I' for Inactive)
REMARK    1  A    between atoms: C_1  and  O_2
REMARK    2  A    between atoms: O_2  and  C_3
REMARK    3  A    between atoms: C_9  and  C_10
REMARK    4  A    between atoms: C_10  and  C_12
REMARK    5  A    between atoms: C_13  and  O_14
REMARK    6  A    between atoms: C_13  and  C_15
REMARK    7  A    between atoms: C_15  and  O_17
REMARK    8  A    between atoms: N_19  and  C_20
REMARK    9  A    between atoms: C_20  and  C_21
REMARK   10  A    between atoms: C_23  and  C_24
REMARK   11  A    between atoms: C_26  and  C_27
REMARK                            x       y       z     vdW  Elec       q    Type
REMARK                         _______ _______ _______ _____ _____    ______ ____
ROOT
ATOM      1  C   UNL     1       4.671   4.885  19.089  0.00  0.00    +0.000 A 
ATOM      2  C   UNL     1       3.922   4.184  20.049  0.00  0.00    +0.000 A 
ATOM      3  C   UNL     1       2.588   4.488  20.284  0.00  0.00    +0.000 A 
ATOM      4  C   UNL     1       1.970   5.537  19.609  0.00  0.00    +0.000 A 
ATOM      5  C   UNL     1       2.730   6.289  18.695  0.00  0.00    +0.000 A 
ATOM      6  C   UNL     1       4.063   5.969  18.392  0.00  0.00    +0.000 A 
ATOM      7  C   UNL     1       4.502   6.900  17.375  0.00  0.00    +0.000 A 
ATOM      8  C   UNL     1       3.449   7.776  17.161  0.00  0.00    +0.000 A 
ATOM      9  N   UNL     1       2.392   7.405  17.955  0.00  0.00    +0.000 N 
ENDROOT
BRANCH   1  11
ATOM     10  C   UNL     1       6.929   5.353  19.625  0.00  0.00    +0.000 C 
ATOM     11  O   UNL     1       5.996   4.599  18.853  0.00  0.00    +0.000 OA
ENDBRANCH   1  11
BRANCH   7  12
ATOM     12  C   UNL     1       5.783   6.895  16.671  0.00  0.00    +0.000 C 
ATOM     13  O   UNL     1       6.794   7.470  17.069  0.00  0.00    +0.000 OA
BRANCH  12  14
ATOM     14  C   UNL     1       5.842   6.107  15.414  0.00  0.00    +0.000 C 
ATOM     15  C   UNL     1       6.738   5.112  15.285  0.00  0.00    +0.000 C 
BRANCH  15  16
ATOM     16  O   UNL     1       7.661   4.741  16.258  0.00  0.00    +0.000 OA
ATOM     17  H   UNL     1       7.155   4.326  16.998  0.00  0.00    +0.000 HD
ENDBRANCH  15  16
BRANCH  15  18
ATOM     18  C   UNL     1       6.760   4.332  14.013  0.00  0.00    +0.000 C 
ATOM     19  O   UNL     1       7.265   4.694  12.966  0.00  0.00    +0.000 OA
BRANCH  18  20
ATOM     20  O   UNL     1       6.132   3.150  14.195  0.00  0.00    +0.000 OA
ATOM     21  H   UNL     1       6.312   2.561  13.426  0.00  0.00    +0.000 HD
ENDBRANCH  18  20
ENDBRANCH  15  18
ENDBRANCH  12  14
ENDBRANCH   7  12
BRANCH   9  22
ATOM     22  C   UNL     1       1.156   8.184  18.094  0.00  0.00    +0.000 C 
BRANCH  22  23
ATOM     23  C   UNL     1       1.183   9.273  19.145  0.00  0.00    +0.000 A 
ATOM     24  C   UNL     1       1.362  10.627  18.830  0.00  0.00    +0.000 A 
ATOM     25  C   UNL     1       1.246  11.621  19.812  0.00  0.00    +0.000 A 
ATOM     26  C   UNL     1       1.435  13.068  19.462  0.00  0.00    +0.000 C 
ATOM     27  C   UNL     1       0.926  11.259  21.125  0.00  0.00    +0.000 A 
ATOM     28  C   UNL     1       0.734   9.917  21.469  0.00  0.00    +0.000 A 
ATOM     29  C   UNL     1       0.315   9.538  22.860  0.00  0.00    +0.000 C 
ATOM     30  C   UNL     1       0.881   8.934  20.478  0.00  0.00    +0.000 A 
ENDBRANCH  22  23
ENDBRANCH   9  22
TORSDOF 8
ENDMDL
MODEL 7
REMARK VINA RESULT:      -6.9      3.306      7.917
REMARK  Name = 
REMARK  11 active torsions:
REMARK  status: ('A' for Active; 'I' for Inactive)
REMARK    1  A    between atoms: C_1  and  O_2
REMARK    2  A    between atoms: O_2  and  C_3
REMARK    3  A    between atoms: C_9  and  C_10
REMARK    4  A    between atoms: C_10  and  C_12
REMARK    5  A    between atoms: C_13  and  O_14
REMARK    6  A    between atoms: C_13  and  C_15
REMARK    7  A    between atoms: C_15  and  O_17
REMARK    8  A    between atoms: N_19  and  C_20
REMARK    9  A    between atoms: C_20  and  C_21
REMARK   10  A    between atoms: C_23  and  C_24
REMARK   11  A    between atoms: C_26  and  C_27
REMARK                            x       y       z     vdW  Elec       q    Type
REMARK                         _______ _______ _______ _____ _____    ______ ____
ROOT
ATOM      1  C   UNL     1       2.828   2.587  18.350  0.00  0.00    +0.000 A 
ATOM      2  C   UNL     1       1.567   1.973  18.442  0.00  0.00    +0.000 A 
ATOM      3  C   UNL     1       0.505   2.600  19.078  0.00  0.00    +0.000 A 
ATOM      4  C   UNL     1       0.678   3.837  19.694  0.00  0.00    +0.000 A 
ATOM      5  C   UNL     1       1.952   4.429  19.667  0.00  0.00    +0.000 A 
ATOM      6  C   UNL     1       3.031   3.849  18.981  0.00  0.00    +0.000 A 
ATOM      7  C   UNL     1       4.152   4.754  19.107  0.00  0.00    +0.000 A 
ATOM      8  C   UNL     1       3.727   5.798  19.915  0.00  0.00    +0.000 A 
ATOM      9  N   UNL     1       2.410   5.597  20.247  0.00  0.00    +0.000 N 
ENDROOT
BRANCH   1  11
ATOM     10  C   UNL     1       4.393   0.812  18.389  0.00  0.00    +0.000 C 
ATOM     11  O   UNL     1       3.890   1.972  17.729  0.00  0.00    +0.000 OA
ENDBRANCH   1  11
BRANCH   7  12
ATOM     12  C   UNL     1       5.462   4.627  18.473  0.00  0.00    +0.000 C 
ATOM     13  O   UNL     1       6.496   4.336  19.070  0.00  0.00    +0.000 OA
BRANCH  12  14
ATOM     14  C   UNL     1       5.507   4.839  17.003  0.00  0.00    +0.000 C 
ATOM     15  C   UNL     1       6.641   4.592  16.323  0.00  0.00    +0.000 C 
BRANCH  15  16
ATOM     16  O   UNL     1       7.830   4.147  16.892  0.00  0.00    +0.000 OA
ATOM     17  H   UNL     1       8.147   4.857  17.501  0.00  0.00    +0.000 HD
ENDBRANCH  15  16
BRANCH  15  18
ATOM     18  C   UNL     1       6.646   4.803  14.846  0.00  0.00    +0.000 C 
ATOM     19  O   UNL     1       7.513   5.378  14.212  0.00  0.00    +0.000 OA
BRANCH  18  20
ATOM     20  O   UNL     1       5.536   4.253  14.305  0.00  0.00    +0.000 OA
ATOM     21  H   UNL     1       5.789   3.475  13.758  0.00  0.00    +0.000 HD
ENDBRANCH  18  20
ENDBRANCH  15  18
ENDBRANCH  12  14
ENDBRANCH   7  12
BRANCH   9  22
ATOM     22  C   UNL     1       1.667   6.427  21.202  0.00  0.00    +0.000 C 
BRANCH  22  23
ATOM     23  C   UNL     1       1.236   7.785  20.693  0.00  0.00    +0.000 A 
ATOM     24  C   UNL     1       0.520   8.699  21.479  0.00  0.00    +0.000 A 
ATOM     25  C   UNL     1       0.255   9.998  21.023  0.00  0.00    +0.000 A 
ATOM     26  C   UNL     1      -0.507  10.968  21.875  0.00  0.00    +0.000 C 
ATOM     27  C   UNL     1       0.733  10.398  19.769  0.00  0.00    +0.000 A 
ATOM     28  C   UNL     1       1.457   9.512  18.965  0.00  0.00    +0.000 A 
ATOM     29  C   UNL     1       2.033   9.968  17.656  0.00  0.00    +0.000 C 
ATOM     30  C   UNL     1       1.688   8.207  19.427  0.00  0.00    +0.000 A 
ENDBRANCH  22  23
ENDBRANCH   9  22
TORSDOF 8
ENDMDL
MODEL 8
REMARK VINA RESULT:      -6.9      3.976      7.951
REMARK  Name = 
REMARK  11 active torsions:
REMARK  status: ('A' for Active; 'I' for Inactive)
REMARK    1  A    between atoms: C_1  and  O_2
REMARK    2  A    between atoms: O_2  and  C_3
REMARK    3  A    between atoms: C_9  and  C_10
REMARK    4  A    between atoms: C_10  and  C_12
REMARK    5  A    between atoms: C_13  and  O_14
REMARK    6  A    between atoms: C_13  and  C_15
REMARK    7  A    between atoms: C_15  and  O_17
REMARK    8  A    between atoms: N_19  and  C_20
REMARK    9  A    between atoms: C_20  and  C_21
REMARK   10  A    between atoms: C_23  and  C_24
REMARK   11  A    between atoms: C_26  and  C_27
REMARK                            x       y       z     vdW  Elec       q    Type
REMARK                         _______ _______ _______ _____ _____    ______ ____
ROOT
ATOM      1  C   UNL     1       2.386   5.684  20.199  0.00  0.00    +0.000 A 
ATOM      2  C   UNL     1       1.587   6.041  21.298  0.00  0.00    +0.000 A 
ATOM      3  C   UNL     1       0.956   7.276  21.360  0.00  0.00    +0.000 A 
ATOM      4  C   UNL     1       1.144   8.219  20.352  0.00  0.00    +0.000 A 
ATOM      5  C   UNL     1       1.996   7.897  19.281  0.00  0.00    +0.000 A 
ATOM      6  C   UNL     1       2.600   6.636  19.161  0.00  0.00    +0.000 A 
ATOM      7  C   UNL     1       3.341   6.637  17.918  0.00  0.00    +0.000 A 
ATOM      8  C   UNL     1       3.211   7.909  17.382  0.00  0.00    +0.000 A 
ATOM      9  N   UNL     1       2.405   8.658  18.203  0.00  0.00    +0.000 N 
ENDROOT
BRANCH   1  11
ATOM     10  C   UNL     1       2.173   3.346  19.890  0.00  0.00    +0.000 C 
ATOM     11  O   UNL     1       3.023   4.466  20.131  0.00  0.00    +0.000 OA
ENDBRANCH   1  11
BRANCH   7  12
ATOM     12  C   UNL     1       4.050   5.510  17.315  0.00  0.00    +0.000 C 
ATOM     13  O   UNL     1       3.500   4.578  16.730  0.00  0.00    +0.000 OA
BRANCH  12  14
ATOM     14  C   UNL     1       5.532   5.538  17.404  0.00  0.00    +0.000 C 
ATOM     15  C   UNL     1       6.179   4.618  18.142  0.00  0.00    +0.000 C 
BRANCH  15  16
ATOM     16  O   UNL     1       5.564   3.604  18.869  0.00  0.00    +0.000 OA
ATOM     17  H   UNL     1       6.065   2.772  18.692  0.00  0.00    +0.000 HD
ENDBRANCH  15  16
BRANCH  15  18
ATOM     18  C   UNL     1       7.670   4.669  18.198  0.00  0.00    +0.000 C 
ATOM     19  O   UNL     1       8.332   5.133  19.107  0.00  0.00    +0.000 OA
BRANCH  18  20
ATOM     20  O   UNL     1       8.185   4.114  17.078  0.00  0.00    +0.000 OA
ATOM     21  H   UNL     1       7.452   3.778  16.512  0.00  0.00    +0.000 HD
ENDBRANCH  18  20
ENDBRANCH  15  18
ENDBRANCH  12  14
ENDBRANCH   7  12
BRANCH   9  22
ATOM     22  C   UNL     1       2.157  10.093  18.024  0.00  0.00    +0.000 C 
BRANCH  22  23
ATOM     23  C   UNL     1       0.746  10.556  18.316  0.00  0.00    +0.000 A 
ATOM     24  C   UNL     1      -0.381   9.983  17.709  0.00  0.00    +0.000 A 
ATOM     25  C   UNL     1      -1.678  10.343  18.102  0.00  0.00    +0.000 A 
ATOM     26  C   UNL     1      -2.876   9.719  17.450  0.00  0.00    +0.000 C 
ATOM     27  C   UNL     1      -1.852  11.273  19.133  0.00  0.00    +0.000 A 
ATOM     28  C   UNL     1      -0.748  11.856  19.763  0.00  0.00    +0.000 A 
ATOM     29  C   UNL     1      -0.936  12.795  20.919  0.00  0.00    +0.000 C 
ATOM     30  C   UNL     1       0.542  11.504  19.337  0.00  0.00    +0.000 A 
ENDBRANCH  22  23
ENDBRANCH   9  22
TORSDOF 8
ENDMDL
MODEL 9
REMARK VINA RESULT:      -6.9      3.666      8.148
REMARK  Name = 
REMARK  11 active torsions:
REMARK  status: ('A' for Active; 'I' for Inactive)
REMARK    1  A    between atoms: C_1  and  O_2
REMARK    2  A    between atoms: O_2  and  C_3
REMARK    3  A    between atoms: C_9  and  C_10
REMARK    4  A    between atoms: C_10  and  C_12
REMARK    5  A    between atoms: C_13  and  O_14
REMARK    6  A    between atoms: C_13  and  C_15
REMARK    7  A    between atoms: C_15  and  O_17
REMARK    8  A    between atoms: N_19  and  C_20
REMARK    9  A    between atoms: C_20  and  C_21
REMARK   10  A    between atoms: C_23  and  C_24
REMARK   11  A    between atoms: C_26  and  C_27
REMARK                            x       y       z     vdW  Elec       q    Type
REMARK                         _______ _______ _______ _____ _____    ______ ____
ROOT
ATOM      1  C   UNL     1       3.647   4.272  19.810  0.00  0.00    +0.000 A 
ATOM      2  C   UNL     1       2.550   3.798  20.550  0.00  0.00    +0.000 A 
ATOM      3  C   UNL     1       1.303   4.400  20.454  0.00  0.00    +0.000 A 
ATOM      4  C   UNL     1       1.119   5.529  19.660  0.00  0.00    +0.000 A 
ATOM      5  C   UNL     1       2.226   6.052  18.969  0.00  0.00    +0.000 A 
ATOM      6  C   UNL     1       3.485   5.432  18.998  0.00  0.00    +0.000 A 
ATOM      7  C   UNL     1       4.355   6.195  18.130  0.00  0.00    +0.000 A 
ATOM      8  C   UNL     1       3.611   7.272  17.674  0.00  0.00    +0.000 A 
ATOM      9  N   UNL     1       2.337   7.181  18.181  0.00  0.00    +0.000 N 
ENDROOT
BRANCH   1  11
ATOM     10  C   UNL     1       4.891   2.265  19.985  0.00  0.00    +0.000 C 
ATOM     11  O   UNL     1       4.890   3.689  19.903  0.00  0.00    +0.000 OA
ENDBRANCH   1  11
BRANCH   7  12
ATOM     12  C   UNL     1       5.733   5.875  17.761  0.00  0.00    +0.000 C 
ATOM     13  O   UNL     1       6.649   5.727  18.568  0.00  0.00    +0.000 OA
BRANCH  12  14
ATOM     14  C   UNL     1       6.003   5.693  16.313  0.00  0.00    +0.000 C 
ATOM     15  C   UNL     1       6.967   4.845  15.910  0.00  0.00    +0.000 C 
BRANCH  15  16
ATOM     16  O   UNL     1       7.776   4.098  16.760  0.00  0.00    +0.000 OA
ATOM     17  H   UNL     1       7.523   3.150  16.648  0.00  0.00    +0.000 HD
ENDBRANCH  15  16
BRANCH  15  18
ATOM     18  C   UNL     1       7.202   4.676  14.446  0.00  0.00    +0.000 C 
ATOM     19  O   UNL     1       7.902   5.390  13.751  0.00  0.00    +0.000 OA
BRANCH  18  20
ATOM     20  O   UNL     1       6.519   3.599  13.999  0.00  0.00    +0.000 OA
ATOM     21  H   UNL     1       6.282   3.731  13.052  0.00  0.00    +0.000 HD
ENDBRANCH  18  20
ENDBRANCH  15  18
ENDBRANCH  12  14
ENDBRANCH   7  12
BRANCH   9  22
ATOM     22  C   UNL     1       1.313   8.219  18.022  0.00  0.00    +0.000 C 
BRANCH  22  23
ATOM     23  C   UNL     1       1.283   9.279  19.102  0.00  0.00    +0.000 A 
ATOM     24  C   UNL     1       1.398  10.649  18.825  0.00  0.00    +0.000 A 
ATOM     25  C   UNL     1       1.230  11.610  19.832  0.00  0.00    +0.000 A 
ATOM     26  C   UNL     1       1.352  13.072  19.522  0.00  0.00    +0.000 C 
ATOM     27  C   UNL     1       0.920  11.197  21.133  0.00  0.00    +0.000 A 
ATOM     28  C   UNL     1       0.790   9.839  21.439  0.00  0.00    +0.000 A 
ATOM     29  C   UNL     1       0.381   9.403  22.816  0.00  0.00    +0.000 C 
ATOM     30  C   UNL     1       0.988   8.890  20.424  0.00  0.00    +0.000 A 
ENDBRANCH  22  23
ENDBRANCH   9  22
TORSDOF 8
ENDMDL
