MODEL 1
REMARK VINA RESULT:      -8.6      0.000      0.000
REMARK  Name = 
REMARK  3 active torsions:
REMARK  status: ('A' for Active; 'I' for Inactive)
REMARK    1  A    between atoms: C_8  and  O_9
REMARK    2  A    between atoms: O_9  and  C_10
REMARK    3  A    between atoms: C_16  and  N_17
REMARK                            x       y       z     vdW  Elec       q    Type
REMARK                         _______ _______ _______ _____ _____    ______ ____
ROOT
ATOM      1  O   UNL     1       1.463   2.599  22.325  0.00  0.00    +0.000 OA
ATOM      2  C   UNL     1       1.743   2.879  21.169  0.00  0.00    +0.000 A 
ATOM      3  C   UNL     1       0.719   2.837  20.109  0.00  0.00    +0.000 A 
ATOM      4  C   UNL     1       1.004   3.062  18.822  0.00  0.00    +0.000 A 
ATOM      5  C   UNL     1       2.374   3.360  18.432  0.00  0.00    +0.000 A 
ATOM      6  C   UNL     1       2.758   3.526  17.100  0.00  0.00    +0.000 A 
ATOM      7  C   UNL     1       4.102   3.772  16.782  0.00  0.00    +0.000 A 
ATOM      8  C   UNL     1       5.062   3.869  17.795  0.00  0.00    +0.000 A 
ATOM      9  C   UNL     1       4.663   3.794  19.132  0.00  0.00    +0.000 A 
ATOM     10  C   UNL     1       3.337   3.490  19.429  0.00  0.00    +0.000 A 
ATOM     11  O   UNL     1       3.020   3.269  20.784  0.00  0.00    +0.000 OA
ENDROOT
BRANCH   8  12
ATOM     12  O   UNL     1       6.368   4.053  17.389  0.00  0.00    +0.000 OA
BRANCH  12  13
ATOM     13  C   UNL     1       7.002   5.247  17.665  0.00  0.00    +0.000 A 
ATOM     14  C   UNL     1       7.747   5.463  18.834  0.00  0.00    +0.000 A 
ATOM     15  C   UNL     1       8.257   6.728  19.131  0.00  0.00    +0.000 A 
ATOM     16  C   UNL     1       8.097   7.775  18.225  0.00  0.00    +0.000 A 
ATOM     17 CL   UNL     1       8.717   9.331  18.611  0.00  0.00    +0.000 Cl
ATOM     18  C   UNL     1       7.453   7.565  17.011  0.00  0.00    +0.000 A 
ATOM     19  C   UNL     1       6.921   6.296  16.743  0.00  0.00    +0.000 A 
BRANCH  19  20
ATOM     20  N   UNL     1       6.287   6.089  15.455  0.00  0.00    +0.000 N 
ATOM     21  O   UNL     1       6.915   5.439  14.610  0.00  0.00    +0.000 OA
ATOM     22  O   UNL     1       5.188   6.633  15.280  0.00  0.00    +0.000 OA
ENDBRANCH  19  20
ENDBRANCH  12  13
ENDBRANCH   8  12
TORSDOF 3
ENDMDL
MODEL 2
REMARK VINA RESULT:      -7.6      3.561      4.652
REMARK  Name = 
REMARK  3 active torsions:
REMARK  status: ('A' for Active; 'I' for Inactive)
REMARK    1  A    between atoms: C_8  and  O_9
REMARK    2  A    between atoms: O_9  and  C_10
REMARK    3  A    between atoms: C_16  and  N_17
REMARK                            x       y       z     vdW  Elec       q    Type
REMARK                         _______ _______ _______ _____ _____    ______ ____
ROOT
ATOM      1  O   UNL     1       1.627  10.228  18.018  0.00  0.00    +0.000 OA
ATOM      2  C   UNL     1       1.841   9.123  18.496  0.00  0.00    +0.000 A 
ATOM      3  C   UNL     1       1.316   8.757  19.823  0.00  0.00    +0.000 A 
ATOM      4  C   UNL     1       1.592   7.588  20.411  0.00  0.00    +0.000 A 
ATOM      5  C   UNL     1       2.446   6.627  19.729  0.00  0.00    +0.000 A 
ATOM      6  C   UNL     1       2.841   5.423  20.315  0.00  0.00    +0.000 A 
ATOM      7  C   UNL     1       3.699   4.554  19.625  0.00  0.00    +0.000 A 
ATOM      8  C   UNL     1       4.151   4.878  18.341  0.00  0.00    +0.000 A 
ATOM      9  C   UNL     1       3.682   6.038  17.719  0.00  0.00    +0.000 A 
ATOM     10  C   UNL     1       2.880   6.919  18.439  0.00  0.00    +0.000 A 
ATOM     11  O   UNL     1       2.565   8.147  17.823  0.00  0.00    +0.000 OA
ENDROOT
BRANCH   8  12
ATOM     12  O   UNL     1       5.037   3.995  17.760  0.00  0.00    +0.000 OA
BRANCH  12  13
ATOM     13  C   UNL     1       5.597   4.302  16.537  0.00  0.00    +0.000 A 
ATOM     14  C   UNL     1       4.952   4.052  15.317  0.00  0.00    +0.000 A 
ATOM     15  C   UNL     1       5.614   4.256  14.105  0.00  0.00    +0.000 A 
ATOM     16  C   UNL     1       6.901   4.789  14.094  0.00  0.00    +0.000 A 
ATOM     17 CL   UNL     1       7.710   5.021  12.595  0.00  0.00    +0.000 Cl
ATOM     18  C   UNL     1       7.528   5.144  15.284  0.00  0.00    +0.000 A 
ATOM     19  C   UNL     1       6.860   4.903  16.492  0.00  0.00    +0.000 A 
BRANCH  19  20
ATOM     20  N   UNL     1       7.516   5.316  17.718  0.00  0.00    +0.000 N 
ATOM     21  O   UNL     1       7.548   6.528  17.966  0.00  0.00    +0.000 OA
ATOM     22  O   UNL     1       8.049   4.424  18.394  0.00  0.00    +0.000 OA
ENDBRANCH  19  20
ENDBRANCH  12  13
ENDBRANCH   8  12
TORSDOF 3
ENDMDL
MODEL 3
REMARK VINA RESULT:      -7.5      4.952      5.598
REMARK  Name = 
REMARK  3 active torsions:
REMARK  status: ('A' for Active; 'I' for Inactive)
REMARK    1  A    between atoms: C_8  and  O_9
REMARK    2  A    between atoms: O_9  and  C_10
REMARK    3  A    between atoms: C_16  and  N_17
REMARK                            x       y       z     vdW  Elec       q    Type
REMARK                         _______ _______ _______ _____ _____    ______ ____
ROOT
ATOM      1  O   UNL     1       0.234   9.663  23.716  0.00  0.00    +0.000 OA
ATOM      2  C   UNL     1       0.491   9.699  22.522  0.00  0.00    +0.000 A 
ATOM      3  C   UNL     1       0.131  10.871  21.704  0.00  0.00    +0.000 A 
ATOM      4  C   UNL     1       0.326  10.915  20.382  0.00  0.00    +0.000 A 
ATOM      5  C   UNL     1       0.915   9.770  19.705  0.00  0.00    +0.000 A 
ATOM      6  C   UNL     1       1.075   9.714  18.319  0.00  0.00    +0.000 A 
ATOM      7  C   UNL     1       1.612   8.566  17.719  0.00  0.00    +0.000 A 
ATOM      8  C   UNL     1       2.007   7.477  18.503  0.00  0.00    +0.000 A 
ATOM      9  C   UNL     1       1.932   7.568  19.896  0.00  0.00    +0.000 A 
ATOM     10  C   UNL     1       1.342   8.689  20.473  0.00  0.00    +0.000 A 
ATOM     11  O   UNL     1       1.147   8.664  21.868  0.00  0.00    +0.000 OA
ENDROOT
BRANCH   8  12
ATOM     12  O   UNL     1       2.469   6.367  17.827  0.00  0.00    +0.000 OA
BRANCH  12  13
ATOM     13  C   UNL     1       3.792   5.996  17.956  0.00  0.00    +0.000 A 
ATOM     14  C   UNL     1       4.856   6.794  17.512  0.00  0.00    +0.000 A 
ATOM     15  C   UNL     1       6.168   6.317  17.542  0.00  0.00    +0.000 A 
ATOM     16  C   UNL     1       6.442   5.066  18.093  0.00  0.00    +0.000 A 
ATOM     17 CL   UNL     1       8.059   4.485  18.111  0.00  0.00    +0.000 Cl
ATOM     18  C   UNL     1       5.420   4.295  18.636  0.00  0.00    +0.000 A 
ATOM     19  C   UNL     1       4.106   4.777  18.568  0.00  0.00    +0.000 A 
BRANCH  19  20
ATOM     20  N   UNL     1       3.061   3.974  19.175  0.00  0.00    +0.000 N 
ATOM     21  O   UNL     1       2.832   4.154  20.377  0.00  0.00    +0.000 OA
ATOM     22  O   UNL     1       2.520   3.125  18.453  0.00  0.00    +0.000 OA
ENDBRANCH  19  20
ENDBRANCH  12  13
ENDBRANCH   8  12
TORSDOF 3
ENDMDL
MODEL 4
REMARK VINA RESULT:      -7.5      5.179      5.867
REMARK  Name = 
REMARK  3 active torsions:
REMARK  status: ('A' for Active; 'I' for Inactive)
REMARK    1  A    between atoms: C_8  and  O_9
REMARK    2  A    between atoms: O_9  and  C_10
REMARK    3  A    between atoms: C_16  and  N_17
REMARK                            x       y       z     vdW  Elec       q    Type
REMARK                         _______ _______ _______ _____ _____    ______ ____
ROOT
ATOM      1  O   UNL     1      -0.888  11.201  22.039  0.00  0.00    +0.000 OA
ATOM      2  C   UNL     1      -0.225  10.694  21.146  0.00  0.00    +0.000 A 
ATOM      3  C   UNL     1      -0.148  11.318  19.813  0.00  0.00    +0.000 A 
ATOM      4  C   UNL     1       0.504  10.754  18.790  0.00  0.00    +0.000 A 
ATOM      5  C   UNL     1       1.168   9.474  18.981  0.00  0.00    +0.000 A 
ATOM      6  C   UNL     1       1.798   8.790  17.940  0.00  0.00    +0.000 A 
ATOM      7  C   UNL     1       2.386   7.539  18.176  0.00  0.00    +0.000 A 
ATOM      8  C   UNL     1       2.362   6.975  19.456  0.00  0.00    +0.000 A 
ATOM      9  C   UNL     1       1.813   7.700  20.517  0.00  0.00    +0.000 A 
ATOM     10  C   UNL     1       1.180   8.912  20.255  0.00  0.00    +0.000 A 
ATOM     11  O   UNL     1       0.505   9.527  21.330  0.00  0.00    +0.000 OA
ENDROOT
BRANCH   8  12
ATOM     12  O   UNL     1       2.912   5.717  19.585  0.00  0.00    +0.000 OA
BRANCH  12  13
ATOM     13  C   UNL     1       3.791   5.258  18.626  0.00  0.00    +0.000 A 
ATOM     14  C   UNL     1       5.106   5.730  18.507  0.00  0.00    +0.000 A 
ATOM     15  C   UNL     1       5.913   5.334  17.438  0.00  0.00    +0.000 A 
ATOM     16  C   UNL     1       5.442   4.399  16.519  0.00  0.00    +0.000 A 
ATOM     17 CL   UNL     1       6.440   3.932  15.200  0.00  0.00    +0.000 Cl
ATOM     18  C   UNL     1       4.180   3.835  16.669  0.00  0.00    +0.000 A 
ATOM     19  C   UNL     1       3.373   4.268  17.730  0.00  0.00    +0.000 A 
BRANCH  19  20
ATOM     20  N   UNL     1       2.076   3.639  17.890  0.00  0.00    +0.000 N 
ATOM     21  O   UNL     1       1.109   4.183  17.342  0.00  0.00    +0.000 OA
ATOM     22  O   UNL     1       2.027   2.637  18.616  0.00  0.00    +0.000 OA
ENDBRANCH  19  20
ENDBRANCH  12  13
ENDBRANCH   8  12
TORSDOF 3
ENDMDL
MODEL 5
REMARK VINA RESULT:      -7.3      6.207      7.155
REMARK  Name = 
REMARK  3 active torsions:
REMARK  status: ('A' for Active; 'I' for Inactive)
REMARK    1  A    between atoms: C_8  and  O_9
REMARK    2  A    between atoms: O_9  and  C_10
REMARK    3  A    between atoms: C_16  and  N_17
REMARK                            x       y       z     vdW  Elec       q    Type
REMARK                         _______ _______ _______ _____ _____    ______ ____
ROOT
ATOM      1  O   UNL     1       2.265   3.094  22.140  0.00  0.00    +0.000 OA
ATOM      2  C   UNL     1       2.398   3.787  21.143  0.00  0.00    +0.000 A 
ATOM      3  C   UNL     1       3.017   3.245  19.920  0.00  0.00    +0.000 A 
ATOM      4  C   UNL     1       3.248   3.994  18.836  0.00  0.00    +0.000 A 
ATOM      5  C   UNL     1       2.882   5.401  18.846  0.00  0.00    +0.000 A 
ATOM      6  C   UNL     1       3.166   6.261  17.782  0.00  0.00    +0.000 A 
ATOM      7  C   UNL     1       2.825   7.619  17.866  0.00  0.00    +0.000 A 
ATOM      8  C   UNL     1       2.185   8.119  19.005  0.00  0.00    +0.000 A 
ATOM      9  C   UNL     1       1.819   7.242  20.030  0.00  0.00    +0.000 A 
ATOM     10  C   UNL     1       2.218   5.910  19.959  0.00  0.00    +0.000 A 
ATOM     11  O   UNL     1       1.963   5.105  21.087  0.00  0.00    +0.000 OA
ENDROOT
BRANCH   8  12
ATOM     12  O   UNL     1       1.940   9.476  19.027  0.00  0.00    +0.000 OA
BRANCH  12  13
ATOM     13  C   UNL     1       0.641   9.933  18.934  0.00  0.00    +0.000 A 
ATOM     14  C   UNL     1      -0.226   9.562  17.897  0.00  0.00    +0.000 A 
ATOM     15  C   UNL     1      -1.485  10.154  17.773  0.00  0.00    +0.000 A 
ATOM     16  C   UNL     1      -1.923  11.066  18.731  0.00  0.00    +0.000 A 
ATOM     17 CL   UNL     1      -3.468  11.799  18.557  0.00  0.00    +0.000 Cl
ATOM     18  C   UNL     1      -1.127  11.376  19.827  0.00  0.00    +0.000 A 
ATOM     19  C   UNL     1       0.146  10.796  19.918  0.00  0.00    +0.000 A 
BRANCH  19  20
ATOM     20  N   UNL     1       0.944  11.103  21.089  0.00  0.00    +0.000 N 
ATOM     21  O   UNL     1       0.864  10.329  22.052  0.00  0.00    +0.000 OA
ATOM     22  O   UNL     1       1.601  12.153  21.058  0.00  0.00    +0.000 OA
ENDBRANCH  19  20
ENDBRANCH  12  13
ENDBRANCH   8  12
TORSDOF 3
ENDMDL
MODEL 6
REMARK VINA RESULT:      -7.3      7.555      8.841
REMARK  Name = 
REMARK  3 active torsions:
REMARK  status: ('A' for Active; 'I' for Inactive)
REMARK    1  A    between atoms: C_8  and  O_9
REMARK    2  A    between atoms: O_9  and  C_10
REMARK    3  A    between atoms: C_16  and  N_17
REMARK                            x       y       z     vdW  Elec       q    Type
REMARK                         _______ _______ _______ _____ _____    ______ ____
ROOT
ATOM      1  O   UNL     1      -3.810  10.063  14.270  0.00  0.00    +0.000 OA
ATOM      2  C   UNL     1      -3.499  10.365  15.412  0.00  0.00    +0.000 A 
ATOM      3  C   UNL     1      -4.394  11.182  16.251  0.00  0.00    +0.000 A 
ATOM      4  C   UNL     1      -4.055  11.597  17.476  0.00  0.00    +0.000 A 
ATOM      5  C   UNL     1      -2.754  11.239  18.020  0.00  0.00    +0.000 A 
ATOM      6  C   UNL     1      -2.302  11.703  19.257  0.00  0.00    +0.000 A 
ATOM      7  C   UNL     1      -1.020  11.357  19.711  0.00  0.00    +0.000 A 
ATOM      8  C   UNL     1      -0.194  10.534  18.938  0.00  0.00    +0.000 A 
ATOM      9  C   UNL     1      -0.681   9.996  17.744  0.00  0.00    +0.000 A 
ATOM     10  C   UNL     1      -1.930  10.396  17.278  0.00  0.00    +0.000 A 
ATOM     11  O   UNL     1      -2.308   9.950  15.996  0.00  0.00    +0.000 OA
ENDROOT
BRANCH   8  12
ATOM     12  O   UNL     1       1.071  10.293  19.434  0.00  0.00    +0.000 OA
BRANCH  12  13
ATOM     13  C   UNL     1       1.554   9.001  19.461  0.00  0.00    +0.000 A 
ATOM     14  C   UNL     1       2.222   8.413  18.378  0.00  0.00    +0.000 A 
ATOM     15  C   UNL     1       2.572   7.061  18.404  0.00  0.00    +0.000 A 
ATOM     16  C   UNL     1       2.331   6.301  19.546  0.00  0.00    +0.000 A 
ATOM     17 CL   UNL     1       2.754   4.635  19.560  0.00  0.00    +0.000 Cl
ATOM     18  C   UNL     1       1.764   6.882  20.675  0.00  0.00    +0.000 A 
ATOM     19  C   UNL     1       1.390   8.232  20.619  0.00  0.00    +0.000 A 
BRANCH  19  20
ATOM     20  N   UNL     1       0.835   8.828  21.819  0.00  0.00    +0.000 N 
ATOM     21  O   UNL     1       1.624   9.377  22.598  0.00  0.00    +0.000 OA
ATOM     22  O   UNL     1      -0.382   8.687  22.001  0.00  0.00    +0.000 OA
ENDBRANCH  19  20
ENDBRANCH  12  13
ENDBRANCH   8  12
TORSDOF 3
ENDMDL
MODEL 7
REMARK VINA RESULT:      -7.2      3.487      6.592
REMARK  Name = 
REMARK  3 active torsions:
REMARK  status: ('A' for Active; 'I' for Inactive)
REMARK    1  A    between atoms: C_8  and  O_9
REMARK    2  A    between atoms: O_9  and  C_10
REMARK    3  A    between atoms: C_16  and  N_17
REMARK                            x       y       z     vdW  Elec       q    Type
REMARK                         _______ _______ _______ _____ _____    ______ ____
ROOT
ATOM      1  O   UNL     1       5.254   2.613  11.421  0.00  0.00    +0.000 OA
ATOM      2  C   UNL     1       5.754   3.283  12.312  0.00  0.00    +0.000 A 
ATOM      3  C   UNL     1       6.856   4.221  12.028  0.00  0.00    +0.000 A 
ATOM      4  C   UNL     1       7.478   4.913  12.988  0.00  0.00    +0.000 A 
ATOM      5  C   UNL     1       7.068   4.746  14.373  0.00  0.00    +0.000 A 
ATOM      6  C   UNL     1       7.724   5.374  15.434  0.00  0.00    +0.000 A 
ATOM      7  C   UNL     1       7.309   5.143  16.753  0.00  0.00    +0.000 A 
ATOM      8  C   UNL     1       6.226   4.297  17.016  0.00  0.00    +0.000 A 
ATOM      9  C   UNL     1       5.512   3.741  15.951  0.00  0.00    +0.000 A 
ATOM     10  C   UNL     1       5.973   3.932  14.651  0.00  0.00    +0.000 A 
ATOM     11  O   UNL     1       5.313   3.222  13.628  0.00  0.00    +0.000 OA
ENDROOT
BRANCH   8  12
ATOM     12  O   UNL     1       5.922   4.080  18.344  0.00  0.00    +0.000 OA
BRANCH  12  13
ATOM     13  C   UNL     1       4.728   4.547  18.853  0.00  0.00    +0.000 A 
ATOM     14  C   UNL     1       4.292   5.870  18.686  0.00  0.00    +0.000 A 
ATOM     15  C   UNL     1       3.143   6.330  19.332  0.00  0.00    +0.000 A 
ATOM     16  C   UNL     1       2.370   5.451  20.089  0.00  0.00    +0.000 A 
ATOM     17 CL   UNL     1       0.966   6.034  20.891  0.00  0.00    +0.000 Cl
ATOM     18  C   UNL     1       2.720   4.109  20.188  0.00  0.00    +0.000 A 
ATOM     19  C   UNL     1       3.894   3.673  19.558  0.00  0.00    +0.000 A 
BRANCH  19  20
ATOM     20  N   UNL     1       4.220   2.262  19.643  0.00  0.00    +0.000 N 
ATOM     21  O   UNL     1       4.986   1.908  20.547  0.00  0.00    +0.000 OA
ATOM     22  O   UNL     1       3.752   1.527  18.762  0.00  0.00    +0.000 OA
ENDBRANCH  19  20
ENDBRANCH  12  13
ENDBRANCH   8  12
TORSDOF 3
ENDMDL
MODEL 8
REMARK VINA RESULT:      -7.2      3.373      6.733
REMARK  Name = 
REMARK  3 active torsions:
REMARK  status: ('A' for Active; 'I' for Inactive)
REMARK    1  A    between atoms: C_8  and  O_9
REMARK    2  A    between atoms: O_9  and  C_10
REMARK    3  A    between atoms: C_16  and  N_17
REMARK                            x       y       z     vdW  Elec       q    Type
REMARK                         _______ _______ _______ _____ _____    ______ ____
ROOT
ATOM      1  O   UNL     1       8.854   6.409  12.248  0.00  0.00    +0.000 OA
ATOM      2  C   UNL     1       8.112   5.655  12.859  0.00  0.00    +0.000 A 
ATOM      3  C   UNL     1       7.227   4.718  12.144  0.00  0.00    +0.000 A 
ATOM      4  C   UNL     1       6.347   3.933  12.774  0.00  0.00    +0.000 A 
ATOM      5  C   UNL     1       6.243   3.993  14.224  0.00  0.00    +0.000 A 
ATOM      6  C   UNL     1       5.293   3.263  14.941  0.00  0.00    +0.000 A 
ATOM      7  C   UNL     1       5.214   3.392  16.335  0.00  0.00    +0.000 A 
ATOM      8  C   UNL     1       6.093   4.239  17.019  0.00  0.00    +0.000 A 
ATOM      9  C   UNL     1       7.102   4.899  16.312  0.00  0.00    +0.000 A 
ATOM     10  C   UNL     1       7.130   4.807  14.923  0.00  0.00    +0.000 A 
ATOM     11  O   UNL     1       8.066   5.615  14.247  0.00  0.00    +0.000 OA
ENDROOT
BRANCH   8  12
ATOM     12  O   UNL     1       5.907   4.351  18.381  0.00  0.00    +0.000 OA
BRANCH  12  13
ATOM     13  C   UNL     1       4.683   4.765  18.867  0.00  0.00    +0.000 A 
ATOM     14  C   UNL     1       4.197   6.069  18.697  0.00  0.00    +0.000 A 
ATOM     15  C   UNL     1       3.016   6.476  19.322  0.00  0.00    +0.000 A 
ATOM     16  C   UNL     1       2.265   5.562  20.058  0.00  0.00    +0.000 A 
ATOM     17 CL   UNL     1       0.822   6.081  20.834  0.00  0.00    +0.000 Cl
ATOM     18  C   UNL     1       2.669   4.235  20.158  0.00  0.00    +0.000 A 
ATOM     19  C   UNL     1       3.873   3.852  19.551  0.00  0.00    +0.000 A 
BRANCH  19  20
ATOM     20  N   UNL     1       4.255   2.456  19.635  0.00  0.00    +0.000 N 
ATOM     21  O   UNL     1       3.680   1.662  18.880  0.00  0.00    +0.000 OA
ATOM     22  O   UNL     1       5.088   2.156  20.502  0.00  0.00    +0.000 OA
ENDBRANCH  19  20
ENDBRANCH  12  13
ENDBRANCH   8  12
TORSDOF 3
ENDMDL
MODEL 9
REMARK VINA RESULT:      -7.2      3.411      6.575
REMARK  Name = 
REMARK  3 active torsions:
REMARK  status: ('A' for Active; 'I' for Inactive)
REMARK    1  A    between atoms: C_8  and  O_9
REMARK    2  A    between atoms: O_9  and  C_10
REMARK    3  A    between atoms: C_16  and  N_17
REMARK                            x       y       z     vdW  Elec       q    Type
REMARK                         _______ _______ _______ _____ _____    ______ ____
ROOT
ATOM      1  O   UNL     1       5.087   3.412  12.060  0.00  0.00    +0.000 OA
ATOM      2  C   UNL     1       5.545   3.791  13.128  0.00  0.00    +0.000 A 
ATOM      3  C   UNL     1       6.921   4.312  13.220  0.00  0.00    +0.000 A 
ATOM      4  C   UNL     1       7.482   4.664  14.381  0.00  0.00    +0.000 A 
ATOM      5  C   UNL     1       6.721   4.533  15.614  0.00  0.00    +0.000 A 
ATOM      6  C   UNL     1       7.269   4.805  16.870  0.00  0.00    +0.000 A 
ATOM      7  C   UNL     1       6.498   4.621  18.027  0.00  0.00    +0.000 A 
ATOM      8  C   UNL     1       5.174   4.182  17.933  0.00  0.00    +0.000 A 
ATOM      9  C   UNL     1       4.597   3.998  16.673  0.00  0.00    +0.000 A 
ATOM     10  C   UNL     1       5.392   4.126  15.537  0.00  0.00    +0.000 A 
ATOM     11  O   UNL     1       4.806   3.776  14.304  0.00  0.00    +0.000 OA
ENDROOT
BRANCH   8  12
ATOM     12  O   UNL     1       4.508   3.972  19.123  0.00  0.00    +0.000 OA
BRANCH  12  13
ATOM     13  C   UNL     1       3.531   4.861  19.520  0.00  0.00    +0.000 A 
ATOM     14  C   UNL     1       3.489   6.193  19.087  0.00  0.00    +0.000 A 
ATOM     15  C   UNL     1       2.560   7.089  19.620  0.00  0.00    +0.000 A 
ATOM     16  C   UNL     1       1.608   6.643  20.535  0.00  0.00    +0.000 A 
ATOM     17 CL   UNL     1       0.480   7.759  21.195  0.00  0.00    +0.000 Cl
ATOM     18  C   UNL     1       1.559   5.304  20.906  0.00  0.00    +0.000 A 
ATOM     19  C   UNL     1       2.519   4.426  20.384  0.00  0.00    +0.000 A 
BRANCH  19  20
ATOM     20  N   UNL     1       2.425   3.027  20.754  0.00  0.00    +0.000 N 
ATOM     21  O   UNL     1       2.936   2.688  21.829  0.00  0.00    +0.000 OA
ATOM     22  O   UNL     1       1.893   2.267  19.933  0.00  0.00    +0.000 OA
ENDBRANCH  19  20
ENDBRANCH  12  13
ENDBRANCH   8  12
TORSDOF 3
ENDMDL
