MODEL 1
REMARK VINA RESULT:      -7.6      0.000      0.000
REMARK  Name = 
REMARK  7 active torsions:
REMARK  status: ('A' for Active; 'I' for Inactive)
REMARK    1  A    between atoms: C_1  and  C_2
REMARK    2  A    between atoms: C_2  and  C_3
REMARK    3  A    between atoms: C_2  and  C_4
REMARK    4  A    between atoms: C_4  and  C_5
REMARK    5  A    between atoms: C_5  and  N_6
REMARK    6  A    between atoms: C_10  and  C_11
REMARK    7  A    between atoms: C_15  and  O_16
REMARK                            x       y       z     vdW  Elec       q    Type
REMARK                         _______ _______ _______ _____ _____    ______ ____
ROOT
ATOM      1  N   UNL     1       5.721   4.760  16.236  0.00  0.00    +0.000 NA
ATOM      2  C   UNL     1       5.320   6.098  15.777  0.00  0.00    +0.000 C 
ATOM      3  C   UNL     1       4.938   7.004  16.948  0.00  0.00    +0.000 C 
ATOM      4  C   UNL     1       3.805   6.402  17.765  0.00  0.00    +0.000 C 
ATOM      5  C   UNL     1       4.158   4.975  18.207  0.00  0.00    +0.000 C 
ATOM      6  C   UNL     1       4.631   4.122  17.007  0.00  0.00    +0.000 C 
ENDROOT
BRANCH   5   7
ATOM      7  C   UNL     1       2.993   4.322  18.934  0.00  0.00    +0.000 A 
ATOM      8  C   UNL     1       2.709   4.660  20.266  0.00  0.00    +0.000 A 
ATOM      9  C   UNL     1       1.637   4.067  20.937  0.00  0.00    +0.000 A 
ATOM     10  C   UNL     1       0.832   3.129  20.292  0.00  0.00    +0.000 A 
ATOM     11  C   UNL     1       1.109   2.790  18.973  0.00  0.00    +0.000 A 
ATOM     12  C   UNL     1       2.175   3.375  18.297  0.00  0.00    +0.000 A 
BRANCH  11  13
ATOM     13  O   UNL     1       0.351   1.882  18.295  0.00  0.00    +0.000 OA
ATOM     14  H   UNL     1       0.770   1.010  18.377  0.00  0.00    +0.000 HD
ENDBRANCH  11  13
ENDBRANCH   5   7
BRANCH   1  15
ATOM     15  C   UNL     1       6.091   3.888  15.102  0.00  0.00    +0.000 C 
BRANCH  15  16
ATOM     16  C   UNL     1       5.335   4.171  13.791  0.00  0.00    +0.000 C 
BRANCH  16  18
ATOM     17  C   UNL     1       4.666   3.207  11.534  0.00  0.00    +0.000 C 
ATOM     18  C   UNL     1       5.768   3.308  12.590  0.00  0.00    +0.000 C 
ATOM     19  C   UNL     1       7.034   3.895  11.959  0.00  0.00    +0.000 C 
ENDBRANCH  16  18
ENDBRANCH  15  16
ENDBRANCH   1  15
TORSDOF 5
ENDMDL
MODEL 2
REMARK VINA RESULT:      -7.5      1.105      1.537
REMARK  Name = 
REMARK  7 active torsions:
REMARK  status: ('A' for Active; 'I' for Inactive)
REMARK    1  A    between atoms: C_1  and  C_2
REMARK    2  A    between atoms: C_2  and  C_3
REMARK    3  A    between atoms: C_2  and  C_4
REMARK    4  A    between atoms: C_4  and  C_5
REMARK    5  A    between atoms: C_5  and  N_6
REMARK    6  A    between atoms: C_10  and  C_11
REMARK    7  A    between atoms: C_15  and  O_16
REMARK                            x       y       z     vdW  Elec       q    Type
REMARK                         _______ _______ _______ _____ _____    ______ ____
ROOT
ATOM      1  N   UNL     1       5.768   4.700  16.234  0.00  0.00    +0.000 NA
ATOM      2  C   UNL     1       5.328   6.041  15.818  0.00  0.00    +0.000 C 
ATOM      3  C   UNL     1       4.909   6.893  17.016  0.00  0.00    +0.000 C 
ATOM      4  C   UNL     1       3.788   6.229  17.801  0.00  0.00    +0.000 C 
ATOM      5  C   UNL     1       4.182   4.799  18.197  0.00  0.00    +0.000 C 
ATOM      6  C   UNL     1       4.691   4.003  16.972  0.00  0.00    +0.000 C 
ENDROOT
BRANCH   5   7
ATOM      7  C   UNL     1       3.031   4.086  18.890  0.00  0.00    +0.000 A 
ATOM      8  C   UNL     1       1.946   3.601  18.145  0.00  0.00    +0.000 A 
ATOM      9  C   UNL     1       0.888   2.941  18.775  0.00  0.00    +0.000 A 
ATOM     10  C   UNL     1       0.896   2.754  20.157  0.00  0.00    +0.000 A 
ATOM     11  C   UNL     1       1.969   3.233  20.900  0.00  0.00    +0.000 A 
ATOM     12  C   UNL     1       3.025   3.892  20.281  0.00  0.00    +0.000 A 
BRANCH  11  13
ATOM     13  O   UNL     1       2.027   3.074  22.252  0.00  0.00    +0.000 OA
ATOM     14  H   UNL     1       1.373   2.404  22.512  0.00  0.00    +0.000 HD
ENDBRANCH  11  13
ENDBRANCH   5   7
BRANCH   1  15
ATOM     15  C   UNL     1       6.173   3.881  15.075  0.00  0.00    +0.000 C 
BRANCH  15  16
ATOM     16  C   UNL     1       5.408   4.172  13.772  0.00  0.00    +0.000 C 
BRANCH  16  18
ATOM     17  C   UNL     1       4.684   3.163  11.551  0.00  0.00    +0.000 C 
ATOM     18  C   UNL     1       5.820   3.308  12.565  0.00  0.00    +0.000 C 
ATOM     19  C   UNL     1       7.045   3.924  11.881  0.00  0.00    +0.000 C 
ENDBRANCH  16  18
ENDBRANCH  15  16
ENDBRANCH   1  15
TORSDOF 5
ENDMDL
MODEL 3
REMARK VINA RESULT:      -7.4      1.309      1.387
REMARK  Name = 
REMARK  7 active torsions:
REMARK  status: ('A' for Active; 'I' for Inactive)
REMARK    1  A    between atoms: C_1  and  C_2
REMARK    2  A    between atoms: C_2  and  C_3
REMARK    3  A    between atoms: C_2  and  C_4
REMARK    4  A    between atoms: C_4  and  C_5
REMARK    5  A    between atoms: C_5  and  N_6
REMARK    6  A    between atoms: C_10  and  C_11
REMARK    7  A    between atoms: C_15  and  O_16
REMARK                            x       y       z     vdW  Elec       q    Type
REMARK                         _______ _______ _______ _____ _____    ______ ____
ROOT
ATOM      1  N   UNL     1       6.758   4.685  16.298  0.00  0.00    +0.000 NA
ATOM      2  C   UNL     1       7.322   5.879  16.945  0.00  0.00    +0.000 C 
ATOM      3  C   UNL     1       7.366   5.728  18.466  0.00  0.00    +0.000 C 
ATOM      4  C   UNL     1       5.980   5.467  19.035  0.00  0.00    +0.000 C 
ATOM      5  C   UNL     1       5.327   4.266  18.336  0.00  0.00    +0.000 C 
ATOM      6  C   UNL     1       5.392   4.415  16.798  0.00  0.00    +0.000 C 
ENDROOT
BRANCH   5   7
ATOM      7  C   UNL     1       3.901   4.059  18.820  0.00  0.00    +0.000 A 
ATOM      8  C   UNL     1       3.284   5.014  19.642  0.00  0.00    +0.000 A 
ATOM      9  C   UNL     1       1.973   4.832  20.085  0.00  0.00    +0.000 A 
ATOM     10  C   UNL     1       1.255   3.694  19.717  0.00  0.00    +0.000 A 
ATOM     11  C   UNL     1       1.861   2.744  18.903  0.00  0.00    +0.000 A 
ATOM     12  C   UNL     1       3.166   2.917  18.458  0.00  0.00    +0.000 A 
BRANCH  11  13
ATOM     13  O   UNL     1       1.202   1.617  18.512  0.00  0.00    +0.000 OA
ATOM     14  H   UNL     1       1.736   0.846  18.763  0.00  0.00    +0.000 HD
ENDBRANCH  11  13
ENDBRANCH   5   7
BRANCH   1  15
ATOM     15  C   UNL     1       6.719   4.834  14.829  0.00  0.00    +0.000 C 
BRANCH  15  16
ATOM     16  C   UNL     1       5.550   4.113  14.133  0.00  0.00    +0.000 C 
BRANCH  16  18
ATOM     17  C   UNL     1       4.725   3.397  11.836  0.00  0.00    +0.000 C 
ATOM     18  C   UNL     1       5.908   3.421  12.804  0.00  0.00    +0.000 C 
ATOM     19  C   UNL     1       7.094   4.137  12.150  0.00  0.00    +0.000 C 
ENDBRANCH  16  18
ENDBRANCH  15  16
ENDBRANCH   1  15
TORSDOF 5
ENDMDL
MODEL 4
REMARK VINA RESULT:      -7.4      1.550      1.962
REMARK  Name = 
REMARK  7 active torsions:
REMARK  status: ('A' for Active; 'I' for Inactive)
REMARK    1  A    between atoms: C_1  and  C_2
REMARK    2  A    between atoms: C_2  and  C_3
REMARK    3  A    between atoms: C_2  and  C_4
REMARK    4  A    between atoms: C_4  and  C_5
REMARK    5  A    between atoms: C_5  and  N_6
REMARK    6  A    between atoms: C_10  and  C_11
REMARK    7  A    between atoms: C_15  and  O_16
REMARK                            x       y       z     vdW  Elec       q    Type
REMARK                         _______ _______ _______ _____ _____    ______ ____
ROOT
ATOM      1  N   UNL     1       6.741   4.553  16.245  0.00  0.00    +0.000 NA
ATOM      2  C   UNL     1       7.150   5.788  16.931  0.00  0.00    +0.000 C 
ATOM      3  C   UNL     1       7.091   5.634  18.451  0.00  0.00    +0.000 C 
ATOM      4  C   UNL     1       5.692   5.255  18.913  0.00  0.00    +0.000 C 
ATOM      5  C   UNL     1       5.199   4.006  18.169  0.00  0.00    +0.000 C 
ATOM      6  C   UNL     1       5.368   4.166  16.639  0.00  0.00    +0.000 C 
ENDROOT
BRANCH   5   7
ATOM      7  C   UNL     1       3.762   3.677  18.542  0.00  0.00    +0.000 A 
ATOM      8  C   UNL     1       3.122   2.560  17.983  0.00  0.00    +0.000 A 
ATOM      9  C   UNL     1       1.804   2.250  18.326  0.00  0.00    +0.000 A 
ATOM     10  C   UNL     1       1.104   3.048  19.232  0.00  0.00    +0.000 A 
ATOM     11  C   UNL     1       1.733   4.155  19.788  0.00  0.00    +0.000 A 
ATOM     12  C   UNL     1       3.045   4.472  19.451  0.00  0.00    +0.000 A 
BRANCH  11  13
ATOM     13  O   UNL     1       1.095   4.965  20.679  0.00  0.00    +0.000 OA
ATOM     14  H   UNL     1       0.663   4.408  21.347  0.00  0.00    +0.000 HD
ENDBRANCH  11  13
ENDBRANCH   5   7
BRANCH   1  15
ATOM     15  C   UNL     1       6.801   4.705  14.777  0.00  0.00    +0.000 C 
BRANCH  15  16
ATOM     16  C   UNL     1       5.577   4.164  14.016  0.00  0.00    +0.000 C 
BRANCH  16  18
ATOM     17  C   UNL     1       4.704   3.356  11.767  0.00  0.00    +0.000 C 
ATOM     18  C   UNL     1       5.901   3.399  12.718  0.00  0.00    +0.000 C 
ATOM     19  C   UNL     1       7.094   4.052  12.016  0.00  0.00    +0.000 C 
ENDBRANCH  16  18
ENDBRANCH  15  16
ENDBRANCH   1  15
TORSDOF 5
ENDMDL
MODEL 5
REMARK VINA RESULT:      -7.3      2.797      6.433
REMARK  Name = 
REMARK  7 active torsions:
REMARK  status: ('A' for Active; 'I' for Inactive)
REMARK    1  A    between atoms: C_1  and  C_2
REMARK    2  A    between atoms: C_2  and  C_3
REMARK    3  A    between atoms: C_2  and  C_4
REMARK    4  A    between atoms: C_4  and  C_5
REMARK    5  A    between atoms: C_5  and  N_6
REMARK    6  A    between atoms: C_10  and  C_11
REMARK    7  A    between atoms: C_15  and  O_16
REMARK                            x       y       z     vdW  Elec       q    Type
REMARK                         _______ _______ _______ _____ _____    ______ ____
ROOT
ATOM      1  N   UNL     1       2.168   5.899  19.314  0.00  0.00    +0.000 NA
ATOM      2  C   UNL     1       2.307   7.348  19.528  0.00  0.00    +0.000 C 
ATOM      3  C   UNL     1       2.538   8.092  18.214  0.00  0.00    +0.000 C 
ATOM      4  C   UNL     1       3.779   7.578  17.500  0.00  0.00    +0.000 C 
ATOM      5  C   UNL     1       3.704   6.056  17.317  0.00  0.00    +0.000 C 
ATOM      6  C   UNL     1       3.372   5.350  18.652  0.00  0.00    +0.000 C 
ENDROOT
BRANCH   5   7
ATOM      7  C   UNL     1       4.984   5.514  16.700  0.00  0.00    +0.000 A 
ATOM      8  C   UNL     1       5.143   5.486  15.306  0.00  0.00    +0.000 A 
ATOM      9  C   UNL     1       6.318   4.994  14.733  0.00  0.00    +0.000 A 
ATOM     10  C   UNL     1       7.353   4.522  15.541  0.00  0.00    +0.000 A 
ATOM     11  C   UNL     1       7.200   4.547  16.923  0.00  0.00    +0.000 A 
ATOM     12  C   UNL     1       6.033   5.034  17.501  0.00  0.00    +0.000 A 
BRANCH  11  13
ATOM     13  O   UNL     1       8.182   4.101  17.756  0.00  0.00    +0.000 OA
ATOM     14  H   UNL     1       8.210   3.131  17.709  0.00  0.00    +0.000 HD
ENDBRANCH  11  13
ENDBRANCH   5   7
BRANCH   1  15
ATOM     15  C   UNL     1       1.942   5.184  20.586  0.00  0.00    +0.000 C 
BRANCH  15  16
ATOM     16  C   UNL     1       0.870   4.080  20.531  0.00  0.00    +0.000 C 
BRANCH  16  18
ATOM     17  C   UNL     1       1.713   2.044  19.261  0.00  0.00    +0.000 C 
ATOM     18  C   UNL     1       1.410   2.641  20.636  0.00  0.00    +0.000 C 
ATOM     19  C   UNL     1       2.677   2.623  21.495  0.00  0.00    +0.000 C 
ENDBRANCH  16  18
ENDBRANCH  15  16
ENDBRANCH   1  15
TORSDOF 5
ENDMDL
MODEL 6
REMARK VINA RESULT:      -7.3      1.732      2.094
REMARK  Name = 
REMARK  7 active torsions:
REMARK  status: ('A' for Active; 'I' for Inactive)
REMARK    1  A    between atoms: C_1  and  C_2
REMARK    2  A    between atoms: C_2  and  C_3
REMARK    3  A    between atoms: C_2  and  C_4
REMARK    4  A    between atoms: C_4  and  C_5
REMARK    5  A    between atoms: C_5  and  N_6
REMARK    6  A    between atoms: C_10  and  C_11
REMARK    7  A    between atoms: C_15  and  O_16
REMARK                            x       y       z     vdW  Elec       q    Type
REMARK                         _______ _______ _______ _____ _____    ______ ____
ROOT
ATOM      1  N   UNL     1       5.912   4.044  15.444  0.00  0.00    +0.000 NA
ATOM      2  C   UNL     1       6.861   5.027  15.987  0.00  0.00    +0.000 C 
ATOM      3  C   UNL     1       7.280   4.678  17.415  0.00  0.00    +0.000 C 
ATOM      4  C   UNL     1       6.074   4.595  18.339  0.00  0.00    +0.000 C 
ATOM      5  C   UNL     1       5.026   3.627  17.771  0.00  0.00    +0.000 C 
ATOM      6  C   UNL     1       4.704   3.958  16.295  0.00  0.00    +0.000 C 
ENDROOT
BRANCH   5   7
ATOM      7  C   UNL     1       3.771   3.614  18.629  0.00  0.00    +0.000 A 
ATOM      8  C   UNL     1       2.562   4.118  18.125  0.00  0.00    +0.000 A 
ATOM      9  C   UNL     1       1.404   4.104  18.906  0.00  0.00    +0.000 A 
ATOM     10  C   UNL     1       1.433   3.590  20.202  0.00  0.00    +0.000 A 
ATOM     11  C   UNL     1       2.628   3.091  20.707  0.00  0.00    +0.000 A 
ATOM     12  C   UNL     1       3.786   3.101  19.937  0.00  0.00    +0.000 A 
BRANCH  11  13
ATOM     13  O   UNL     1       2.710   2.575  21.966  0.00  0.00    +0.000 OA
ATOM     14  H   UNL     1       1.941   2.001  22.114  0.00  0.00    +0.000 HD
ENDBRANCH  11  13
ENDBRANCH   5   7
BRANCH   1  15
ATOM     15  C   UNL     1       5.512   4.384  14.064  0.00  0.00    +0.000 C 
BRANCH  15  16
ATOM     16  C   UNL     1       6.269   3.622  12.961  0.00  0.00    +0.000 C 
BRANCH  16  18
ATOM     17  C   UNL     1       4.314   3.311  11.363  0.00  0.00    +0.000 C 
ATOM     18  C   UNL     1       5.418   2.617  12.161  0.00  0.00    +0.000 C 
ATOM     19  C   UNL     1       6.316   1.819  11.211  0.00  0.00    +0.000 C 
ENDBRANCH  16  18
ENDBRANCH  15  16
ENDBRANCH   1  15
TORSDOF 5
ENDMDL
MODEL 7
REMARK VINA RESULT:      -7.2      1.294      1.562
REMARK  Name = 
REMARK  7 active torsions:
REMARK  status: ('A' for Active; 'I' for Inactive)
REMARK    1  A    between atoms: C_1  and  C_2
REMARK    2  A    between atoms: C_2  and  C_3
REMARK    3  A    between atoms: C_2  and  C_4
REMARK    4  A    between atoms: C_4  and  C_5
REMARK    5  A    between atoms: C_5  and  N_6
REMARK    6  A    between atoms: C_10  and  C_11
REMARK    7  A    between atoms: C_15  and  O_16
REMARK                            x       y       z     vdW  Elec       q    Type
REMARK                         _______ _______ _______ _____ _____    ______ ____
ROOT
ATOM      1  N   UNL     1       5.915   4.089  15.326  0.00  0.00    +0.000 NA
ATOM      2  C   UNL     1       6.879   4.991  15.974  0.00  0.00    +0.000 C 
ATOM      3  C   UNL     1       7.173   4.563  17.412  0.00  0.00    +0.000 C 
ATOM      4  C   UNL     1       5.901   4.522  18.246  0.00  0.00    +0.000 C 
ATOM      5  C   UNL     1       4.841   3.642  17.567  0.00  0.00    +0.000 C 
ATOM      6  C   UNL     1       4.646   4.046  16.087  0.00  0.00    +0.000 C 
ENDROOT
BRANCH   5   7
ATOM      7  C   UNL     1       3.528   3.676  18.335  0.00  0.00    +0.000 A 
ATOM      8  C   UNL     1       3.328   4.616  19.357  0.00  0.00    +0.000 A 
ATOM      9  C   UNL     1       2.123   4.656  20.062  0.00  0.00    +0.000 A 
ATOM     10  C   UNL     1       1.099   3.759  19.760  0.00  0.00    +0.000 A 
ATOM     11  C   UNL     1       1.292   2.825  18.748  0.00  0.00    +0.000 A 
ATOM     12  C   UNL     1       2.489   2.778  18.042  0.00  0.00    +0.000 A 
BRANCH  11  13
ATOM     13  O   UNL     1       0.322   1.929  18.411  0.00  0.00    +0.000 OA
ATOM     14  H   UNL     1      -0.153   2.267  17.634  0.00  0.00    +0.000 HD
ENDBRANCH  11  13
ENDBRANCH   5   7
BRANCH   1  15
ATOM     15  C   UNL     1       5.636   4.504  13.937  0.00  0.00    +0.000 C 
BRANCH  15  16
ATOM     16  C   UNL     1       6.306   3.640  12.853  0.00  0.00    +0.000 C 
BRANCH  16  18
ATOM     17  C   UNL     1       4.288   3.305  11.341  0.00  0.00    +0.000 C 
ATOM     18  C   UNL     1       5.379   2.620  12.165  0.00  0.00    +0.000 C 
ATOM     19  C   UNL     1       6.202   1.697  11.262  0.00  0.00    +0.000 C 
ENDBRANCH  16  18
ENDBRANCH  15  16
ENDBRANCH   1  15
TORSDOF 5
ENDMDL
MODEL 8
REMARK VINA RESULT:      -7.1      1.817      2.332
REMARK  Name = 
REMARK  7 active torsions:
REMARK  status: ('A' for Active; 'I' for Inactive)
REMARK    1  A    between atoms: C_1  and  C_2
REMARK    2  A    between atoms: C_2  and  C_3
REMARK    3  A    between atoms: C_2  and  C_4
REMARK    4  A    between atoms: C_4  and  C_5
REMARK    5  A    between atoms: C_5  and  N_6
REMARK    6  A    between atoms: C_10  and  C_11
REMARK    7  A    between atoms: C_15  and  O_16
REMARK                            x       y       z     vdW  Elec       q    Type
REMARK                         _______ _______ _______ _____ _____    ______ ____
ROOT
ATOM      1  N   UNL     1       5.819   4.013  15.797  0.00  0.00    +0.000 NA
ATOM      2  C   UNL     1       6.850   4.939  16.289  0.00  0.00    +0.000 C 
ATOM      3  C   UNL     1       7.187   4.679  17.757  0.00  0.00    +0.000 C 
ATOM      4  C   UNL     1       5.953   4.804  18.637  0.00  0.00    +0.000 C 
ATOM      5  C   UNL     1       4.826   3.900  18.116  0.00  0.00    +0.000 C 
ATOM      6  C   UNL     1       4.585   4.127  16.605  0.00  0.00    +0.000 C 
ENDROOT
BRANCH   5   7
ATOM      7  C   UNL     1       3.552   4.093  18.923  0.00  0.00    +0.000 A 
ATOM      8  C   UNL     1       2.618   3.052  19.034  0.00  0.00    +0.000 A 
ATOM      9  C   UNL     1       1.448   3.221  19.778  0.00  0.00    +0.000 A 
ATOM     10  C   UNL     1       1.190   4.432  20.421  0.00  0.00    +0.000 A 
ATOM     11  C   UNL     1       2.110   5.467  20.312  0.00  0.00    +0.000 A 
ATOM     12  C   UNL     1       3.278   5.307  19.574  0.00  0.00    +0.000 A 
BRANCH  11  13
ATOM     13  O   UNL     1       1.907   6.669  20.923  0.00  0.00    +0.000 OA
ATOM     14  H   UNL     1       2.220   6.604  21.840  0.00  0.00    +0.000 HD
ENDBRANCH  11  13
ENDBRANCH   5   7
BRANCH   1  15
ATOM     15  C   UNL     1       5.498   4.265  14.378  0.00  0.00    +0.000 C 
BRANCH  15  16
ATOM     16  C   UNL     1       6.607   3.884  13.382  0.00  0.00    +0.000 C 
BRANCH  16  18
ATOM     17  C   UNL     1       6.755   2.176  11.502  0.00  0.00    +0.000 C 
ATOM     18  C   UNL     1       6.114   3.480  11.979  0.00  0.00    +0.000 C 
ATOM     19  C   UNL     1       4.590   3.332  11.987  0.00  0.00    +0.000 C 
ENDBRANCH  16  18
ENDBRANCH  15  16
ENDBRANCH   1  15
TORSDOF 5
ENDMDL
MODEL 9
REMARK VINA RESULT:      -7.1      1.581      2.039
REMARK  Name = 
REMARK  7 active torsions:
REMARK  status: ('A' for Active; 'I' for Inactive)
REMARK    1  A    between atoms: C_1  and  C_2
REMARK    2  A    between atoms: C_2  and  C_3
REMARK    3  A    between atoms: C_2  and  C_4
REMARK    4  A    between atoms: C_4  and  C_5
REMARK    5  A    between atoms: C_5  and  N_6
REMARK    6  A    between atoms: C_10  and  C_11
REMARK    7  A    between atoms: C_15  and  O_16
REMARK                            x       y       z     vdW  Elec       q    Type
REMARK                         _______ _______ _______ _____ _____    ______ ____
ROOT
ATOM      1  N   UNL     1       6.389   4.611  16.207  0.00  0.00    +0.000 NA
ATOM      2  C   UNL     1       6.955   5.780  16.897  0.00  0.00    +0.000 C 
ATOM      3  C   UNL     1       7.078   5.541  18.402  0.00  0.00    +0.000 C 
ATOM      4  C   UNL     1       5.728   5.209  19.020  0.00  0.00    +0.000 C 
ATOM      5  C   UNL     1       5.071   4.034  18.282  0.00  0.00    +0.000 C 
ATOM      6  C   UNL     1       5.056   4.275  16.754  0.00  0.00    +0.000 C 
ENDROOT
BRANCH   5   7
ATOM      7  C   UNL     1       3.675   3.760  18.820  0.00  0.00    +0.000 A 
ATOM      8  C   UNL     1       2.551   3.943  18.001  0.00  0.00    +0.000 A 
ATOM      9  C   UNL     1       1.267   3.688  18.488  0.00  0.00    +0.000 A 
ATOM     10  C   UNL     1       1.084   3.248  19.799  0.00  0.00    +0.000 A 
ATOM     11  C   UNL     1       2.194   3.066  20.614  0.00  0.00    +0.000 A 
ATOM     12  C   UNL     1       3.476   3.318  20.138  0.00  0.00    +0.000 A 
BRANCH  11  13
ATOM     13  O   UNL     1       2.070   2.634  21.901  0.00  0.00    +0.000 OA
ATOM     14  H   UNL     1       1.165   2.817  22.202  0.00  0.00    +0.000 HD
ENDBRANCH  11  13
ENDBRANCH   5   7
BRANCH   1  15
ATOM     15  C   UNL     1       6.274   4.845  14.753  0.00  0.00    +0.000 C 
BRANCH  15  16
ATOM     16  C   UNL     1       5.752   3.646  13.940  0.00  0.00    +0.000 C 
BRANCH  16  18
ATOM     17  C   UNL     1       7.269   4.289  12.002  0.00  0.00    +0.000 C 
ATOM     18  C   UNL     1       5.883   3.788  12.412  0.00  0.00    +0.000 C 
ATOM     19  C   UNL     1       5.604   2.440  11.740  0.00  0.00    +0.000 C 
ENDBRANCH  16  18
ENDBRANCH  15  16
ENDBRANCH   1  15
TORSDOF 5
ENDMDL
