MODEL 1
REMARK VINA RESULT:      -6.2      0.000      0.000
REMARK  Name = 
REMARK  5 active torsions:
REMARK  status: ('A' for Active; 'I' for Inactive)
REMARK    1  A    between atoms: N_1  and  C_2
REMARK    2  A    between atoms: C_5  and  C_6
REMARK    3  A    between atoms: C_6  and  C_7
REMARK    4  A    between atoms: C_7  and  S_8
REMARK    5  A    between atoms: S_8  and  N_9
REMARK                            x       y       z     vdW  Elec       q    Type
REMARK                         _______ _______ _______ _____ _____    ______ ____
ROOT
ATOM      1  C   UNL     1       1.619   4.100  19.556  0.00  0.00    +0.000 A 
ATOM      2  C   UNL     1       2.205   5.300  19.979  0.00  0.00    +0.000 A 
ATOM      3  C   UNL     1       3.146   5.948  19.174  0.00  0.00    +0.000 A 
ATOM      4  C   UNL     1       3.519   5.400  17.934  0.00  0.00    +0.000 A 
ATOM      5  C   UNL     1       2.929   4.197  17.512  0.00  0.00    +0.000 A 
ATOM      6  C   UNL     1       1.984   3.553  18.317  0.00  0.00    +0.000 A 
ENDROOT
BRANCH   1   7
ATOM      7  N   UNL     1       0.670   3.441  20.375  0.00  0.00    +0.000 N 
ATOM      8  H   UNL     1       0.966   2.710  21.038  0.00  0.00    +0.000 HD
ATOM      9  H   UNL     1      -0.332   3.674  20.311  0.00  0.00    +0.000 HD
ENDBRANCH   1   7
BRANCH   4  10
ATOM     10  C   UNL     1       4.531   6.102  17.061  0.00  0.00    +0.000 C 
BRANCH  10  11
ATOM     11  C   UNL     1       5.201   5.140  16.076  0.00  0.00    +0.000 C 
BRANCH  11  12
ATOM     12  S   UNL     1       7.009   5.337  16.136  0.00  0.00    +0.000 S 
ATOM     13  O   UNL     1       7.677   5.240  14.755  0.00  0.00    +0.000 OA
ATOM     14  O   UNL     1       7.447   6.732  16.598  0.00  0.00    +0.000 OA
BRANCH  12  15
ATOM     15  N   UNL     1       7.921   4.222  17.156  0.00  0.00    +0.000 NA
ATOM     16  H   UNL     1       8.088   3.349  16.608  0.00  0.00    +0.000 HD
ATOM     17  H   UNL     1       7.324   3.985  17.978  0.00  0.00    +0.000 HD
ENDBRANCH  12  15
ENDBRANCH  11  12
ENDBRANCH  10  11
ENDBRANCH   4  10
TORSDOF 5
ENDMDL
MODEL 2
REMARK VINA RESULT:      -6.1      1.381      1.767
REMARK  Name = 
REMARK  5 active torsions:
REMARK  status: ('A' for Active; 'I' for Inactive)
REMARK    1  A    between atoms: N_1  and  C_2
REMARK    2  A    between atoms: C_5  and  C_6
REMARK    3  A    between atoms: C_6  and  C_7
REMARK    4  A    between atoms: C_7  and  S_8
REMARK    5  A    between atoms: S_8  and  N_9
REMARK                            x       y       z     vdW  Elec       q    Type
REMARK                         _______ _______ _______ _____ _____    ______ ____
ROOT
ATOM      1  C   UNL     1       1.547   3.346  19.146  0.00  0.00    +0.000 A 
ATOM      2  C   UNL     1       1.984   4.606  18.714  0.00  0.00    +0.000 A 
ATOM      3  C   UNL     1       3.095   4.718  17.874  0.00  0.00    +0.000 A 
ATOM      4  C   UNL     1       3.789   3.568  17.457  0.00  0.00    +0.000 A 
ATOM      5  C   UNL     1       3.349   2.307  17.891  0.00  0.00    +0.000 A 
ATOM      6  C   UNL     1       2.234   2.197  18.729  0.00  0.00    +0.000 A 
ENDROOT
BRANCH   1   7
ATOM      7  N   UNL     1       0.425   3.234  20.003  0.00  0.00    +0.000 N 
ATOM      8  H   UNL     1      -0.133   2.367  20.028  0.00  0.00    +0.000 HD
ATOM      9  H   UNL     1       0.140   4.022  20.604  0.00  0.00    +0.000 HD
ENDBRANCH   1   7
BRANCH   4  10
ATOM     10  C   UNL     1       4.986   3.687  16.544  0.00  0.00    +0.000 C 
BRANCH  10  11
ATOM     11  C   UNL     1       5.247   5.139  16.132  0.00  0.00    +0.000 C 
BRANCH  11  12
ATOM     12  S   UNL     1       7.035   5.476  16.113  0.00  0.00    +0.000 S 
ATOM     13  O   UNL     1       7.864   4.400  16.834  0.00  0.00    +0.000 OA
ATOM     14  O   UNL     1       7.638   5.444  14.703  0.00  0.00    +0.000 OA
BRANCH  12  15
ATOM     15  N   UNL     1       7.588   7.004  16.801  0.00  0.00    +0.000 NA
ATOM     16  H   UNL     1       7.484   7.741  16.070  0.00  0.00    +0.000 HD
ATOM     17  H   UNL     1       8.603   6.902  17.023  0.00  0.00    +0.000 HD
ENDBRANCH  12  15
ENDBRANCH  11  12
ENDBRANCH  10  11
ENDBRANCH   4  10
TORSDOF 5
ENDMDL
MODEL 3
REMARK VINA RESULT:      -6.1      1.177      1.820
REMARK  Name = 
REMARK  5 active torsions:
REMARK  status: ('A' for Active; 'I' for Inactive)
REMARK    1  A    between atoms: N_1  and  C_2
REMARK    2  A    between atoms: C_5  and  C_6
REMARK    3  A    between atoms: C_6  and  C_7
REMARK    4  A    between atoms: C_7  and  S_8
REMARK    5  A    between atoms: S_8  and  N_9
REMARK                            x       y       z     vdW  Elec       q    Type
REMARK                         _______ _______ _______ _____ _____    ______ ____
ROOT
ATOM      1  C   UNL     1       1.664   4.047  19.828  0.00  0.00    +0.000 A 
ATOM      2  C   UNL     1       1.976   3.608  18.535  0.00  0.00    +0.000 A 
ATOM      3  C   UNL     1       2.909   4.302  17.759  0.00  0.00    +0.000 A 
ATOM      4  C   UNL     1       3.539   5.452  18.266  0.00  0.00    +0.000 A 
ATOM      5  C   UNL     1       3.225   5.890  19.564  0.00  0.00    +0.000 A 
ATOM      6  C   UNL     1       2.294   5.191  20.340  0.00  0.00    +0.000 A 
ENDROOT
BRANCH   1   7
ATOM      7  N   UNL     1       0.714   3.346  20.611  0.00  0.00    +0.000 N 
ATOM      8  H   UNL     1       0.109   3.848  21.278  0.00  0.00    +0.000 HD
ATOM      9  H   UNL     1       0.623   2.322  20.535  0.00  0.00    +0.000 HD
ENDBRANCH   1   7
BRANCH   4  10
ATOM     10  C   UNL     1       4.551   6.199  17.432  0.00  0.00    +0.000 C 
BRANCH  10  11
ATOM     11  C   UNL     1       5.986   5.926  17.894  0.00  0.00    +0.000 C 
BRANCH  11  12
ATOM     12  S   UNL     1       6.836   4.848  16.700  0.00  0.00    +0.000 S 
ATOM     13  O   UNL     1       7.374   5.603  15.474  0.00  0.00    +0.000 OA
ATOM     14  O   UNL     1       8.115   4.216  17.264  0.00  0.00    +0.000 OA
BRANCH  12  15
ATOM     15  N   UNL     1       5.928   3.492  16.029  0.00  0.00    +0.000 NA
ATOM     16  H   UNL     1       6.443   3.143  15.192  0.00  0.00    +0.000 HD
ATOM     17  H   UNL     1       5.001   3.856  15.715  0.00  0.00    +0.000 HD
ENDBRANCH  12  15
ENDBRANCH  11  12
ENDBRANCH  10  11
ENDBRANCH   4  10
TORSDOF 5
ENDMDL
MODEL 4
REMARK VINA RESULT:      -6.1      1.494      1.840
REMARK  Name = 
REMARK  5 active torsions:
REMARK  status: ('A' for Active; 'I' for Inactive)
REMARK    1  A    between atoms: N_1  and  C_2
REMARK    2  A    between atoms: C_5  and  C_6
REMARK    3  A    between atoms: C_6  and  C_7
REMARK    4  A    between atoms: C_7  and  S_8
REMARK    5  A    between atoms: S_8  and  N_9
REMARK                            x       y       z     vdW  Elec       q    Type
REMARK                         _______ _______ _______ _____ _____    ______ ____
ROOT
ATOM      1  C   UNL     1       2.397   2.678  18.522  0.00  0.00    +0.000 A 
ATOM      2  C   UNL     1       3.709   2.558  18.997  0.00  0.00    +0.000 A 
ATOM      3  C   UNL     1       4.626   3.595  18.804  0.00  0.00    +0.000 A 
ATOM      4  C   UNL     1       4.243   4.767  18.127  0.00  0.00    +0.000 A 
ATOM      5  C   UNL     1       2.926   4.884  17.653  0.00  0.00    +0.000 A 
ATOM      6  C   UNL     1       2.009   3.846  17.851  0.00  0.00    +0.000 A 
ENDROOT
BRANCH   1   7
ATOM      7  N   UNL     1       1.470   1.624  18.713  0.00  0.00    +0.000 N 
ATOM      8  H   UNL     1       0.851   1.611  19.537  0.00  0.00    +0.000 HD
ATOM      9  H   UNL     1       1.409   0.847  18.037  0.00  0.00    +0.000 HD
ENDBRANCH   1   7
BRANCH   4  10
ATOM     10  C   UNL     1       5.231   5.890  17.924  0.00  0.00    +0.000 C 
BRANCH  10  11
ATOM     11  C   UNL     1       5.564   6.097  16.444  0.00  0.00    +0.000 C 
BRANCH  11  12
ATOM     12  S   UNL     1       6.786   4.866  15.896  0.00  0.00    +0.000 S 
ATOM     13  O   UNL     1       6.151   3.622  15.255  0.00  0.00    +0.000 OA
ATOM     14  O   UNL     1       7.688   5.376  14.764  0.00  0.00    +0.000 OA
BRANCH  12  15
ATOM     15  N   UNL     1       7.904   4.228  17.103  0.00  0.00    +0.000 NA
ATOM     16  H   UNL     1       7.505   4.427  18.047  0.00  0.00    +0.000 HD
ATOM     17  H   UNL     1       8.803   4.750  17.010  0.00  0.00    +0.000 HD
ENDBRANCH  12  15
ENDBRANCH  11  12
ENDBRANCH  10  11
ENDBRANCH   4  10
TORSDOF 5
ENDMDL
MODEL 5
REMARK VINA RESULT:      -6.1      1.520      1.949
REMARK  Name = 
REMARK  5 active torsions:
REMARK  status: ('A' for Active; 'I' for Inactive)
REMARK    1  A    between atoms: N_1  and  C_2
REMARK    2  A    between atoms: C_5  and  C_6
REMARK    3  A    between atoms: C_6  and  C_7
REMARK    4  A    between atoms: C_7  and  S_8
REMARK    5  A    between atoms: S_8  and  N_9
REMARK                            x       y       z     vdW  Elec       q    Type
REMARK                         _______ _______ _______ _____ _____    ______ ____
ROOT
ATOM      1  C   UNL     1       1.723   3.315  19.711  0.00  0.00    +0.000 A 
ATOM      2  C   UNL     1       1.481   4.038  18.535  0.00  0.00    +0.000 A 
ATOM      3  C   UNL     1       2.492   4.192  17.582  0.00  0.00    +0.000 A 
ATOM      4  C   UNL     1       3.762   3.628  17.795  0.00  0.00    +0.000 A 
ATOM      5  C   UNL     1       4.001   2.903  18.974  0.00  0.00    +0.000 A 
ATOM      6  C   UNL     1       2.986   2.746  19.925  0.00  0.00    +0.000 A 
ENDROOT
BRANCH   1   7
ATOM      7  N   UNL     1       0.699   3.164  20.678  0.00  0.00    +0.000 N 
ATOM      8  H   UNL     1       0.496   3.918  21.351  0.00  0.00    +0.000 HD
ATOM      9  H   UNL     1       0.151   2.293  20.734  0.00  0.00    +0.000 HD
ENDBRANCH   1   7
BRANCH   4  10
ATOM     10  C   UNL     1       4.853   3.789  16.764  0.00  0.00    +0.000 C 
BRANCH  10  11
ATOM     11  C   UNL     1       5.218   5.260  16.543  0.00  0.00    +0.000 C 
BRANCH  11  12
ATOM     12  S   UNL     1       6.990   5.418  16.164  0.00  0.00    +0.000 S 
ATOM     13  O   UNL     1       7.599   6.745  16.647  0.00  0.00    +0.000 OA
ATOM     14  O   UNL     1       7.857   4.389  16.901  0.00  0.00    +0.000 OA
BRANCH  12  15
ATOM     15  N   UNL     1       7.482   5.287  14.475  0.00  0.00    +0.000 NA
ATOM     16  H   UNL     1       6.622   5.336  13.885  0.00  0.00    +0.000 HD
ATOM     17  H   UNL     1       7.917   4.348  14.343  0.00  0.00    +0.000 HD
ENDBRANCH  12  15
ENDBRANCH  11  12
ENDBRANCH  10  11
ENDBRANCH   4  10
TORSDOF 5
ENDMDL
MODEL 6
REMARK VINA RESULT:      -6.1      1.262      1.608
REMARK  Name = 
REMARK  5 active torsions:
REMARK  status: ('A' for Active; 'I' for Inactive)
REMARK    1  A    between atoms: N_1  and  C_2
REMARK    2  A    between atoms: C_5  and  C_6
REMARK    3  A    between atoms: C_6  and  C_7
REMARK    4  A    between atoms: C_7  and  S_8
REMARK    5  A    between atoms: S_8  and  N_9
REMARK                            x       y       z     vdW  Elec       q    Type
REMARK                         _______ _______ _______ _____ _____    ______ ____
ROOT
ATOM      1  C   UNL     1       1.975   2.455  18.562  0.00  0.00    +0.000 A 
ATOM      2  C   UNL     1       3.360   2.280  18.683  0.00  0.00    +0.000 A 
ATOM      3  C   UNL     1       4.235   3.312  18.334  0.00  0.00    +0.000 A 
ATOM      4  C   UNL     1       3.735   4.535  17.852  0.00  0.00    +0.000 A 
ATOM      5  C   UNL     1       2.347   4.709  17.733  0.00  0.00    +0.000 A 
ATOM      6  C   UNL     1       1.472   3.675  18.087  0.00  0.00    +0.000 A 
ENDROOT
BRANCH   1   7
ATOM      7  N   UNL     1       1.089   1.407  18.912  0.00  0.00    +0.000 N 
ATOM      8  H   UNL     1       0.345   1.558  19.609  0.00  0.00    +0.000 HD
ATOM      9  H   UNL     1       1.183   0.474  18.484  0.00  0.00    +0.000 HD
ENDBRANCH   1   7
BRANCH   4  10
ATOM     10  C   UNL     1       4.679   5.653  17.480  0.00  0.00    +0.000 C 
BRANCH  10  11
ATOM     11  C   UNL     1       5.250   5.473  16.070  0.00  0.00    +0.000 C 
BRANCH  11  12
ATOM     12  S   UNL     1       7.068   5.453  16.125  0.00  0.00    +0.000 S 
ATOM     13  O   UNL     1       7.717   5.293  14.740  0.00  0.00    +0.000 OA
ATOM     14  O   UNL     1       7.671   6.780  16.601  0.00  0.00    +0.000 OA
BRANCH  12  15
ATOM     15  N   UNL     1       7.844   4.225  17.127  0.00  0.00    +0.000 NA
ATOM     16  H   UNL     1       8.495   4.710  17.782  0.00  0.00    +0.000 HD
ATOM     17  H   UNL     1       8.407   3.612  16.498  0.00  0.00    +0.000 HD
ENDBRANCH  12  15
ENDBRANCH  11  12
ENDBRANCH  10  11
ENDBRANCH   4  10
TORSDOF 5
ENDMDL
MODEL 7
REMARK VINA RESULT:      -6.0      1.055      1.340
REMARK  Name = 
REMARK  5 active torsions:
REMARK  status: ('A' for Active; 'I' for Inactive)
REMARK    1  A    between atoms: N_1  and  C_2
REMARK    2  A    between atoms: C_5  and  C_6
REMARK    3  A    between atoms: C_6  and  C_7
REMARK    4  A    between atoms: C_7  and  S_8
REMARK    5  A    between atoms: S_8  and  N_9
REMARK                            x       y       z     vdW  Elec       q    Type
REMARK                         _______ _______ _______ _____ _____    ______ ____
ROOT
ATOM      1  C   UNL     1       1.495   3.322  19.197  0.00  0.00    +0.000 A 
ATOM      2  C   UNL     1       1.824   4.632  18.822  0.00  0.00    +0.000 A 
ATOM      3  C   UNL     1       2.852   4.867  17.905  0.00  0.00    +0.000 A 
ATOM      4  C   UNL     1       3.571   3.792  17.353  0.00  0.00    +0.000 A 
ATOM      5  C   UNL     1       3.238   2.480  17.729  0.00  0.00    +0.000 A 
ATOM      6  C   UNL     1       2.206   2.247  18.644  0.00  0.00    +0.000 A 
ENDROOT
BRANCH   1   7
ATOM      7  N   UNL     1       0.456   3.086  20.130  0.00  0.00    +0.000 N 
ATOM      8  H   UNL     1      -0.034   2.179  20.153  0.00  0.00    +0.000 HD
ATOM      9  H   UNL     1       0.166   3.821  20.792  0.00  0.00    +0.000 HD
ENDBRANCH   1   7
BRANCH   4  10
ATOM     10  C   UNL     1       4.677   4.044  16.357  0.00  0.00    +0.000 C 
BRANCH  10  11
ATOM     11  C   UNL     1       5.219   5.473  16.455  0.00  0.00    +0.000 C 
BRANCH  11  12
ATOM     12  S   UNL     1       6.994   5.448  16.852  0.00  0.00    +0.000 S 
ATOM     13  O   UNL     1       7.821   4.585  15.885  0.00  0.00    +0.000 OA
ATOM     14  O   UNL     1       7.665   6.819  16.700  0.00  0.00    +0.000 OA
BRANCH  12  15
ATOM     15  N   UNL     1       7.465   4.897  18.461  0.00  0.00    +0.000 NA
ATOM     16  H   UNL     1       7.690   3.879  18.399  0.00  0.00    +0.000 HD
ATOM     17  H   UNL     1       6.640   5.012  19.090  0.00  0.00    +0.000 HD
ENDBRANCH  12  15
ENDBRANCH  11  12
ENDBRANCH  10  11
ENDBRANCH   4  10
TORSDOF 5
ENDMDL
MODEL 8
REMARK VINA RESULT:      -6.0      1.771      2.050
REMARK  Name = 
REMARK  5 active torsions:
REMARK  status: ('A' for Active; 'I' for Inactive)
REMARK    1  A    between atoms: N_1  and  C_2
REMARK    2  A    between atoms: C_5  and  C_6
REMARK    3  A    between atoms: C_6  and  C_7
REMARK    4  A    between atoms: C_7  and  S_8
REMARK    5  A    between atoms: S_8  and  N_9
REMARK                            x       y       z     vdW  Elec       q    Type
REMARK                         _______ _______ _______ _____ _____    ______ ____
ROOT
ATOM      1  C   UNL     1       2.612   2.573  18.605  0.00  0.00    +0.000 A 
ATOM      2  C   UNL     1       2.394   3.597  17.673  0.00  0.00    +0.000 A 
ATOM      3  C   UNL     1       3.322   4.633  17.534  0.00  0.00    +0.000 A 
ATOM      4  C   UNL     1       4.479   4.663  18.331  0.00  0.00    +0.000 A 
ATOM      5  C   UNL     1       4.695   3.635  19.264  0.00  0.00    +0.000 A 
ATOM      6  C   UNL     1       3.767   2.596  19.398  0.00  0.00    +0.000 A 
ENDROOT
BRANCH   1   7
ATOM      7  N   UNL     1       1.668   1.526  18.748  0.00  0.00    +0.000 N 
ATOM      8  H   UNL     1       1.786   0.809  19.480  0.00  0.00    +0.000 HD
ATOM      9  H   UNL     1       0.857   1.458  18.116  0.00  0.00    +0.000 HD
ENDBRANCH   1   7
BRANCH   4  10
ATOM     10  C   UNL     1       5.485   5.778  18.178  0.00  0.00    +0.000 C 
BRANCH  10  11
ATOM     11  C   UNL     1       5.777   6.085  16.706  0.00  0.00    +0.000 C 
BRANCH  11  12
ATOM     12  S   UNL     1       6.884   4.820  16.008  0.00  0.00    +0.000 S 
ATOM     13  O   UNL     1       7.706   5.325  14.811  0.00  0.00    +0.000 OA
ATOM     14  O   UNL     1       7.985   4.381  16.981  0.00  0.00    +0.000 OA
BRANCH  12  15
ATOM     15  N   UNL     1       6.155   3.314  15.448  0.00  0.00    +0.000 NA
ATOM     16  H   UNL     1       6.259   3.272  14.411  0.00  0.00    +0.000 HD
ATOM     17  H   UNL     1       5.137   3.351  15.675  0.00  0.00    +0.000 HD
ENDBRANCH  12  15
ENDBRANCH  11  12
ENDBRANCH  10  11
ENDBRANCH   4  10
TORSDOF 5
ENDMDL
MODEL 9
REMARK VINA RESULT:      -5.9      0.768      1.648
REMARK  Name = 
REMARK  5 active torsions:
REMARK  status: ('A' for Active; 'I' for Inactive)
REMARK    1  A    between atoms: N_1  and  C_2
REMARK    2  A    between atoms: C_5  and  C_6
REMARK    3  A    between atoms: C_6  and  C_7
REMARK    4  A    between atoms: C_7  and  S_8
REMARK    5  A    between atoms: S_8  and  N_9
REMARK                            x       y       z     vdW  Elec       q    Type
REMARK                         _______ _______ _______ _____ _____    ______ ____
ROOT
ATOM      1  C   UNL     1       1.540   4.023  19.826  0.00  0.00    +0.000 A 
ATOM      2  C   UNL     1       1.801   3.653  18.500  0.00  0.00    +0.000 A 
ATOM      3  C   UNL     1       2.667   4.417  17.712  0.00  0.00    +0.000 A 
ATOM      4  C   UNL     1       3.279   5.568  18.240  0.00  0.00    +0.000 A 
ATOM      5  C   UNL     1       3.016   5.935  19.570  0.00  0.00    +0.000 A 
ATOM      6  C   UNL     1       2.153   5.166  20.357  0.00  0.00    +0.000 A 
ENDROOT
BRANCH   1   7
ATOM      7  N   UNL     1       0.658   3.250  20.621  0.00  0.00    +0.000 N 
ATOM      8  H   UNL     1       0.425   2.281  20.358  0.00  0.00    +0.000 HD
ATOM      9  H   UNL     1       0.227   3.649  21.468  0.00  0.00    +0.000 HD
ENDBRANCH   1   7
BRANCH   4  10
ATOM     10  C   UNL     1       4.219   6.390  17.392  0.00  0.00    +0.000 C 
BRANCH  10  11
ATOM     11  C   UNL     1       5.149   5.510  16.551  0.00  0.00    +0.000 C 
BRANCH  11  12
ATOM     12  S   UNL     1       6.864   5.666  17.138  0.00  0.00    +0.000 S 
ATOM     13  O   UNL     1       7.673   6.728  16.375  0.00  0.00    +0.000 OA
ATOM     14  O   UNL     1       6.962   6.177  18.582  0.00  0.00    +0.000 OA
BRANCH  12  15
ATOM     15  N   UNL     1       7.876   4.221  17.106  0.00  0.00    +0.000 NA
ATOM     16  H   UNL     1       7.247   3.389  17.095  0.00  0.00    +0.000 HD
ATOM     17  H   UNL     1       8.429   4.203  17.991  0.00  0.00    +0.000 HD
ENDBRANCH  12  15
ENDBRANCH  11  12
ENDBRANCH  10  11
ENDBRANCH   4  10
TORSDOF 5
ENDMDL
