MODEL 1
REMARK VINA RESULT:      -7.3      0.000      0.000
REMARK  Name = 
REMARK  7 active torsions:
REMARK  status: ('A' for Active; 'I' for Inactive)
REMARK    1  A    between atoms: C_1  and  C_2
REMARK    2  A    between atoms: C_5  and  N_6
REMARK    3  A    between atoms: C_7  and  C_8
REMARK    4  A    between atoms: C_10  and  C_11
REMARK    5  A    between atoms: C_14  and  C_15
REMARK    6  A    between atoms: C_17  and  C_18
REMARK    7  A    between atoms: C_20  and  N_21
REMARK                            x       y       z     vdW  Elec       q    Type
REMARK                         _______ _______ _______ _____ _____    ______ ____
ROOT
ATOM      1  N   UNL     1       2.489   6.454  18.989  0.00  0.00    +0.000 N 
ATOM      2  C   UNL     1       2.128   5.159  19.416  0.00  0.00    +0.000 A 
ATOM      3  C   UNL     1       1.074   4.869  20.439  0.00  0.00    +0.000 C 
ATOM      4  C   UNL     1       2.842   4.253  18.648  0.00  0.00    +0.000 A 
ATOM      5  C   UNL     1       2.807   2.839  18.700  0.00  0.00    +0.000 A 
ATOM      6  C   UNL     1       2.049   1.879  19.550  0.00  0.00    +0.000 C 
ATOM      7  N   UNL     1       3.640   2.279  17.767  0.00  0.00    +0.000 NA
ATOM      8  N   UNL     1       4.465   3.034  16.834  0.00  0.00    +0.000 NA
ATOM      9  C   UNL     1       4.508   4.400  16.772  0.00  0.00    +0.000 A 
ATOM     10  C   UNL     1       5.411   5.007  15.757  0.00  0.00    +0.000 C 
ATOM     11  C   UNL     1       3.652   4.997  17.724  0.00  0.00    +0.000 A 
ATOM     12  C   UNL     1       3.451   6.345  17.964  0.00  0.00    +0.000 A 
ATOM     13  C   UNL     1       4.140   7.535  17.370  0.00  0.00    +0.000 C 
ENDROOT
BRANCH   1  18
ATOM     14  C   UNL     1       0.072  11.296  20.983  0.00  0.00    +0.000 C 
ATOM     15  C   UNL     1       0.729  10.055  20.438  0.00  0.00    +0.000 A 
ATOM     16  C   UNL     1       1.108   9.034  21.324  0.00  0.00    +0.000 A 
ATOM     17  C   UNL     1       1.723   7.870  20.857  0.00  0.00    +0.000 A 
ATOM     18  C   UNL     1       1.937   7.685  19.489  0.00  0.00    +0.000 A 
ATOM     19  C   UNL     1       1.582   8.717  18.608  0.00  0.00    +0.000 A 
ATOM     20  C   UNL     1       0.962   9.894  19.062  0.00  0.00    +0.000 A 
BRANCH  20  21
ATOM     21  N   UNL     1       0.802  10.960  18.163  0.00  0.00    +0.000 N 
ATOM     22  H   UNL     1       1.669  11.359  17.821  0.00  0.00    +0.000 HD
ATOM     23  H   UNL     1       0.134  10.791  17.420  0.00  0.00    +0.000 HD
ENDBRANCH  20  21
ENDBRANCH   1  18
TORSDOF 2
ENDMDL
MODEL 2
REMARK VINA RESULT:      -7.2      2.104      6.206
REMARK  Name = 
REMARK  7 active torsions:
REMARK  status: ('A' for Active; 'I' for Inactive)
REMARK    1  A    between atoms: C_1  and  C_2
REMARK    2  A    between atoms: C_5  and  N_6
REMARK    3  A    between atoms: C_7  and  C_8
REMARK    4  A    between atoms: C_10  and  C_11
REMARK    5  A    between atoms: C_14  and  C_15
REMARK    6  A    between atoms: C_17  and  C_18
REMARK    7  A    between atoms: C_20  and  N_21
REMARK                            x       y       z     vdW  Elec       q    Type
REMARK                         _______ _______ _______ _____ _____    ______ ____
ROOT
ATOM      1  N   UNL     1       4.125   4.874  17.386  0.00  0.00    +0.000 N 
ATOM      2  C   UNL     1       3.588   3.760  18.065  0.00  0.00    +0.000 A 
ATOM      3  C   UNL     1       3.973   2.339  17.793  0.00  0.00    +0.000 C 
ATOM      4  C   UNL     1       2.751   4.242  19.059  0.00  0.00    +0.000 A 
ATOM      5  C   UNL     1       1.999   3.505  20.005  0.00  0.00    +0.000 A 
ATOM      6  C   UNL     1       1.837   2.045  20.250  0.00  0.00    +0.000 C 
ATOM      7  N   UNL     1       1.303   4.332  20.849  0.00  0.00    +0.000 NA
ATOM      8  N   UNL     1       1.326   5.787  20.788  0.00  0.00    +0.000 NA
ATOM      9  C   UNL     1       2.049   6.511  19.880  0.00  0.00    +0.000 A 
ATOM     10  C   UNL     1       1.953   7.993  19.961  0.00  0.00    +0.000 C 
ATOM     11  C   UNL     1       2.777   5.676  19.003  0.00  0.00    +0.000 A 
ATOM     12  C   UNL     1       3.597   6.052  17.953  0.00  0.00    +0.000 A 
ATOM     13  C   UNL     1       3.865   7.413  17.389  0.00  0.00    +0.000 C 
ENDROOT
BRANCH   1  18
ATOM     14  C   UNL     1       7.916   4.864  13.039  0.00  0.00    +0.000 C 
ATOM     15  C   UNL     1       6.915   4.827  14.164  0.00  0.00    +0.000 A 
ATOM     16  C   UNL     1       7.289   5.302  15.431  0.00  0.00    +0.000 A 
ATOM     17  C   UNL     1       6.390   5.281  16.500  0.00  0.00    +0.000 A 
ATOM     18  C   UNL     1       5.085   4.819  16.315  0.00  0.00    +0.000 A 
ATOM     19  C   UNL     1       4.721   4.319  15.056  0.00  0.00    +0.000 A 
ATOM     20  C   UNL     1       5.614   4.334  13.971  0.00  0.00    +0.000 A 
BRANCH  20  21
ATOM     21  N   UNL     1       5.255   3.655  12.796  0.00  0.00    +0.000 N 
ATOM     22  H   UNL     1       4.275   3.732  12.545  0.00  0.00    +0.000 HD
ATOM     23  H   UNL     1       5.870   3.817  12.007  0.00  0.00    +0.000 HD
ENDBRANCH  20  21
ENDBRANCH   1  18
TORSDOF 2
ENDMDL
MODEL 3
REMARK VINA RESULT:      -7.1      0.233      2.768
REMARK  Name = 
REMARK  7 active torsions:
REMARK  status: ('A' for Active; 'I' for Inactive)
REMARK    1  A    between atoms: C_1  and  C_2
REMARK    2  A    between atoms: C_5  and  N_6
REMARK    3  A    between atoms: C_7  and  C_8
REMARK    4  A    between atoms: C_10  and  C_11
REMARK    5  A    between atoms: C_14  and  C_15
REMARK    6  A    between atoms: C_17  and  C_18
REMARK    7  A    between atoms: C_20  and  N_21
REMARK                            x       y       z     vdW  Elec       q    Type
REMARK                         _______ _______ _______ _____ _____    ______ ____
ROOT
ATOM      1  N   UNL     1       2.412   6.571  19.006  0.00  0.00    +0.000 N 
ATOM      2  C   UNL     1       3.360   6.520  17.962  0.00  0.00    +0.000 A 
ATOM      3  C   UNL     1       3.989   7.724  17.333  0.00  0.00    +0.000 C 
ATOM      4  C   UNL     1       3.651   5.186  17.728  0.00  0.00    +0.000 A 
ATOM      5  C   UNL     1       4.553   4.637  16.786  0.00  0.00    +0.000 A 
ATOM      6  C   UNL     1       5.446   5.253  15.766  0.00  0.00    +0.000 C 
ATOM      7  N   UNL     1       4.591   3.268  16.862  0.00  0.00    +0.000 NA
ATOM      8  N   UNL     1       3.804   2.468  17.790  0.00  0.00    +0.000 NA
ATOM      9  C   UNL     1       2.930   2.986  18.706  0.00  0.00    +0.000 A 
ATOM     10  C   UNL     1       2.205   2.020  19.576  0.00  0.00    +0.000 C 
ATOM     11  C   UNL     1       2.879   4.396  18.647  0.00  0.00    +0.000 A 
ATOM     12  C   UNL     1       2.100   5.254  19.404  0.00  0.00    +0.000 A 
ATOM     13  C   UNL     1       1.034   4.943  20.408  0.00  0.00    +0.000 C 
ENDROOT
BRANCH   1  18
ATOM     14  C   UNL     1       0.074  11.287  21.363  0.00  0.00    +0.000 C 
ATOM     15  C   UNL     1       0.709  10.080  20.724  0.00  0.00    +0.000 A 
ATOM     16  C   UNL     1       1.127   9.013  21.535  0.00  0.00    +0.000 A 
ATOM     17  C   UNL     1       1.723   7.879  20.980  0.00  0.00    +0.000 A 
ATOM     18  C   UNL     1       1.880   7.770  19.596  0.00  0.00    +0.000 A 
ATOM     19  C   UNL     1       1.487   8.849  18.789  0.00  0.00    +0.000 A 
ATOM     20  C   UNL     1       0.885   9.997  19.333  0.00  0.00    +0.000 A 
BRANCH  20  21
ATOM     21  N   UNL     1       0.686  11.110  18.501  0.00  0.00    +0.000 N 
ATOM     22  H   UNL     1       0.408  10.884  17.552  0.00  0.00    +0.000 HD
ATOM     23  H   UNL     1       0.119  11.845  18.905  0.00  0.00    +0.000 HD
ENDBRANCH  20  21
ENDBRANCH   1  18
TORSDOF 2
ENDMDL
MODEL 4
REMARK VINA RESULT:      -7.1      2.102      6.558
REMARK  Name = 
REMARK  7 active torsions:
REMARK  status: ('A' for Active; 'I' for Inactive)
REMARK    1  A    between atoms: C_1  and  C_2
REMARK    2  A    between atoms: C_5  and  N_6
REMARK    3  A    between atoms: C_7  and  C_8
REMARK    4  A    between atoms: C_10  and  C_11
REMARK    5  A    between atoms: C_14  and  C_15
REMARK    6  A    between atoms: C_17  and  C_18
REMARK    7  A    between atoms: C_20  and  N_21
REMARK                            x       y       z     vdW  Elec       q    Type
REMARK                         _______ _______ _______ _____ _____    ______ ____
ROOT
ATOM      1  N   UNL     1       4.218   4.831  17.411  0.00  0.00    +0.000 N 
ATOM      2  C   UNL     1       3.716   6.014  17.992  0.00  0.00    +0.000 A 
ATOM      3  C   UNL     1       4.035   7.394  17.507  0.00  0.00    +0.000 C 
ATOM      4  C   UNL     1       2.825   5.645  18.988  0.00  0.00    +0.000 A 
ATOM      5  C   UNL     1       2.063   6.482  19.838  0.00  0.00    +0.000 A 
ATOM      6  C   UNL     1       1.959   7.962  19.968  0.00  0.00    +0.000 C 
ATOM      7  N   UNL     1       1.273   5.752  20.688  0.00  0.00    +0.000 NA
ATOM      8  N   UNL     1       1.218   4.297  20.723  0.00  0.00    +0.000 NA
ATOM      9  C   UNL     1       1.947   3.477  19.907  0.00  0.00    +0.000 A 
ATOM     10  C   UNL     1       1.768   2.010  20.081  0.00  0.00    +0.000 C 
ATOM     11  C   UNL     1       2.766   4.210  19.019  0.00  0.00    +0.000 A 
ATOM     12  C   UNL     1       3.647   3.722  18.070  0.00  0.00    +0.000 A 
ATOM     13  C   UNL     1       4.058   2.311  17.784  0.00  0.00    +0.000 C 
ENDROOT
BRANCH   1  18
ATOM     14  C   UNL     1       7.829   4.776  12.915  0.00  0.00    +0.000 C 
ATOM     15  C   UNL     1       6.874   4.752  14.079  0.00  0.00    +0.000 A 
ATOM     16  C   UNL     1       7.317   5.177  15.341  0.00  0.00    +0.000 A 
ATOM     17  C   UNL     1       6.462   5.165  16.445  0.00  0.00    +0.000 A 
ATOM     18  C   UNL     1       5.131   4.764  16.302  0.00  0.00    +0.000 A 
ATOM     19  C   UNL     1       4.697   4.314  15.046  0.00  0.00    +0.000 A 
ATOM     20  C   UNL     1       5.546   4.320  13.926  0.00  0.00    +0.000 A 
BRANCH  20  21
ATOM     21  N   UNL     1       5.111   3.688  12.750  0.00  0.00    +0.000 N 
ATOM     22  H   UNL     1       5.776   3.717  11.984  0.00  0.00    +0.000 HD
ATOM     23  H   UNL     1       4.717   2.765  12.885  0.00  0.00    +0.000 HD
ENDBRANCH  20  21
ENDBRANCH   1  18
TORSDOF 2
ENDMDL
MODEL 5
REMARK VINA RESULT:      -7.0      1.046      1.485
REMARK  Name = 
REMARK  7 active torsions:
REMARK  status: ('A' for Active; 'I' for Inactive)
REMARK    1  A    between atoms: C_1  and  C_2
REMARK    2  A    between atoms: C_5  and  N_6
REMARK    3  A    between atoms: C_7  and  C_8
REMARK    4  A    between atoms: C_10  and  C_11
REMARK    5  A    between atoms: C_14  and  C_15
REMARK    6  A    between atoms: C_17  and  C_18
REMARK    7  A    between atoms: C_20  and  N_21
REMARK                            x       y       z     vdW  Elec       q    Type
REMARK                         _______ _______ _______ _____ _____    ______ ____
ROOT
ATOM      1  N   UNL     1       2.460   6.438  18.923  0.00  0.00    +0.000 N 
ATOM      2  C   UNL     1       2.092   5.150  19.365  0.00  0.00    +0.000 A 
ATOM      3  C   UNL     1       1.012   4.877  20.365  0.00  0.00    +0.000 C 
ATOM      4  C   UNL     1       2.831   4.232  18.636  0.00  0.00    +0.000 A 
ATOM      5  C   UNL     1       2.800   2.819  18.716  0.00  0.00    +0.000 A 
ATOM      6  C   UNL     1       2.022   1.873  19.563  0.00  0.00    +0.000 C 
ATOM      7  N   UNL     1       3.661   2.245  17.816  0.00  0.00    +0.000 NA
ATOM      8  N   UNL     1       4.508   2.985  16.891  0.00  0.00    +0.000 NA
ATOM      9  C   UNL     1       4.547   4.349  16.803  0.00  0.00    +0.000 A 
ATOM     10  C   UNL     1       5.475   4.940  15.801  0.00  0.00    +0.000 C 
ATOM     11  C   UNL     1       3.663   4.961  17.720  0.00  0.00    +0.000 A 
ATOM     12  C   UNL     1       3.450   6.313  17.926  0.00  0.00    +0.000 A 
ATOM     13  C   UNL     1       4.151   7.493  17.328  0.00  0.00    +0.000 C 
ENDROOT
BRANCH   1  18
ATOM     14  C   UNL     1       0.380  11.488  20.778  0.00  0.00    +0.000 C 
ATOM     15  C   UNL     1       0.896  10.149  20.319  0.00  0.00    +0.000 A 
ATOM     16  C   UNL     1       1.087   9.921  18.947  0.00  0.00    +0.000 A 
ATOM     17  C   UNL     1       1.560   8.691  18.482  0.00  0.00    +0.000 A 
ATOM     18  C   UNL     1       1.890   7.676  19.383  0.00  0.00    +0.000 A 
ATOM     19  C   UNL     1       1.673   7.896  20.752  0.00  0.00    +0.000 A 
ATOM     20  C   UNL     1       1.198   9.128  21.235  0.00  0.00    +0.000 A 
BRANCH  20  21
ATOM     21  N   UNL     1       0.828   9.223  22.586  0.00  0.00    +0.000 N 
ATOM     22  H   UNL     1       1.386   8.658  23.218  0.00  0.00    +0.000 HD
ATOM     23  H   UNL     1       0.698  10.168  22.925  0.00  0.00    +0.000 HD
ENDBRANCH  20  21
ENDBRANCH   1  18
TORSDOF 2
ENDMDL
MODEL 6
REMARK VINA RESULT:      -6.9      1.550      3.326
REMARK  Name = 
REMARK  7 active torsions:
REMARK  status: ('A' for Active; 'I' for Inactive)
REMARK    1  A    between atoms: C_1  and  C_2
REMARK    2  A    between atoms: C_5  and  N_6
REMARK    3  A    between atoms: C_7  and  C_8
REMARK    4  A    between atoms: C_10  and  C_11
REMARK    5  A    between atoms: C_14  and  C_15
REMARK    6  A    between atoms: C_17  and  C_18
REMARK    7  A    between atoms: C_20  and  N_21
REMARK                            x       y       z     vdW  Elec       q    Type
REMARK                         _______ _______ _______ _____ _____    ______ ____
ROOT
ATOM      1  N   UNL     1       2.683   6.577  19.166  0.00  0.00    +0.000 N 
ATOM      2  C   UNL     1       3.876   6.231  18.497  0.00  0.00    +0.000 A 
ATOM      3  C   UNL     1       4.656   7.164  17.624  0.00  0.00    +0.000 C 
ATOM      4  C   UNL     1       4.214   4.944  18.886  0.00  0.00    +0.000 A 
ATOM      5  C   UNL     1       5.333   4.174  18.490  0.00  0.00    +0.000 A 
ATOM      6  C   UNL     1       6.470   4.445  17.567  0.00  0.00    +0.000 C 
ATOM      7  N   UNL     1       5.343   2.947  19.103  0.00  0.00    +0.000 NA
ATOM      8  N   UNL     1       4.332   2.483  20.044  0.00  0.00    +0.000 NA
ATOM      9  C   UNL     1       3.247   3.217  20.435  0.00  0.00    +0.000 A 
ATOM     10  C   UNL     1       2.312   2.585  21.405  0.00  0.00    +0.000 C 
ATOM     11  C   UNL     1       3.221   4.488  19.817  0.00  0.00    +0.000 A 
ATOM     12  C   UNL     1       2.271   5.485  19.958  0.00  0.00    +0.000 A 
ATOM     13  C   UNL     1       0.973   5.471  20.705  0.00  0.00    +0.000 C 
ENDROOT
BRANCH   1  18
ATOM     14  C   UNL     1       0.214  11.780  18.857  0.00  0.00    +0.000 C 
ATOM     15  C   UNL     1       0.828  10.409  18.964  0.00  0.00    +0.000 A 
ATOM     16  C   UNL     1       1.241   9.748  17.796  0.00  0.00    +0.000 A 
ATOM     17  C   UNL     1       1.812   8.475  17.855  0.00  0.00    +0.000 A 
ATOM     18  C   UNL     1       2.018   7.850  19.087  0.00  0.00    +0.000 A 
ATOM     19  C   UNL     1       1.579   8.499  20.251  0.00  0.00    +0.000 A 
ATOM     20  C   UNL     1       1.003   9.781  20.208  0.00  0.00    +0.000 A 
BRANCH  20  21
ATOM     21  N   UNL     1       0.420  10.295  21.377  0.00  0.00    +0.000 N 
ATOM     22  H   UNL     1      -0.405  10.865  21.223  0.00  0.00    +0.000 HD
ATOM     23  H   UNL     1       0.289   9.618  22.119  0.00  0.00    +0.000 HD
ENDBRANCH  20  21
ENDBRANCH   1  18
TORSDOF 2
ENDMDL
MODEL 7
REMARK VINA RESULT:      -6.8      1.146      3.165
REMARK  Name = 
REMARK  7 active torsions:
REMARK  status: ('A' for Active; 'I' for Inactive)
REMARK    1  A    between atoms: C_1  and  C_2
REMARK    2  A    between atoms: C_5  and  N_6
REMARK    3  A    between atoms: C_7  and  C_8
REMARK    4  A    between atoms: C_10  and  C_11
REMARK    5  A    between atoms: C_14  and  C_15
REMARK    6  A    between atoms: C_17  and  C_18
REMARK    7  A    between atoms: C_20  and  N_21
REMARK                            x       y       z     vdW  Elec       q    Type
REMARK                         _______ _______ _______ _____ _____    ______ ____
ROOT
ATOM      1  N   UNL     1       2.369   6.709  18.971  0.00  0.00    +0.000 N 
ATOM      2  C   UNL     1       3.318   6.671  17.927  0.00  0.00    +0.000 A 
ATOM      3  C   UNL     1       3.890   7.885  17.262  0.00  0.00    +0.000 C 
ATOM      4  C   UNL     1       3.670   5.346  17.732  0.00  0.00    +0.000 A 
ATOM      5  C   UNL     1       4.596   4.812  16.804  0.00  0.00    +0.000 A 
ATOM      6  C   UNL     1       5.459   5.439  15.765  0.00  0.00    +0.000 C 
ATOM      7  N   UNL     1       4.697   3.449  16.919  0.00  0.00    +0.000 NA
ATOM      8  N   UNL     1       3.948   2.641  17.872  0.00  0.00    +0.000 NA
ATOM      9  C   UNL     1       3.051   3.144  18.775  0.00  0.00    +0.000 A 
ATOM     10  C   UNL     1       2.373   2.172  19.674  0.00  0.00    +0.000 C 
ATOM     11  C   UNL     1       2.936   4.549  18.674  0.00  0.00    +0.000 A 
ATOM     12  C   UNL     1       2.118   5.391  19.407  0.00  0.00    +0.000 A 
ATOM     13  C   UNL     1       1.069   5.061  20.423  0.00  0.00    +0.000 C 
ENDROOT
BRANCH   1  18
ATOM     14  C   UNL     1       0.220  11.573  21.205  0.00  0.00    +0.000 C 
ATOM     15  C   UNL     1       0.756  10.281  20.647  0.00  0.00    +0.000 A 
ATOM     16  C   UNL     1       0.884  10.134  19.257  0.00  0.00    +0.000 A 
ATOM     17  C   UNL     1       1.374   8.949  18.701  0.00  0.00    +0.000 A 
ATOM     18  C   UNL     1       1.782   7.899  19.527  0.00  0.00    +0.000 A 
ATOM     19  C   UNL     1       1.628   8.037  20.915  0.00  0.00    +0.000 A 
ATOM     20  C   UNL     1       1.138   9.222  21.489  0.00  0.00    +0.000 A 
BRANCH  20  21
ATOM     21  N   UNL     1       0.835   9.231  22.859  0.00  0.00    +0.000 N 
ATOM     22  H   UNL     1       1.511   8.752  23.445  0.00  0.00    +0.000 HD
ATOM     23  H   UNL     1       0.574  10.136  23.231  0.00  0.00    +0.000 HD
ENDBRANCH  20  21
ENDBRANCH   1  18
TORSDOF 2
ENDMDL
MODEL 8
REMARK VINA RESULT:      -6.6      5.501      8.670
REMARK  Name = 
REMARK  7 active torsions:
REMARK  status: ('A' for Active; 'I' for Inactive)
REMARK    1  A    between atoms: C_1  and  C_2
REMARK    2  A    between atoms: C_5  and  N_6
REMARK    3  A    between atoms: C_7  and  C_8
REMARK    4  A    between atoms: C_10  and  C_11
REMARK    5  A    between atoms: C_14  and  C_15
REMARK    6  A    between atoms: C_17  and  C_18
REMARK    7  A    between atoms: C_20  and  N_21
REMARK                            x       y       z     vdW  Elec       q    Type
REMARK                         _______ _______ _______ _____ _____    ______ ____
ROOT
ATOM      1  N   UNL     1      -2.536  12.442  20.640  0.00  0.00    +0.000 N 
ATOM      2  C   UNL     1      -1.411  11.712  20.202  0.00  0.00    +0.000 A 
ATOM      3  C   UNL     1      -0.165  11.517  21.008  0.00  0.00    +0.000 C 
ATOM      4  C   UNL     1      -1.730  11.151  18.976  0.00  0.00    +0.000 A 
ATOM      5  C   UNL     1      -0.927  10.325  18.153  0.00  0.00    +0.000 A 
ATOM      6  C   UNL     1       0.461   9.805  18.294  0.00  0.00    +0.000 C 
ATOM      7  N   UNL     1      -1.595   9.943  17.018  0.00  0.00    +0.000 NA
ATOM      8  N   UNL     1      -2.958  10.334  16.687  0.00  0.00    +0.000 NA
ATOM      9  C   UNL     1      -3.745  11.130  17.473  0.00  0.00    +0.000 A 
ATOM     10  C   UNL     1      -5.116  11.431  16.980  0.00  0.00    +0.000 C 
ATOM     11  C   UNL     1      -3.077  11.531  18.651  0.00  0.00    +0.000 A 
ATOM     12  C   UNL     1      -3.550  12.349  19.664  0.00  0.00    +0.000 A 
ATOM     13  C   UNL     1      -4.835  13.110  19.756  0.00  0.00    +0.000 C 
ENDROOT
BRANCH   1  18
ATOM     14  C   UNL     1      -2.792  15.124  25.740  0.00  0.00    +0.000 C 
ATOM     15  C   UNL     1      -2.767  14.418  24.410  0.00  0.00    +0.000 A 
ATOM     16  C   UNL     1      -2.047  14.983  23.346  0.00  0.00    +0.000 A 
ATOM     17  C   UNL     1      -2.002  14.360  22.096  0.00  0.00    +0.000 A 
ATOM     18  C   UNL     1      -2.647  13.137  21.895  0.00  0.00    +0.000 A 
ATOM     19  C   UNL     1      -3.389  12.587  22.951  0.00  0.00    +0.000 A 
ATOM     20  C   UNL     1      -3.443  13.202  24.214  0.00  0.00    +0.000 A 
BRANCH  20  21
ATOM     21  N   UNL     1      -4.345  12.704  25.166  0.00  0.00    +0.000 N 
ATOM     22  H   UNL     1      -4.473  11.698  25.143  0.00  0.00    +0.000 HD
ATOM     23  H   UNL     1      -4.206  13.053  26.107  0.00  0.00    +0.000 HD
ENDBRANCH  20  21
ENDBRANCH   1  18
TORSDOF 2
ENDMDL
MODEL 9
REMARK VINA RESULT:      -6.6      2.813      8.344
REMARK  Name = 
REMARK  7 active torsions:
REMARK  status: ('A' for Active; 'I' for Inactive)
REMARK    1  A    between atoms: C_1  and  C_2
REMARK    2  A    between atoms: C_5  and  N_6
REMARK    3  A    between atoms: C_7  and  C_8
REMARK    4  A    between atoms: C_10  and  C_11
REMARK    5  A    between atoms: C_14  and  C_15
REMARK    6  A    between atoms: C_17  and  C_18
REMARK    7  A    between atoms: C_20  and  N_21
REMARK                            x       y       z     vdW  Elec       q    Type
REMARK                         _______ _______ _______ _____ _____    ______ ____
ROOT
ATOM      1  N   UNL     1      -0.140  10.799  19.523  0.00  0.00    +0.000 N 
ATOM      2  C   UNL     1      -1.476  10.869  19.074  0.00  0.00    +0.000 A 
ATOM      3  C   UNL     1      -2.120   9.858  18.176  0.00  0.00    +0.000 C 
ATOM      4  C   UNL     1      -2.067  11.957  19.695  0.00  0.00    +0.000 A 
ATOM      5  C   UNL     1      -3.399  12.422  19.570  0.00  0.00    +0.000 A 
ATOM      6  C   UNL     1      -4.562  11.948  18.770  0.00  0.00    +0.000 C 
ATOM      7  N   UNL     1      -3.626  13.520  20.359  0.00  0.00    +0.000 NA
ATOM      8  N   UNL     1      -2.629  14.141  21.222  0.00  0.00    +0.000 NA
ATOM      9  C   UNL     1      -1.341  13.701  21.353  0.00  0.00    +0.000 A 
ATOM     10  C   UNL     1      -0.455  14.457  22.279  0.00  0.00    +0.000 C 
ATOM     11  C   UNL     1      -1.087  12.567  20.550  0.00  0.00    +0.000 A 
ATOM     12  C   UNL     1       0.099  11.867  20.412  0.00  0.00    +0.000 A 
ATOM     13  C   UNL     1       1.453  12.161  20.979  0.00  0.00    +0.000 C 
ENDROOT
BRANCH   1  18
ATOM     14  C   UNL     1       3.510   6.607  17.983  0.00  0.00    +0.000 C 
ATOM     15  C   UNL     1       2.575   7.703  18.423  0.00  0.00    +0.000 A 
ATOM     16  C   UNL     1       2.339   8.790  17.566  0.00  0.00    +0.000 A 
ATOM     17  C   UNL     1       1.482   9.827  17.940  0.00  0.00    +0.000 A 
ATOM     18  C   UNL     1       0.811   9.781  19.164  0.00  0.00    +0.000 A 
ATOM     19  C   UNL     1       1.069   8.708  20.032  0.00  0.00    +0.000 A 
ATOM     20  C   UNL     1       1.929   7.657  19.669  0.00  0.00    +0.000 A 
BRANCH  20  21
ATOM     21  N   UNL     1       2.288   6.715  20.646  0.00  0.00    +0.000 N 
ATOM     22  H   UNL     1       2.561   5.809  20.280  0.00  0.00    +0.000 HD
ATOM     23  H   UNL     1       2.931   7.058  21.350  0.00  0.00    +0.000 HD
ENDBRANCH  20  21
ENDBRANCH   1  18
TORSDOF 2
ENDMDL
