MODEL 1
REMARK VINA RESULT:      -7.0      0.000      0.000
REMARK  Name = 
REMARK  8 active torsions:
REMARK  status: ('A' for Active; 'I' for Inactive)
REMARK    1  A    between atoms: C_1  and  C_2
REMARK    2  A    between atoms: C_2  and  N_3
REMARK    3  A    between atoms: N_3  and  C_4
REMARK    4  A    between atoms: C_4  and  C_5
REMARK    5  A    between atoms: C_11  and  C_12
REMARK    6  A    between atoms: C_12  and  C_13
REMARK    7  A    between atoms: C_13  and  O_14
REMARK    8  A    between atoms: O_14  and  C_15
REMARK                            x       y       z     vdW  Elec       q    Type
REMARK                         _______ _______ _______ _____ _____    ______ ____
ROOT
ATOM      1  N   UNL     1       6.227   5.163  17.198  0.00  0.00    +0.000 N 
ATOM      2  C   UNL     1       5.703   4.631  18.384  0.00  0.00    +0.000 C 
ATOM      3  O   UNL     1       6.306   4.756  19.451  0.00  0.00    +0.000 OA
ATOM      4  N   UNL     1       4.492   3.949  18.373  0.00  0.00    +0.000 N 
ATOM      5  C   UNL     1       3.576   3.597  17.306  0.00  0.00    +0.000 C 
ATOM      6  C   UNL     1       2.268   3.335  18.000  0.00  0.00    +0.000 C 
ATOM      7  C   UNL     1       2.691   2.651  19.294  0.00  0.00    +0.000 C 
ATOM      8  C   UNL     1       4.053   3.293  19.611  0.00  0.00    +0.000 C 
ENDROOT
BRANCH   1  10
ATOM      9  C   UNL     1       7.267   7.444  17.413  0.00  0.00    +0.000 C 
ATOM     10  C   UNL     1       7.471   5.936  17.330  0.00  0.00    +0.000 C 
ENDBRANCH   1  10
BRANCH   1  11
ATOM     11  C   UNL     1       5.541   5.163  15.912  0.00  0.00    +0.000 C 
ATOM     12  C   UNL     1       6.128   4.450  14.708  0.00  0.00    +0.000 C 
ENDBRANCH   1  11
BRANCH   7  13
ATOM     13  C   UNL     1       1.632   2.816  20.386  0.00  0.00    +0.000 C 
BRANCH  13  14
ATOM     14  C   UNL     1       1.000   4.212  20.346  0.00  0.00    +0.000 C 
BRANCH  14  15
ATOM     15  O   UNL     1       1.893   5.159  20.923  0.00  0.00    +0.000 OA
BRANCH  15  16
ATOM     16  C   UNL     1       1.794   6.431  20.420  0.00  0.00    +0.000 A 
ATOM     17  C   UNL     1       2.390   6.621  19.172  0.00  0.00    +0.000 A 
ATOM     18  C   UNL     1       2.365   7.873  18.556  0.00  0.00    +0.000 A 
ATOM     19  C   UNL     1       1.728   8.945  19.179  0.00  0.00    +0.000 A 
ATOM     20  C   UNL     1       1.106   8.756  20.414  0.00  0.00    +0.000 A 
ATOM     21  C   UNL     1       1.137   7.503  21.033  0.00  0.00    +0.000 A 
ENDBRANCH  15  16
ENDBRANCH  14  15
ENDBRANCH  13  14
ENDBRANCH   7  13
TORSDOF 6
ENDMDL
MODEL 2
REMARK VINA RESULT:      -6.9      2.261      6.744
REMARK  Name = 
REMARK  8 active torsions:
REMARK  status: ('A' for Active; 'I' for Inactive)
REMARK    1  A    between atoms: C_1  and  C_2
REMARK    2  A    between atoms: C_2  and  N_3
REMARK    3  A    between atoms: N_3  and  C_4
REMARK    4  A    between atoms: C_4  and  C_5
REMARK    5  A    between atoms: C_11  and  C_12
REMARK    6  A    between atoms: C_12  and  C_13
REMARK    7  A    between atoms: C_13  and  O_14
REMARK    8  A    between atoms: O_14  and  C_15
REMARK                            x       y       z     vdW  Elec       q    Type
REMARK                         _______ _______ _______ _____ _____    ______ ____
ROOT
ATOM      1  N   UNL     1       2.677   3.655  19.589  0.00  0.00    +0.000 N 
ATOM      2  C   UNL     1       4.059   3.875  19.518  0.00  0.00    +0.000 C 
ATOM      3  O   UNL     1       4.849   3.090  20.045  0.00  0.00    +0.000 OA
ATOM      4  N   UNL     1       4.560   4.988  18.852  0.00  0.00    +0.000 N 
ATOM      5  C   UNL     1       3.916   6.100  18.181  0.00  0.00    +0.000 C 
ATOM      6  C   UNL     1       4.973   6.654  17.267  0.00  0.00    +0.000 C 
ATOM      7  C   UNL     1       6.250   6.514  18.085  0.00  0.00    +0.000 C 
ATOM      8  C   UNL     1       6.003   5.248  18.923  0.00  0.00    +0.000 C 
ENDROOT
BRANCH   1  10
ATOM      9  C   UNL     1       1.703   2.596  21.653  0.00  0.00    +0.000 C 
ATOM     10  C   UNL     1       2.252   2.408  20.244  0.00  0.00    +0.000 C 
ENDBRANCH   1  10
BRANCH   1  11
ATOM     11  C   UNL     1       1.670   4.461  18.909  0.00  0.00    +0.000 C 
ATOM     12  C   UNL     1       1.181   4.099  17.519  0.00  0.00    +0.000 C 
ENDBRANCH   1  11
BRANCH   7  13
ATOM     13  C   UNL     1       7.488   6.461  17.188  0.00  0.00    +0.000 C 
BRANCH  13  14
ATOM     14  C   UNL     1       7.472   5.220  16.287  0.00  0.00    +0.000 C 
BRANCH  14  15
ATOM     15  O   UNL     1       7.626   5.613  14.927  0.00  0.00    +0.000 OA
BRANCH  15  16
ATOM     16  C   UNL     1       6.938   4.847  14.021  0.00  0.00    +0.000 A 
ATOM     17  C   UNL     1       7.588   4.646  12.802  0.00  0.00    +0.000 A 
ATOM     18  C   UNL     1       6.989   3.892  11.793  0.00  0.00    +0.000 A 
ATOM     19  C   UNL     1       5.736   3.317  12.001  0.00  0.00    +0.000 A 
ATOM     20  C   UNL     1       5.092   3.490  13.227  0.00  0.00    +0.000 A 
ATOM     21  C   UNL     1       5.691   4.251  14.235  0.00  0.00    +0.000 A 
ENDBRANCH  15  16
ENDBRANCH  14  15
ENDBRANCH  13  14
ENDBRANCH   7  13
TORSDOF 6
ENDMDL
MODEL 3
REMARK VINA RESULT:      -6.6      3.674      7.380
REMARK  Name = 
REMARK  8 active torsions:
REMARK  status: ('A' for Active; 'I' for Inactive)
REMARK    1  A    between atoms: C_1  and  C_2
REMARK    2  A    between atoms: C_2  and  N_3
REMARK    3  A    between atoms: N_3  and  C_4
REMARK    4  A    between atoms: C_4  and  C_5
REMARK    5  A    between atoms: C_11  and  C_12
REMARK    6  A    between atoms: C_12  and  C_13
REMARK    7  A    between atoms: C_13  and  O_14
REMARK    8  A    between atoms: O_14  and  C_15
REMARK                            x       y       z     vdW  Elec       q    Type
REMARK                         _______ _______ _______ _____ _____    ______ ____
ROOT
ATOM      1  N   UNL     1       3.541   4.383  18.783  0.00  0.00    +0.000 N 
ATOM      2  C   UNL     1       4.002   5.485  18.050  0.00  0.00    +0.000 C 
ATOM      3  O   UNL     1       3.225   6.163  17.376  0.00  0.00    +0.000 OA
ATOM      4  N   UNL     1       5.349   5.828  18.070  0.00  0.00    +0.000 N 
ATOM      5  C   UNL     1       6.503   5.226  18.709  0.00  0.00    +0.000 C 
ATOM      6  C   UNL     1       7.525   6.328  18.759  0.00  0.00    +0.000 C 
ATOM      7  C   UNL     1       7.313   7.061  17.441  0.00  0.00    +0.000 C 
ATOM      8  C   UNL     1       5.806   6.902  17.180  0.00  0.00    +0.000 C 
ENDROOT
BRANCH   1  10
ATOM      9  C   UNL     1       1.421   4.226  20.129  0.00  0.00    +0.000 C 
ATOM     10  C   UNL     1       2.088   4.154  18.761  0.00  0.00    +0.000 C 
ENDBRANCH   1  10
BRANCH   1  11
ATOM     11  C   UNL     1       4.356   3.589  19.693  0.00  0.00    +0.000 C 
ATOM     12  C   UNL     1       4.318   2.072  19.661  0.00  0.00    +0.000 C 
ENDBRANCH   1  11
BRANCH   7  13
ATOM     13  C   UNL     1       7.804   8.508  17.520  0.00  0.00    +0.000 C 
BRANCH  13  14
ATOM     14  C   UNL     1       8.752   8.713  18.707  0.00  0.00    +0.000 C 
BRANCH  14  15
ATOM     15  O   UNL     1       8.609  10.037  19.211  0.00  0.00    +0.000 OA
BRANCH  15  16
ATOM     16  C   UNL     1       9.719  10.831  19.079  0.00  0.00    +0.000 A 
ATOM     17  C   UNL     1      10.274  11.278  20.279  0.00  0.00    +0.000 A 
ATOM     18  C   UNL     1      11.401  12.100  20.278  0.00  0.00    +0.000 A 
ATOM     19  C   UNL     1      11.993  12.472  19.073  0.00  0.00    +0.000 A 
ATOM     20  C   UNL     1      11.462  12.007  17.870  0.00  0.00    +0.000 A 
ATOM     21  C   UNL     1      10.328  11.188  17.871  0.00  0.00    +0.000 A 
ENDBRANCH  15  16
ENDBRANCH  14  15
ENDBRANCH  13  14
ENDBRANCH   7  13
TORSDOF 6
ENDMDL
MODEL 4
REMARK VINA RESULT:      -6.5      2.057      6.976
REMARK  Name = 
REMARK  8 active torsions:
REMARK  status: ('A' for Active; 'I' for Inactive)
REMARK    1  A    between atoms: C_1  and  C_2
REMARK    2  A    between atoms: C_2  and  N_3
REMARK    3  A    between atoms: N_3  and  C_4
REMARK    4  A    between atoms: C_4  and  C_5
REMARK    5  A    between atoms: C_11  and  C_12
REMARK    6  A    between atoms: C_12  and  C_13
REMARK    7  A    between atoms: C_13  and  O_14
REMARK    8  A    between atoms: O_14  and  C_15
REMARK                            x       y       z     vdW  Elec       q    Type
REMARK                         _______ _______ _______ _____ _____    ______ ____
ROOT
ATOM      1  N   UNL     1       2.771   3.673  19.807  0.00  0.00    +0.000 N 
ATOM      2  C   UNL     1       4.131   3.812  19.502  0.00  0.00    +0.000 C 
ATOM      3  O   UNL     1       4.932   2.914  19.768  0.00  0.00    +0.000 OA
ATOM      4  N   UNL     1       4.599   4.973  18.895  0.00  0.00    +0.000 N 
ATOM      5  C   UNL     1       3.944   6.205  18.501  0.00  0.00    +0.000 C 
ATOM      6  C   UNL     1       4.864   6.812  17.479  0.00  0.00    +0.000 C 
ATOM      7  C   UNL     1       6.250   6.481  18.015  0.00  0.00    +0.000 C 
ATOM      8  C   UNL     1       6.048   5.130  18.722  0.00  0.00    +0.000 C 
ENDROOT
BRANCH   1  10
ATOM      9  C   UNL     1       1.648   2.474  21.713  0.00  0.00    +0.000 C 
ATOM     10  C   UNL     1       2.364   2.377  20.371  0.00  0.00    +0.000 C 
ENDBRANCH   1  10
BRANCH   1  11
ATOM     11  C   UNL     1       1.732   4.625  19.436  0.00  0.00    +0.000 C 
ATOM     12  C   UNL     1       1.166   5.604  20.447  0.00  0.00    +0.000 C 
ENDBRANCH   1  11
BRANCH   7  13
ATOM     13  C   UNL     1       7.296   6.474  16.899  0.00  0.00    +0.000 C 
BRANCH  13  14
ATOM     14  C   UNL     1       7.259   5.162  16.106  0.00  0.00    +0.000 C 
BRANCH  14  15
ATOM     15  O   UNL     1       7.733   5.389  14.782  0.00  0.00    +0.000 OA
BRANCH  15  16
ATOM     16  C   UNL     1       7.074   4.692  13.803  0.00  0.00    +0.000 A 
ATOM     17  C   UNL     1       5.798   4.246  14.151  0.00  0.00    +0.000 A 
ATOM     18  C   UNL     1       5.028   3.518  13.244  0.00  0.00    +0.000 A 
ATOM     19  C   UNL     1       5.523   3.241  11.971  0.00  0.00    +0.000 A 
ATOM     20  C   UNL     1       6.786   3.707  11.606  0.00  0.00    +0.000 A 
ATOM     21  C   UNL     1       7.560   4.432  12.517  0.00  0.00    +0.000 A 
ENDBRANCH  15  16
ENDBRANCH  14  15
ENDBRANCH  13  14
ENDBRANCH   7  13
TORSDOF 6
ENDMDL
MODEL 5
REMARK VINA RESULT:      -6.4      0.918      1.440
REMARK  Name = 
REMARK  8 active torsions:
REMARK  status: ('A' for Active; 'I' for Inactive)
REMARK    1  A    between atoms: C_1  and  C_2
REMARK    2  A    between atoms: C_2  and  N_3
REMARK    3  A    between atoms: N_3  and  C_4
REMARK    4  A    between atoms: C_4  and  C_5
REMARK    5  A    between atoms: C_11  and  C_12
REMARK    6  A    between atoms: C_12  and  C_13
REMARK    7  A    between atoms: C_13  and  O_14
REMARK    8  A    between atoms: O_14  and  C_15
REMARK                            x       y       z     vdW  Elec       q    Type
REMARK                         _______ _______ _______ _____ _____    ______ ____
ROOT
ATOM      1  N   UNL     1       6.518   4.898  17.501  0.00  0.00    +0.000 N 
ATOM      2  C   UNL     1       5.841   4.474  18.652  0.00  0.00    +0.000 C 
ATOM      3  O   UNL     1       6.142   4.921  19.761  0.00  0.00    +0.000 OA
ATOM      4  N   UNL     1       4.817   3.538  18.560  0.00  0.00    +0.000 N 
ATOM      5  C   UNL     1       4.261   2.801  17.442  0.00  0.00    +0.000 C 
ATOM      6  C   UNL     1       2.902   2.367  17.914  0.00  0.00    +0.000 C 
ATOM      7  C   UNL     1       3.130   2.037  19.383  0.00  0.00    +0.000 C 
ATOM      8  C   UNL     1       4.233   3.023  19.805  0.00  0.00    +0.000 C 
ENDROOT
BRANCH   1  10
ATOM      9  C   UNL     1       7.000   7.367  17.503  0.00  0.00    +0.000 C 
ATOM     10  C   UNL     1       7.527   5.950  17.695  0.00  0.00    +0.000 C 
ENDBRANCH   1  10
BRANCH   1  11
ATOM     11  C   UNL     1       6.166   4.514  16.140  0.00  0.00    +0.000 C 
ATOM     12  C   UNL     1       5.368   5.442  15.243  0.00  0.00    +0.000 C 
ENDBRANCH   1  11
BRANCH   7  13
ATOM     13  C   UNL     1       1.833   2.138  20.189  0.00  0.00    +0.000 C 
BRANCH  13  14
ATOM     14  C   UNL     1       1.810   3.404  21.053  0.00  0.00    +0.000 C 
BRANCH  14  15
ATOM     15  O   UNL     1       0.865   4.329  20.523  0.00  0.00    +0.000 OA
BRANCH  15  16
ATOM     16  C   UNL     1       1.411   5.409  19.877  0.00  0.00    +0.000 A 
ATOM     17  C   UNL     1       1.488   6.576  20.638  0.00  0.00    +0.000 A 
ATOM     18  C   UNL     1       2.016   7.747  20.091  0.00  0.00    +0.000 A 
ATOM     19  C   UNL     1       2.487   7.755  18.780  0.00  0.00    +0.000 A 
ATOM     20  C   UNL     1       2.439   6.584  18.022  0.00  0.00    +0.000 A 
ATOM     21  C   UNL     1       1.905   5.413  18.568  0.00  0.00    +0.000 A 
ENDBRANCH  15  16
ENDBRANCH  14  15
ENDBRANCH  13  14
ENDBRANCH   7  13
TORSDOF 6
ENDMDL
MODEL 6
REMARK VINA RESULT:      -6.4      3.270      6.785
REMARK  Name = 
REMARK  8 active torsions:
REMARK  status: ('A' for Active; 'I' for Inactive)
REMARK    1  A    between atoms: C_1  and  C_2
REMARK    2  A    between atoms: C_2  and  N_3
REMARK    3  A    between atoms: N_3  and  C_4
REMARK    4  A    between atoms: C_4  and  C_5
REMARK    5  A    between atoms: C_11  and  C_12
REMARK    6  A    between atoms: C_12  and  C_13
REMARK    7  A    between atoms: C_13  and  O_14
REMARK    8  A    between atoms: O_14  and  C_15
REMARK                            x       y       z     vdW  Elec       q    Type
REMARK                         _______ _______ _______ _____ _____    ______ ____
ROOT
ATOM      1  N   UNL     1       3.444   3.219  18.363  0.00  0.00    +0.000 N 
ATOM      2  C   UNL     1       4.620   3.868  18.762  0.00  0.00    +0.000 C 
ATOM      3  O   UNL     1       5.332   3.394  19.648  0.00  0.00    +0.000 OA
ATOM      4  N   UNL     1       5.000   5.063  18.161  0.00  0.00    +0.000 N 
ATOM      5  C   UNL     1       4.379   5.890  17.145  0.00  0.00    +0.000 C 
ATOM      6  C   UNL     1       5.502   6.728  16.601  0.00  0.00    +0.000 C 
ATOM      7  C   UNL     1       6.344   7.029  17.834  0.00  0.00    +0.000 C 
ATOM      8  C   UNL     1       6.163   5.775  18.707  0.00  0.00    +0.000 C 
ENDROOT
BRANCH   1  10
ATOM      9  C   UNL     1       2.135   1.974  20.114  0.00  0.00    +0.000 C 
ATOM     10  C   UNL     1       3.174   1.921  19.000  0.00  0.00    +0.000 C 
ENDBRANCH   1  10
BRANCH   1  11
ATOM     11  C   UNL     1       2.596   3.639  17.255  0.00  0.00    +0.000 C 
ATOM     12  C   UNL     1       1.247   4.289  17.499  0.00  0.00    +0.000 C 
ENDBRANCH   1  11
BRANCH   7  13
ATOM     13  C   UNL     1       7.792   7.350  17.460  0.00  0.00    +0.000 C 
BRANCH  13  14
ATOM     14  C   UNL     1       8.097   8.842  17.638  0.00  0.00    +0.000 C 
BRANCH  14  15
ATOM     15  O   UNL     1       8.688   9.061  18.915  0.00  0.00    +0.000 OA
BRANCH  15  16
ATOM     16  C   UNL     1       9.310  10.274  19.066  0.00  0.00    +0.000 A 
ATOM     17  C   UNL     1       9.564  10.648  20.386  0.00  0.00    +0.000 A 
ATOM     18  C   UNL     1      10.184  11.865  20.672  0.00  0.00    +0.000 A 
ATOM     19  C   UNL     1      10.571  12.712  19.636  0.00  0.00    +0.000 A 
ATOM     20  C   UNL     1      10.347  12.333  18.313  0.00  0.00    +0.000 A 
ATOM     21  C   UNL     1       9.719  11.116  18.027  0.00  0.00    +0.000 A 
ENDBRANCH  15  16
ENDBRANCH  14  15
ENDBRANCH  13  14
ENDBRANCH   7  13
TORSDOF 6
ENDMDL
MODEL 7
REMARK VINA RESULT:      -6.4      2.066      5.569
REMARK  Name = 
REMARK  8 active torsions:
REMARK  status: ('A' for Active; 'I' for Inactive)
REMARK    1  A    between atoms: C_1  and  C_2
REMARK    2  A    between atoms: C_2  and  N_3
REMARK    3  A    between atoms: N_3  and  C_4
REMARK    4  A    between atoms: C_4  and  C_5
REMARK    5  A    between atoms: C_11  and  C_12
REMARK    6  A    between atoms: C_12  and  C_13
REMARK    7  A    between atoms: C_13  and  O_14
REMARK    8  A    between atoms: O_14  and  C_15
REMARK                            x       y       z     vdW  Elec       q    Type
REMARK                         _______ _______ _______ _____ _____    ______ ____
ROOT
ATOM      1  N   UNL     1       1.531   8.446  19.781  0.00  0.00    +0.000 N 
ATOM      2  C   UNL     1       2.057   7.421  18.983  0.00  0.00    +0.000 C 
ATOM      3  O   UNL     1       2.461   7.654  17.842  0.00  0.00    +0.000 OA
ATOM      4  N   UNL     1       2.130   6.120  19.469  0.00  0.00    +0.000 N 
ATOM      5  C   UNL     1       1.711   5.517  20.719  0.00  0.00    +0.000 C 
ATOM      6  C   UNL     1       2.511   4.247  20.813  0.00  0.00    +0.000 C 
ATOM      7  C   UNL     1       2.560   3.758  19.371  0.00  0.00    +0.000 C 
ATOM      8  C   UNL     1       2.560   5.059  18.550  0.00  0.00    +0.000 C 
ENDROOT
BRANCH   1  10
ATOM      9  C   UNL     1       0.270  10.245  18.554  0.00  0.00    +0.000 C 
ATOM     10  C   UNL     1       1.573   9.799  19.206  0.00  0.00    +0.000 C 
ENDBRANCH   1  10
BRANCH   1  11
ATOM     11  C   UNL     1       1.131   8.294  21.174  0.00  0.00    +0.000 C 
ATOM     12  C   UNL     1       1.163   9.470  22.133  0.00  0.00    +0.000 C 
ENDBRANCH   1  11
BRANCH   7  13
ATOM     13  C   UNL     1       3.763   2.844  19.130  0.00  0.00    +0.000 C 
BRANCH  13  14
ATOM     14  C   UNL     1       4.879   3.578  18.377  0.00  0.00    +0.000 C 
BRANCH  14  15
ATOM     15  O   UNL     1       5.725   4.247  19.309  0.00  0.00    +0.000 OA
BRANCH  15  16
ATOM     16  C   UNL     1       6.401   5.328  18.804  0.00  0.00    +0.000 A 
ATOM     17  C   UNL     1       5.766   5.982  17.748  0.00  0.00    +0.000 A 
ATOM     18  C   UNL     1       6.356   7.092  17.142  0.00  0.00    +0.000 A 
ATOM     19  C   UNL     1       7.584   7.567  17.600  0.00  0.00    +0.000 A 
ATOM     20  C   UNL     1       8.212   6.936  18.674  0.00  0.00    +0.000 A 
ATOM     21  C   UNL     1       7.623   5.820  19.276  0.00  0.00    +0.000 A 
ENDBRANCH  15  16
ENDBRANCH  14  15
ENDBRANCH  13  14
ENDBRANCH   7  13
TORSDOF 6
ENDMDL
MODEL 8
REMARK VINA RESULT:      -6.3      3.228      6.588
REMARK  Name = 
REMARK  8 active torsions:
REMARK  status: ('A' for Active; 'I' for Inactive)
REMARK    1  A    between atoms: C_1  and  C_2
REMARK    2  A    between atoms: C_2  and  N_3
REMARK    3  A    between atoms: N_3  and  C_4
REMARK    4  A    between atoms: C_4  and  C_5
REMARK    5  A    between atoms: C_11  and  C_12
REMARK    6  A    between atoms: C_12  and  C_13
REMARK    7  A    between atoms: C_13  and  O_14
REMARK    8  A    between atoms: O_14  and  C_15
REMARK                            x       y       z     vdW  Elec       q    Type
REMARK                         _______ _______ _______ _____ _____    ______ ____
ROOT
ATOM      1  N   UNL     1       3.397   3.137  18.274  0.00  0.00    +0.000 N 
ATOM      2  C   UNL     1       4.583   3.758  18.688  0.00  0.00    +0.000 C 
ATOM      3  O   UNL     1       5.309   3.231  19.533  0.00  0.00    +0.000 OA
ATOM      4  N   UNL     1       4.958   4.984  18.151  0.00  0.00    +0.000 N 
ATOM      5  C   UNL     1       4.322   5.871  17.196  0.00  0.00    +0.000 C 
ATOM      6  C   UNL     1       5.439   6.735  16.680  0.00  0.00    +0.000 C 
ATOM      7  C   UNL     1       6.304   6.961  17.913  0.00  0.00    +0.000 C 
ATOM      8  C   UNL     1       6.133   5.659  18.715  0.00  0.00    +0.000 C 
ENDROOT
BRANCH   1  10
ATOM      9  C   UNL     1       2.000   1.771  19.860  0.00  0.00    +0.000 C 
ATOM     10  C   UNL     1       3.132   1.806  18.841  0.00  0.00    +0.000 C 
ENDBRANCH   1  10
BRANCH   1  11
ATOM     11  C   UNL     1       2.531   3.623  17.208  0.00  0.00    +0.000 C 
ATOM     12  C   UNL     1       1.228   4.336  17.518  0.00  0.00    +0.000 C 
ENDBRANCH   1  11
BRANCH   7  13
ATOM     13  C   UNL     1       7.747   7.298  17.531  0.00  0.00    +0.000 C 
BRANCH  13  14
ATOM     14  C   UNL     1       8.039   8.792  17.716  0.00  0.00    +0.000 C 
BRANCH  14  15
ATOM     15  O   UNL     1       8.888   8.977  18.845  0.00  0.00    +0.000 OA
BRANCH  15  16
ATOM     16  C   UNL     1       9.181  10.283  19.141  0.00  0.00    +0.000 A 
ATOM     17  C   UNL     1       9.035  11.177  18.079  0.00  0.00    +0.000 A 
ATOM     18  C   UNL     1       9.313  12.534  18.250  0.00  0.00    +0.000 A 
ATOM     19  C   UNL     1       9.725  13.012  19.492  0.00  0.00    +0.000 A 
ATOM     20  C   UNL     1       9.847  12.129  20.566  0.00  0.00    +0.000 A 
ATOM     21  C   UNL     1       9.575  10.768  20.393  0.00  0.00    +0.000 A 
ENDBRANCH  15  16
ENDBRANCH  14  15
ENDBRANCH  13  14
ENDBRANCH   7  13
TORSDOF 6
ENDMDL
MODEL 9
REMARK VINA RESULT:      -6.3      3.603      7.312
REMARK  Name = 
REMARK  8 active torsions:
REMARK  status: ('A' for Active; 'I' for Inactive)
REMARK    1  A    between atoms: C_1  and  C_2
REMARK    2  A    between atoms: C_2  and  N_3
REMARK    3  A    between atoms: N_3  and  C_4
REMARK    4  A    between atoms: C_4  and  C_5
REMARK    5  A    between atoms: C_11  and  C_12
REMARK    6  A    between atoms: C_12  and  C_13
REMARK    7  A    between atoms: C_13  and  O_14
REMARK    8  A    between atoms: O_14  and  C_15
REMARK                            x       y       z     vdW  Elec       q    Type
REMARK                         _______ _______ _______ _____ _____    ______ ____
ROOT
ATOM      1  N   UNL     1       3.656   4.646  18.931  0.00  0.00    +0.000 N 
ATOM      2  C   UNL     1       4.098   5.775  18.229  0.00  0.00    +0.000 C 
ATOM      3  O   UNL     1       3.294   6.530  17.679  0.00  0.00    +0.000 OA
ATOM      4  N   UNL     1       5.456   6.060  18.141  0.00  0.00    +0.000 N 
ATOM      5  C   UNL     1       6.635   5.369  18.624  0.00  0.00    +0.000 C 
ATOM      6  C   UNL     1       7.708   6.422  18.646  0.00  0.00    +0.000 C 
ATOM      7  C   UNL     1       7.408   7.252  17.405  0.00  0.00    +0.000 C 
ATOM      8  C   UNL     1       5.877   7.173  17.281  0.00  0.00    +0.000 C 
ENDROOT
BRANCH   1  10
ATOM      9  C   UNL     1       1.636   4.732  20.430  0.00  0.00    +0.000 C 
ATOM     10  C   UNL     1       2.198   4.479  19.036  0.00  0.00    +0.000 C 
ENDBRANCH   1  10
BRANCH   1  11
ATOM     11  C   UNL     1       4.515   3.758  19.704  0.00  0.00    +0.000 C 
ATOM     12  C   UNL     1       4.305   2.255  19.692  0.00  0.00    +0.000 C 
ENDBRANCH   1  11
BRANCH   7  13
ATOM     13  C   UNL     1       7.972   8.669  17.528  0.00  0.00    +0.000 C 
BRANCH  13  14
ATOM     14  C   UNL     1       8.825   8.823  18.794  0.00  0.00    +0.000 C 
BRANCH  14  15
ATOM     15  O   UNL     1       8.722  10.157  19.281  0.00  0.00    +0.000 OA
BRANCH  15  16
ATOM     16  C   UNL     1       9.553  11.062  18.671  0.00  0.00    +0.000 A 
ATOM     17  C   UNL     1       8.911  12.163  18.102  0.00  0.00    +0.000 A 
ATOM     18  C   UNL     1       9.646  13.151  17.444  0.00  0.00    +0.000 A 
ATOM     19  C   UNL     1      11.033  13.053  17.363  0.00  0.00    +0.000 A 
ATOM     20  C   UNL     1      11.684  11.969  17.954  0.00  0.00    +0.000 A 
ATOM     21  C   UNL     1      10.947  10.976  18.608  0.00  0.00    +0.000 A 
ENDBRANCH  15  16
ENDBRANCH  14  15
ENDBRANCH  13  14
ENDBRANCH   7  13
TORSDOF 6
ENDMDL
