MODEL 1
REMARK VINA RESULT:      -6.0      0.000      0.000
REMARK  Name = 
REMARK  9 active torsions:
REMARK  status: ('A' for Active; 'I' for Inactive)
REMARK    1  A    between atoms: C_1  and  C_2
REMARK    2  A    between atoms: C_2  and  C_3
REMARK    3  A    between atoms: C_2  and  C_4
REMARK    4  A    between atoms: C_2  and  S_5
REMARK    5  A    between atoms: S_5  and  C_6
REMARK    6  A    between atoms: C_6  and  S_8
REMARK    7  A    between atoms: S_8  and  C_9
REMARK    8  A    between atoms: C_9  and  C_10
REMARK    9  A    between atoms: C_10  and  C_12
REMARK                            x       y       z     vdW  Elec       q    Type
REMARK                         _______ _______ _______ _____ _____    ______ ____
ROOT
ATOM      1  C   UNL     1       1.885   8.630  18.695  0.00  0.00    +0.000 C 
ATOM      2  O   UNL     1       1.951   9.290  17.658  0.00  0.00    +0.000 OA
ENDROOT
BRANCH   1   3
ATOM      3  C   UNL     1       1.078   9.187  19.817  0.00  0.00    +0.000 A 
ATOM      4  C   UNL     1       1.128   8.643  21.105  0.00  0.00    +0.000 A 
ATOM      5  C   UNL     1       0.345   9.198  22.126  0.00  0.00    +0.000 A 
ATOM      6  C   UNL     1      -0.481  10.296  21.867  0.00  0.00    +0.000 A 
ATOM      7 CL   UNL     1      -1.401  10.932  23.185  0.00  0.00    +0.000 Cl
ATOM      8  C   UNL     1      -0.539  10.834  20.578  0.00  0.00    +0.000 A 
ATOM      9 CL   UNL     1      -1.540  12.187  20.188  0.00  0.00    +0.000 Cl
ATOM     10  C   UNL     1       0.232  10.274  19.555  0.00  0.00    +0.000 A 
ENDBRANCH   1   3
BRANCH   1  11
ATOM     11  C   UNL     1       2.555   7.276  18.891  0.00  0.00    +0.000 C 
BRANCH  11  12
ATOM     12  S   UNL     1       3.702   6.922  17.522  0.00  0.00    +0.000 S 
BRANCH  12  13
ATOM     13  C   UNL     1       4.055   5.218  17.791  0.00  0.00    +0.000 C 
ATOM     14  S   UNL     1       4.836   4.255  16.663  0.00  0.00    +0.000 S 
BRANCH  13  15
ATOM     15  S   UNL     1       3.625   4.633  19.394  0.00  0.00    +0.000 S 
BRANCH  15  17
ATOM     16  C   UNL     1       2.386   2.123  19.176  0.00  0.00    +0.000 C 
ATOM     17  C   UNL     1       2.098   3.629  19.128  0.00  0.00    +0.000 C 
ATOM     18  C   UNL     1       1.405   3.990  17.811  0.00  0.00    +0.000 C 
ATOM     19  C   UNL     1       1.148   3.967  20.295  0.00  0.00    +0.000 C 
ENDBRANCH  15  17
ENDBRANCH  13  15
ENDBRANCH  12  13
ENDBRANCH  11  12
ENDBRANCH   1  11
TORSDOF 6
ENDMDL
MODEL 2
REMARK VINA RESULT:      -5.9      0.957      1.983
REMARK  Name = 
REMARK  9 active torsions:
REMARK  status: ('A' for Active; 'I' for Inactive)
REMARK    1  A    between atoms: C_1  and  C_2
REMARK    2  A    between atoms: C_2  and  C_3
REMARK    3  A    between atoms: C_2  and  C_4
REMARK    4  A    between atoms: C_2  and  S_5
REMARK    5  A    between atoms: S_5  and  C_6
REMARK    6  A    between atoms: C_6  and  S_8
REMARK    7  A    between atoms: S_8  and  C_9
REMARK    8  A    between atoms: C_9  and  C_10
REMARK    9  A    between atoms: C_10  and  C_12
REMARK                            x       y       z     vdW  Elec       q    Type
REMARK                         _______ _______ _______ _____ _____    ______ ____
ROOT
ATOM      1  C   UNL     1       1.798   8.893  18.520  0.00  0.00    +0.000 C 
ATOM      2  O   UNL     1       2.056   9.401  17.430  0.00  0.00    +0.000 OA
ENDROOT
BRANCH   1   3
ATOM      3  C   UNL     1       0.911   9.654  19.445  0.00  0.00    +0.000 A 
ATOM      4  C   UNL     1       0.128  10.726  19.005  0.00  0.00    +0.000 A 
ATOM      5  C   UNL     1      -0.685  11.414  19.915  0.00  0.00    +0.000 A 
ATOM      6  C   UNL     1      -0.723  11.032  21.259  0.00  0.00    +0.000 A 
ATOM      7 CL   UNL     1      -1.766  11.922  22.313  0.00  0.00    +0.000 Cl
ATOM      8  C   UNL     1       0.066   9.967  21.702  0.00  0.00    +0.000 A 
ATOM      9 CL   UNL     1       0.070   9.444  23.349  0.00  0.00    +0.000 Cl
ATOM     10  C   UNL     1       0.887   9.287  20.798  0.00  0.00    +0.000 A 
ENDBRANCH   1   3
BRANCH   1  11
ATOM     11  C   UNL     1       2.310   7.531  18.970  0.00  0.00    +0.000 C 
BRANCH  11  12
ATOM     12  S   UNL     1       3.632   6.942  17.864  0.00  0.00    +0.000 S 
BRANCH  12  13
ATOM     13  C   UNL     1       4.192   5.508  18.718  0.00  0.00    +0.000 C 
ATOM     14  S   UNL     1       5.692   4.809  18.448  0.00  0.00    +0.000 S 
BRANCH  13  15
ATOM     15  S   UNL     1       3.094   4.932  19.967  0.00  0.00    +0.000 S 
BRANCH  15  17
ATOM     16  C   UNL     1       1.708   4.003  17.709  0.00  0.00    +0.000 C 
ATOM     17  C   UNL     1       2.100   3.614  19.140  0.00  0.00    +0.000 C 
ATOM     18  C   UNL     1       0.849   3.257  19.948  0.00  0.00    +0.000 C 
ATOM     19  C   UNL     1       3.009   2.371  19.060  0.00  0.00    +0.000 C 
ENDBRANCH  15  17
ENDBRANCH  13  15
ENDBRANCH  12  13
ENDBRANCH  11  12
ENDBRANCH   1  11
TORSDOF 6
ENDMDL
MODEL 3
REMARK VINA RESULT:      -5.8      2.537      4.319
REMARK  Name = 
REMARK  9 active torsions:
REMARK  status: ('A' for Active; 'I' for Inactive)
REMARK    1  A    between atoms: C_1  and  C_2
REMARK    2  A    between atoms: C_2  and  C_3
REMARK    3  A    between atoms: C_2  and  C_4
REMARK    4  A    between atoms: C_2  and  S_5
REMARK    5  A    between atoms: S_5  and  C_6
REMARK    6  A    between atoms: C_6  and  S_8
REMARK    7  A    between atoms: S_8  and  C_9
REMARK    8  A    between atoms: C_9  and  C_10
REMARK    9  A    between atoms: C_10  and  C_12
REMARK                            x       y       z     vdW  Elec       q    Type
REMARK                         _______ _______ _______ _____ _____    ______ ____
ROOT
ATOM      1  C   UNL     1       2.726   5.167  18.905  0.00  0.00    +0.000 C 
ATOM      2  O   UNL     1       3.077   4.570  19.921  0.00  0.00    +0.000 OA
ENDROOT
BRANCH   1   3
ATOM      3  C   UNL     1       2.287   6.583  19.052  0.00  0.00    +0.000 A 
ATOM      4  C   UNL     1       2.283   7.473  17.972  0.00  0.00    +0.000 A 
ATOM      5  C   UNL     1       1.868   8.797  18.163  0.00  0.00    +0.000 A 
ATOM      6  C   UNL     1       1.451   9.234  19.424  0.00  0.00    +0.000 A 
ATOM      7 CL   UNL     1       0.938  10.878  19.570  0.00  0.00    +0.000 Cl
ATOM      8  C   UNL     1       1.463   8.348  20.505  0.00  0.00    +0.000 A 
ATOM      9 CL   UNL     1       0.965   8.822  22.091  0.00  0.00    +0.000 Cl
ATOM     10  C   UNL     1       1.889   7.030  20.320  0.00  0.00    +0.000 A 
ENDBRANCH   1   3
BRANCH   1  11
ATOM     11  C   UNL     1       2.732   4.555  17.509  0.00  0.00    +0.000 C 
BRANCH  11  12
ATOM     12  S   UNL     1       4.230   3.552  17.253  0.00  0.00    +0.000 S 
BRANCH  12  13
ATOM     13  C   UNL     1       5.165   4.584  16.176  0.00  0.00    +0.000 C 
ATOM     14  S   UNL     1       5.517   4.170  14.590  0.00  0.00    +0.000 S 
BRANCH  13  15
ATOM     15  S   UNL     1       5.604   6.142  16.865  0.00  0.00    +0.000 S 
BRANCH  15  17
ATOM     16  C   UNL     1       7.831   4.591  17.585  0.00  0.00    +0.000 C 
ATOM     17  C   UNL     1       6.955   5.756  18.063  0.00  0.00    +0.000 C 
ATOM     18  C   UNL     1       6.405   5.461  19.462  0.00  0.00    +0.000 C 
ATOM     19  C   UNL     1       7.842   7.016  18.136  0.00  0.00    +0.000 C 
ENDBRANCH  15  17
ENDBRANCH  13  15
ENDBRANCH  12  13
ENDBRANCH  11  12
ENDBRANCH   1  11
TORSDOF 6
ENDMDL
MODEL 4
REMARK VINA RESULT:      -5.8      1.784      3.393
REMARK  Name = 
REMARK  9 active torsions:
REMARK  status: ('A' for Active; 'I' for Inactive)
REMARK    1  A    between atoms: C_1  and  C_2
REMARK    2  A    between atoms: C_2  and  C_3
REMARK    3  A    between atoms: C_2  and  C_4
REMARK    4  A    between atoms: C_2  and  S_5
REMARK    5  A    between atoms: S_5  and  C_6
REMARK    6  A    between atoms: C_6  and  S_8
REMARK    7  A    between atoms: S_8  and  C_9
REMARK    8  A    between atoms: C_9  and  C_10
REMARK    9  A    between atoms: C_10  and  C_12
REMARK                            x       y       z     vdW  Elec       q    Type
REMARK                         _______ _______ _______ _____ _____    ______ ____
ROOT
ATOM      1  C   UNL     1       2.242   7.960  18.774  0.00  0.00    +0.000 C 
ATOM      2  O   UNL     1       2.746   8.321  17.711  0.00  0.00    +0.000 OA
ENDROOT
BRANCH   1   3
ATOM      3  C   UNL     1       1.318   8.909  19.457  0.00  0.00    +0.000 A 
ATOM      4  C   UNL     1       0.652   9.924  18.763  0.00  0.00    +0.000 A 
ATOM      5  C   UNL     1      -0.201  10.795  19.453  0.00  0.00    +0.000 A 
ATOM      6  C   UNL     1      -0.396  10.652  20.829  0.00  0.00    +0.000 A 
ATOM      7 CL   UNL     1      -1.479  11.757  21.601  0.00  0.00    +0.000 Cl
ATOM      8  C   UNL     1       0.276   9.644  21.526  0.00  0.00    +0.000 A 
ATOM      9 CL   UNL     1       0.084   9.414  23.228  0.00  0.00    +0.000 Cl
ATOM     10  C   UNL     1       1.137   8.782  20.842  0.00  0.00    +0.000 A 
ENDBRANCH   1   3
BRANCH   1  11
ATOM     11  C   UNL     1       2.487   6.602  19.419  0.00  0.00    +0.000 C 
BRANCH  11  12
ATOM     12  S   UNL     1       2.456   5.280  18.167  0.00  0.00    +0.000 S 
BRANCH  12  13
ATOM     13  C   UNL     1       4.147   4.793  18.128  0.00  0.00    +0.000 C 
ATOM     14  S   UNL     1       5.248   5.210  19.322  0.00  0.00    +0.000 S 
BRANCH  13  15
ATOM     15  S   UNL     1       4.566   3.731  16.788  0.00  0.00    +0.000 S 
BRANCH  15  17
ATOM     16  C   UNL     1       5.243   6.251  15.752  0.00  0.00    +0.000 C 
ATOM     17  C   UNL     1       5.626   4.767  15.687  0.00  0.00    +0.000 C 
ATOM     18  C   UNL     1       5.584   4.278  14.236  0.00  0.00    +0.000 C 
ATOM     19  C   UNL     1       7.067   4.627  16.215  0.00  0.00    +0.000 C 
ENDBRANCH  15  17
ENDBRANCH  13  15
ENDBRANCH  12  13
ENDBRANCH  11  12
ENDBRANCH   1  11
TORSDOF 6
ENDMDL
MODEL 5
REMARK VINA RESULT:      -5.7      0.433      1.140
REMARK  Name = 
REMARK  9 active torsions:
REMARK  status: ('A' for Active; 'I' for Inactive)
REMARK    1  A    between atoms: C_1  and  C_2
REMARK    2  A    between atoms: C_2  and  C_3
REMARK    3  A    between atoms: C_2  and  C_4
REMARK    4  A    between atoms: C_2  and  S_5
REMARK    5  A    between atoms: S_5  and  C_6
REMARK    6  A    between atoms: C_6  and  S_8
REMARK    7  A    between atoms: S_8  and  C_9
REMARK    8  A    between atoms: C_9  and  C_10
REMARK    9  A    between atoms: C_10  and  C_12
REMARK                            x       y       z     vdW  Elec       q    Type
REMARK                         _______ _______ _______ _____ _____    ______ ____
ROOT
ATOM      1  C   UNL     1       2.005   8.311  18.688  0.00  0.00    +0.000 C 
ATOM      2  O   UNL     1       1.816   8.744  17.552  0.00  0.00    +0.000 OA
ENDROOT
BRANCH   1   3
ATOM      3  C   UNL     1       1.244   8.941  19.803  0.00  0.00    +0.000 A 
ATOM      4  C   UNL     1       1.287   8.437  21.107  0.00  0.00    +0.000 A 
ATOM      5  C   UNL     1       0.548   9.062  22.120  0.00  0.00    +0.000 A 
ATOM      6  C   UNL     1      -0.228  10.190  21.837  0.00  0.00    +0.000 A 
ATOM      7 CL   UNL     1      -1.096  10.911  23.147  0.00  0.00    +0.000 Cl
ATOM      8  C   UNL     1      -0.280  10.689  20.533  0.00  0.00    +0.000 A 
ATOM      9 CL   UNL     1      -1.221  12.075  20.112  0.00  0.00    +0.000 Cl
ATOM     10  C   UNL     1       0.447  10.060  19.518  0.00  0.00    +0.000 A 
ENDBRANCH   1   3
BRANCH   1  11
ATOM     11  C   UNL     1       2.948   7.161  19.019  0.00  0.00    +0.000 C 
BRANCH  11  12
ATOM     12  S   UNL     1       4.085   6.842  17.633  0.00  0.00    +0.000 S 
BRANCH  12  13
ATOM     13  C   UNL     1       4.249   5.091  17.709  0.00  0.00    +0.000 C 
ATOM     14  S   UNL     1       4.959   4.184  16.491  0.00  0.00    +0.000 S 
BRANCH  13  15
ATOM     15  S   UNL     1       3.708   4.377  19.224  0.00  0.00    +0.000 S 
BRANCH  15  17
ATOM     16  C   UNL     1       1.388   4.126  17.663  0.00  0.00    +0.000 C 
ATOM     17  C   UNL     1       2.184   3.435  18.777  0.00  0.00    +0.000 C 
ATOM     18  C   UNL     1       1.287   3.198  19.995  0.00  0.00    +0.000 C 
ATOM     19  C   UNL     1       2.661   2.070  18.241  0.00  0.00    +0.000 C 
ENDBRANCH  15  17
ENDBRANCH  13  15
ENDBRANCH  12  13
ENDBRANCH  11  12
ENDBRANCH   1  11
TORSDOF 6
ENDMDL
MODEL 6
REMARK VINA RESULT:      -5.7      0.913      1.301
REMARK  Name = 
REMARK  9 active torsions:
REMARK  status: ('A' for Active; 'I' for Inactive)
REMARK    1  A    between atoms: C_1  and  C_2
REMARK    2  A    between atoms: C_2  and  C_3
REMARK    3  A    between atoms: C_2  and  C_4
REMARK    4  A    between atoms: C_2  and  S_5
REMARK    5  A    between atoms: S_5  and  C_6
REMARK    6  A    between atoms: C_6  and  S_8
REMARK    7  A    between atoms: S_8  and  C_9
REMARK    8  A    between atoms: C_9  and  C_10
REMARK    9  A    between atoms: C_10  and  C_12
REMARK                            x       y       z     vdW  Elec       q    Type
REMARK                         _______ _______ _______ _____ _____    ______ ____
ROOT
ATOM      1  C   UNL     1       1.991   8.501  18.292  0.00  0.00    +0.000 C 
ATOM      2  O   UNL     1       2.383   9.350  17.493  0.00  0.00    +0.000 OA
ENDROOT
BRANCH   1   3
ATOM      3  C   UNL     1       1.277   8.976  19.510  0.00  0.00    +0.000 A 
ATOM      4  C   UNL     1       1.404   8.328  20.744  0.00  0.00    +0.000 A 
ATOM      5  C   UNL     1       0.706   8.810  21.858  0.00  0.00    +0.000 A 
ATOM      6  C   UNL     1      -0.112   9.939  21.748  0.00  0.00    +0.000 A 
ATOM      7 CL   UNL     1      -0.924  10.479  23.176  0.00  0.00    +0.000 Cl
ATOM      8  C   UNL     1      -0.247  10.581  20.515  0.00  0.00    +0.000 A 
ATOM      9 CL   UNL     1      -1.244  11.978  20.307  0.00  0.00    +0.000 Cl
ATOM     10  C   UNL     1       0.439  10.095  19.398  0.00  0.00    +0.000 A 
ENDBRANCH   1   3
BRANCH   1  11
ATOM     11  C   UNL     1       2.171   7.000  18.102  0.00  0.00    +0.000 C 
BRANCH  11  12
ATOM     12  S   UNL     1       3.923   6.592  17.819  0.00  0.00    +0.000 S 
BRANCH  12  13
ATOM     13  C   UNL     1       3.816   4.906  17.325  0.00  0.00    +0.000 C 
ATOM     14  S   UNL     1       5.068   4.095  16.559  0.00  0.00    +0.000 S 
BRANCH  13  15
ATOM     15  S   UNL     1       2.326   4.102  17.806  0.00  0.00    +0.000 S 
BRANCH  15  17
ATOM     16  C   UNL     1       2.257   4.482  20.587  0.00  0.00    +0.000 C 
ATOM     17  C   UNL     1       2.667   3.472  19.508  0.00  0.00    +0.000 C 
ATOM     18  C   UNL     1       4.138   3.082  19.684  0.00  0.00    +0.000 C 
ATOM     19  C   UNL     1       1.797   2.211  19.686  0.00  0.00    +0.000 C 
ENDBRANCH  15  17
ENDBRANCH  13  15
ENDBRANCH  12  13
ENDBRANCH  11  12
ENDBRANCH   1  11
TORSDOF 6
ENDMDL
MODEL 7
REMARK VINA RESULT:      -5.6      1.286      1.523
REMARK  Name = 
REMARK  9 active torsions:
REMARK  status: ('A' for Active; 'I' for Inactive)
REMARK    1  A    between atoms: C_1  and  C_2
REMARK    2  A    between atoms: C_2  and  C_3
REMARK    3  A    between atoms: C_2  and  C_4
REMARK    4  A    between atoms: C_2  and  S_5
REMARK    5  A    between atoms: S_5  and  C_6
REMARK    6  A    between atoms: C_6  and  S_8
REMARK    7  A    between atoms: S_8  and  C_9
REMARK    8  A    between atoms: C_9  and  C_10
REMARK    9  A    between atoms: C_10  and  C_12
REMARK                            x       y       z     vdW  Elec       q    Type
REMARK                         _______ _______ _______ _____ _____    ______ ____
ROOT
ATOM      1  C   UNL     1       2.215   8.485  18.204  0.00  0.00    +0.000 C 
ATOM      2  O   UNL     1       1.918   9.028  17.141  0.00  0.00    +0.000 OA
ENDROOT
BRANCH   1   3
ATOM      3  C   UNL     1       1.451   8.883  19.420  0.00  0.00    +0.000 A 
ATOM      4  C   UNL     1       1.626   8.238  20.649  0.00  0.00    +0.000 A 
ATOM      5  C   UNL     1       0.879   8.645  21.762  0.00  0.00    +0.000 A 
ATOM      6  C   UNL     1      -0.037   9.695  21.654  0.00  0.00    +0.000 A 
ATOM      7 CL   UNL     1      -0.906  10.147  23.078  0.00  0.00    +0.000 Cl
ATOM      8  C   UNL     1      -0.220  10.334  20.424  0.00  0.00    +0.000 A 
ATOM      9 CL   UNL     1      -1.338  11.636  20.219  0.00  0.00    +0.000 Cl
ATOM     10  C   UNL     1       0.516   9.922  19.310  0.00  0.00    +0.000 A 
ENDBRANCH   1   3
BRANCH   1  11
ATOM     11  C   UNL     1       3.296   7.421  18.348  0.00  0.00    +0.000 C 
BRANCH  11  12
ATOM     12  S   UNL     1       2.628   5.770  17.971  0.00  0.00    +0.000 S 
BRANCH  12  13
ATOM     13  C   UNL     1       3.850   4.724  18.688  0.00  0.00    +0.000 C 
ATOM     14  S   UNL     1       5.406   5.241  19.036  0.00  0.00    +0.000 S 
BRANCH  13  15
ATOM     15  S   UNL     1       3.269   3.120  19.118  0.00  0.00    +0.000 S 
BRANCH  15  17
ATOM     16  C   UNL     1       0.629   3.202  20.069  0.00  0.00    +0.000 C 
ATOM     17  C   UNL     1       2.084   3.410  20.504  0.00  0.00    +0.000 C 
ATOM     18  C   UNL     1       2.256   4.805  21.113  0.00  0.00    +0.000 C 
ATOM     19  C   UNL     1       2.412   2.357  21.582  0.00  0.00    +0.000 C 
ENDBRANCH  15  17
ENDBRANCH  13  15
ENDBRANCH  12  13
ENDBRANCH  11  12
ENDBRANCH   1  11
TORSDOF 6
ENDMDL
MODEL 8
REMARK VINA RESULT:      -5.6      3.181      4.824
REMARK  Name = 
REMARK  9 active torsions:
REMARK  status: ('A' for Active; 'I' for Inactive)
REMARK    1  A    between atoms: C_1  and  C_2
REMARK    2  A    between atoms: C_2  and  C_3
REMARK    3  A    between atoms: C_2  and  C_4
REMARK    4  A    between atoms: C_2  and  S_5
REMARK    5  A    between atoms: S_5  and  C_6
REMARK    6  A    between atoms: C_6  and  S_8
REMARK    7  A    between atoms: S_8  and  C_9
REMARK    8  A    between atoms: C_9  and  C_10
REMARK    9  A    between atoms: C_10  and  C_12
REMARK                            x       y       z     vdW  Elec       q    Type
REMARK                         _______ _______ _______ _____ _____    ______ ____
ROOT
ATOM      1  C   UNL     1       3.766   4.275  18.270  0.00  0.00    +0.000 C 
ATOM      2  O   UNL     1       3.145   3.599  17.450  0.00  0.00    +0.000 OA
ENDROOT
BRANCH   1   3
ATOM      3  C   UNL     1       3.055   5.425  18.896  0.00  0.00    +0.000 A 
ATOM      4  C   UNL     1       2.526   5.353  20.190  0.00  0.00    +0.000 A 
ATOM      5  C   UNL     1       1.861   6.460  20.732  0.00  0.00    +0.000 A 
ATOM      6  C   UNL     1       1.728   7.639  19.992  0.00  0.00    +0.000 A 
ATOM      7 CL   UNL     1       0.909   8.964  20.741  0.00  0.00    +0.000 Cl
ATOM      8  C   UNL     1       2.248   7.709  18.697  0.00  0.00    +0.000 A 
ATOM      9 CL   UNL     1       2.116   9.132  17.726  0.00  0.00    +0.000 Cl
ATOM     10  C   UNL     1       2.902   6.601  18.149  0.00  0.00    +0.000 A 
ENDBRANCH   1   3
BRANCH   1  11
ATOM     11  C   UNL     1       5.201   3.995  18.697  0.00  0.00    +0.000 C 
BRANCH  11  12
ATOM     12  S   UNL     1       6.022   5.527  19.238  0.00  0.00    +0.000 S 
BRANCH  12  13
ATOM     13  C   UNL     1       6.996   5.922  17.826  0.00  0.00    +0.000 C 
ATOM     14  S   UNL     1       7.589   7.461  17.524  0.00  0.00    +0.000 S 
BRANCH  13  15
ATOM     15  S   UNL     1       7.397   4.541  16.812  0.00  0.00    +0.000 S 
BRANCH  15  17
ATOM     16  C   UNL     1       5.605   3.573  14.880  0.00  0.00    +0.000 C 
ATOM     17  C   UNL     1       6.432   4.807  15.260  0.00  0.00    +0.000 C 
ATOM     18  C   UNL     1       7.337   5.214  14.093  0.00  0.00    +0.000 C 
ATOM     19  C   UNL     1       5.452   5.962  15.552  0.00  0.00    +0.000 C 
ENDBRANCH  15  17
ENDBRANCH  13  15
ENDBRANCH  12  13
ENDBRANCH  11  12
ENDBRANCH   1  11
TORSDOF 6
ENDMDL
MODEL 9
REMARK VINA RESULT:      -5.6      3.112      4.734
REMARK  Name = 
REMARK  9 active torsions:
REMARK  status: ('A' for Active; 'I' for Inactive)
REMARK    1  A    between atoms: C_1  and  C_2
REMARK    2  A    between atoms: C_2  and  C_3
REMARK    3  A    between atoms: C_2  and  C_4
REMARK    4  A    between atoms: C_2  and  S_5
REMARK    5  A    between atoms: S_5  and  C_6
REMARK    6  A    between atoms: C_6  and  S_8
REMARK    7  A    between atoms: S_8  and  C_9
REMARK    8  A    between atoms: C_9  and  C_10
REMARK    9  A    between atoms: C_10  and  C_12
REMARK                            x       y       z     vdW  Elec       q    Type
REMARK                         _______ _______ _______ _____ _____    ______ ____
ROOT
ATOM      1  C   UNL     1       2.406   3.884  17.813  0.00  0.00    +0.000 C 
ATOM      2  O   UNL     1       1.774   2.865  18.088  0.00  0.00    +0.000 OA
ENDROOT
BRANCH   1   3
ATOM      3  C   UNL     1       2.196   5.080  18.676  0.00  0.00    +0.000 A 
ATOM      4  C   UNL     1       1.867   4.968  20.031  0.00  0.00    +0.000 A 
ATOM      5  C   UNL     1       1.674   6.123  20.799  0.00  0.00    +0.000 A 
ATOM      6  C   UNL     1       1.814   7.388  20.222  0.00  0.00    +0.000 A 
ATOM      7 CL   UNL     1       1.576   8.763  21.243  0.00  0.00    +0.000 Cl
ATOM      8  C   UNL     1       2.134   7.502  18.866  0.00  0.00    +0.000 A 
ATOM      9 CL   UNL     1       2.319   9.034  18.087  0.00  0.00    +0.000 Cl
ATOM     10  C   UNL     1       2.315   6.351  18.095  0.00  0.00    +0.000 A 
ENDBRANCH   1   3
BRANCH   1  11
ATOM     11  C   UNL     1       3.400   3.989  16.664  0.00  0.00    +0.000 C 
BRANCH  11  12
ATOM     12  S   UNL     1       4.941   3.104  17.062  0.00  0.00    +0.000 S 
BRANCH  12  13
ATOM     13  C   UNL     1       6.114   3.987  16.091  0.00  0.00    +0.000 C 
ATOM     14  S   UNL     1       5.911   4.281  14.453  0.00  0.00    +0.000 S 
BRANCH  13  15
ATOM     15  S   UNL     1       7.469   4.639  17.005  0.00  0.00    +0.000 S 
BRANCH  15  17
ATOM     16  C   UNL     1       6.013   5.507  19.244  0.00  0.00    +0.000 C 
ATOM     17  C   UNL     1       6.741   6.018  17.994  0.00  0.00    +0.000 C 
ATOM     18  C   UNL     1       5.797   6.882  17.153  0.00  0.00    +0.000 C 
ATOM     19  C   UNL     1       7.925   6.890  18.460  0.00  0.00    +0.000 C 
ENDBRANCH  15  17
ENDBRANCH  13  15
ENDBRANCH  12  13
ENDBRANCH  11  12
ENDBRANCH   1  11
TORSDOF 6
ENDMDL
