MODEL 1
REMARK VINA RESULT:      -6.5      0.000      0.000
REMARK  Name = 
REMARK  4 active torsions:
REMARK  status: ('A' for Active; 'I' for Inactive)
REMARK    1  A    between atoms: C_1  and  O_2
REMARK    2  A    between atoms: O_2  and  C_3
REMARK    3  A    between atoms: C_8  and  O_9
REMARK    4  A    between atoms: O_9  and  C_10
REMARK                            x       y       z     vdW  Elec       q    Type
REMARK                         _______ _______ _______ _____ _____    ______ ____
ROOT
ATOM      1  C   UNL     1       0.679  13.108  19.357  0.00  0.00    +0.000 A 
ATOM      2  C   UNL     1      -0.091  12.133  20.014  0.00  0.00    +0.000 A 
ATOM      3  C   UNL     1       0.277  10.780  19.994  0.00  0.00    +0.000 A 
ATOM      4  C   UNL     1       1.328  10.369  19.161  0.00  0.00    +0.000 A 
ATOM      5  C   UNL     1       2.001  11.338  18.397  0.00  0.00    +0.000 A 
ATOM      6  C   UNL     1       1.702  12.705  18.496  0.00  0.00    +0.000 A 
ATOM      7  C   UNL     1       1.766   8.980  19.081  0.00  0.00    +0.000 A 
ATOM      8  N   UNL     1       2.259   8.368  17.954  0.00  0.00    +0.000 N 
ATOM      9  C   UNL     1       2.651   7.077  18.239  0.00  0.00    +0.000 A 
ATOM     10  C   UNL     1       3.227   6.108  17.410  0.00  0.00    +0.000 A 
ATOM     11  C   UNL     1       3.535   4.869  17.983  0.00  0.00    +0.000 A 
ATOM     12  C   UNL     1       3.270   4.623  19.329  0.00  0.00    +0.000 A 
ATOM     13 BR   UNL     1       3.711   2.939  20.072  0.00  0.00    +0.000 Br
ATOM     14  C   UNL     1       2.687   5.596  20.143  0.00  0.00    +0.000 A 
ATOM     15  C   UNL     1       2.370   6.850  19.585  0.00  0.00    +0.000 A 
ATOM     16  C   UNL     1       1.790   8.046  20.097  0.00  0.00    +0.000 A 
ATOM     17  C   UNL     1       1.315   8.326  21.472  0.00  0.00    +0.000 C 
ATOM     18  C   UNL     1      -0.130   8.781  21.475  0.00  0.00    +0.000 C 
ATOM     19  O   UNL     1      -0.980   8.204  22.159  0.00  0.00    +0.000 OA
ATOM     20  N   UNL     1      -0.486   9.939  20.836  0.00  0.00    +0.000 N 
ATOM     21  H   UNL     1       2.337   8.798  17.046  0.00  0.00    +0.000 HD
ATOM     22  H   UNL     1      -1.405  10.257  21.121  0.00  0.00    +0.000 HD
ENDROOT
BRANCH   1  24
ATOM     23  C   UNL     1       0.849  14.916  20.858  0.00  0.00    +0.000 C 
ATOM     24  O   UNL     1       0.435  14.438  19.573  0.00  0.00    +0.000 OA
ENDBRANCH   1  24
BRANCH   6  25
ATOM     25  O   UNL     1       2.536  13.456  17.713  0.00  0.00    +0.000 OA
ATOM     26  C   UNL     1       3.607  14.158  18.315  0.00  0.00    +0.000 C 
ENDBRANCH   6  25
TORSDOF 2
ENDMDL
MODEL 2
REMARK VINA RESULT:      -6.5      3.754      7.398
REMARK  Name = 
REMARK  4 active torsions:
REMARK  status: ('A' for Active; 'I' for Inactive)
REMARK    1  A    between atoms: C_1  and  O_2
REMARK    2  A    between atoms: O_2  and  C_3
REMARK    3  A    between atoms: C_8  and  O_9
REMARK    4  A    between atoms: O_9  and  C_10
REMARK                            x       y       z     vdW  Elec       q    Type
REMARK                         _______ _______ _______ _____ _____    ______ ____
ROOT
ATOM      1  C   UNL     1       2.561   7.235  18.795  0.00  0.00    +0.000 A 
ATOM      2  C   UNL     1       2.327   8.462  18.151  0.00  0.00    +0.000 A 
ATOM      3  C   UNL     1       1.687   9.521  18.811  0.00  0.00    +0.000 A 
ATOM      4  C   UNL     1       1.114   9.294  20.072  0.00  0.00    +0.000 A 
ATOM      5  C   UNL     1       1.233   8.017  20.646  0.00  0.00    +0.000 A 
ATOM      6  C   UNL     1       1.964   6.988  20.032  0.00  0.00    +0.000 A 
ATOM      7  C   UNL     1       0.428  10.341  20.820  0.00  0.00    +0.000 A 
ATOM      8  N   UNL     1      -0.647  10.146  21.652  0.00  0.00    +0.000 N 
ATOM      9  C   UNL     1      -1.007  11.329  22.261  0.00  0.00    +0.000 A 
ATOM     10  C   UNL     1      -2.016  11.591  23.194  0.00  0.00    +0.000 A 
ATOM     11  C   UNL     1      -2.145  12.906  23.654  0.00  0.00    +0.000 A 
ATOM     12  C   UNL     1      -1.295  13.908  23.191  0.00  0.00    +0.000 A 
ATOM     13 BR   UNL     1      -1.491  15.673  23.844  0.00  0.00    +0.000 Br
ATOM     14  C   UNL     1      -0.296  13.635  22.253  0.00  0.00    +0.000 A 
ATOM     15  C   UNL     1      -0.150  12.316  21.777  0.00  0.00    +0.000 A 
ATOM     16  C   UNL     1       0.731  11.687  20.852  0.00  0.00    +0.000 A 
ATOM     17  C   UNL     1       1.827  12.295  20.063  0.00  0.00    +0.000 C 
ATOM     18  C   UNL     1       1.654  12.031  18.582  0.00  0.00    +0.000 C 
ATOM     19  O   UNL     1       1.633  12.956  17.766  0.00  0.00    +0.000 OA
ATOM     20  N   UNL     1       1.672  10.746  18.107  0.00  0.00    +0.000 N 
ATOM     21  H   UNL     1      -1.108   9.263  21.809  0.00  0.00    +0.000 HD
ATOM     22  H   UNL     1       1.801  10.720  17.102  0.00  0.00    +0.000 HD
ENDROOT
BRANCH   1  24
ATOM     23  C   UNL     1       4.349   6.841  17.311  0.00  0.00    +0.000 C 
ATOM     24  O   UNL     1       3.380   6.301  18.218  0.00  0.00    +0.000 OA
ENDBRANCH   1  24
BRANCH   6  25
ATOM     25  O   UNL     1       1.996   5.865  20.812  0.00  0.00    +0.000 OA
ATOM     26  C   UNL     1       1.219   4.741  20.443  0.00  0.00    +0.000 C 
ENDBRANCH   6  25
TORSDOF 2
ENDMDL
MODEL 3
REMARK VINA RESULT:      -6.2      7.013      8.674
REMARK  Name = 
REMARK  4 active torsions:
REMARK  status: ('A' for Active; 'I' for Inactive)
REMARK    1  A    between atoms: C_1  and  O_2
REMARK    2  A    between atoms: O_2  and  C_3
REMARK    3  A    between atoms: C_8  and  O_9
REMARK    4  A    between atoms: O_9  and  C_10
REMARK                            x       y       z     vdW  Elec       q    Type
REMARK                         _______ _______ _______ _____ _____    ______ ____
ROOT
ATOM      1  C   UNL     1       7.186   4.677  13.490  0.00  0.00    +0.000 A 
ATOM      2  C   UNL     1       7.338   5.388  14.693  0.00  0.00    +0.000 A 
ATOM      3  C   UNL     1       6.496   5.154  15.790  0.00  0.00    +0.000 A 
ATOM      4  C   UNL     1       5.375   4.327  15.626  0.00  0.00    +0.000 A 
ATOM      5  C   UNL     1       5.153   3.732  14.372  0.00  0.00    +0.000 A 
ATOM      6  C   UNL     1       6.053   3.882  13.306  0.00  0.00    +0.000 A 
ATOM      7  C   UNL     1       4.449   4.038  16.716  0.00  0.00    +0.000 A 
ATOM      8  N   UNL     1       3.098   3.831  16.574  0.00  0.00    +0.000 N 
ATOM      9  C   UNL     1       2.530   3.508  17.788  0.00  0.00    +0.000 A 
ATOM     10  C   UNL     1       1.204   3.193  18.107  0.00  0.00    +0.000 A 
ATOM     11  C   UNL     1       0.915   2.892  19.442  0.00  0.00    +0.000 A 
ATOM     12  C   UNL     1       1.919   2.910  20.408  0.00  0.00    +0.000 A 
ATOM     13 BR   UNL     1       1.492   2.486  22.202  0.00  0.00    +0.000 Br
ATOM     14  C   UNL     1       3.237   3.234  20.079  0.00  0.00    +0.000 A 
ATOM     15  C   UNL     1       3.549   3.541  18.739  0.00  0.00    +0.000 A 
ATOM     16  C   UNL     1       4.746   3.900  18.056  0.00  0.00    +0.000 A 
ATOM     17  C   UNL     1       6.108   4.071  18.611  0.00  0.00    +0.000 C 
ATOM     18  C   UNL     1       6.669   5.441  18.288  0.00  0.00    +0.000 C 
ATOM     19  O   UNL     1       7.080   6.189  19.179  0.00  0.00    +0.000 OA
ATOM     20  N   UNL     1       6.870   5.810  16.984  0.00  0.00    +0.000 N 
ATOM     21  H   UNL     1       2.588   3.894  15.707  0.00  0.00    +0.000 HD
ATOM     22  H   UNL     1       7.470   6.624  16.914  0.00  0.00    +0.000 HD
ENDROOT
BRANCH   1  24
ATOM     23  C   UNL     1       8.551   6.089  12.188  0.00  0.00    +0.000 C 
ATOM     24  O   UNL     1       8.148   4.755  12.519  0.00  0.00    +0.000 OA
ENDBRANCH   1  24
BRANCH   6  25
ATOM     25  O   UNL     1       5.661   3.154  12.216  0.00  0.00    +0.000 OA
ATOM     26  C   UNL     1       4.346   3.307  11.716  0.00  0.00    +0.000 C 
ENDBRANCH   6  25
TORSDOF 2
ENDMDL
MODEL 4
REMARK VINA RESULT:      -6.2      5.625      8.137
REMARK  Name = 
REMARK  4 active torsions:
REMARK  status: ('A' for Active; 'I' for Inactive)
REMARK    1  A    between atoms: C_1  and  O_2
REMARK    2  A    between atoms: O_2  and  C_3
REMARK    3  A    between atoms: C_8  and  O_9
REMARK    4  A    between atoms: O_9  and  C_10
REMARK                            x       y       z     vdW  Elec       q    Type
REMARK                         _______ _______ _______ _____ _____    ______ ____
ROOT
ATOM      1  C   UNL     1      -6.615  11.268  20.122  0.00  0.00    +0.000 A 
ATOM      2  C   UNL     1      -6.015  11.191  18.854  0.00  0.00    +0.000 A 
ATOM      3  C   UNL     1      -4.717  11.677  18.632  0.00  0.00    +0.000 A 
ATOM      4  C   UNL     1      -4.079  12.409  19.644  0.00  0.00    +0.000 A 
ATOM      5  C   UNL     1      -4.751  12.601  20.864  0.00  0.00    +0.000 A 
ATOM      6  C   UNL     1      -6.005  12.026  21.123  0.00  0.00    +0.000 A 
ATOM      7  C   UNL     1      -2.733  12.950  19.490  0.00  0.00    +0.000 A 
ATOM      8  N   UNL     1      -2.283  14.123  20.046  0.00  0.00    +0.000 N 
ATOM      9  C   UNL     1      -0.945  14.305  19.767  0.00  0.00    +0.000 A 
ATOM     10  C   UNL     1      -0.077  15.334  20.150  0.00  0.00    +0.000 A 
ATOM     11  C   UNL     1       1.252  15.250  19.723  0.00  0.00    +0.000 A 
ATOM     12  C   UNL     1       1.683  14.178  18.945  0.00  0.00    +0.000 A 
ATOM     13 BR   UNL     1       3.492  14.092  18.395  0.00  0.00    +0.000 Br
ATOM     14  C   UNL     1       0.805  13.161  18.562  0.00  0.00    +0.000 A 
ATOM     15  C   UNL     1      -0.539  13.227  18.982  0.00  0.00    +0.000 A 
ATOM     16  C   UNL     1      -1.679  12.396  18.793  0.00  0.00    +0.000 A 
ATOM     17  C   UNL     1      -1.780  11.127  18.036  0.00  0.00    +0.000 C 
ATOM     18  C   UNL     1      -2.870  11.195  16.986  0.00  0.00    +0.000 C 
ATOM     19  O   UNL     1      -2.631  10.952  15.800  0.00  0.00    +0.000 OA
ATOM     20  N   UNL     1      -4.175  11.379  17.362  0.00  0.00    +0.000 N 
ATOM     21  H   UNL     1      -2.842  14.761  20.591  0.00  0.00    +0.000 HD
ATOM     22  H   UNL     1      -4.816  11.156  16.609  0.00  0.00    +0.000 HD
ENDROOT
BRANCH   1  24
ATOM     23  C   UNL     1      -7.628   9.174  20.499  0.00  0.00    +0.000 C 
ATOM     24  O   UNL     1      -7.780  10.592  20.372  0.00  0.00    +0.000 OA
ENDBRANCH   1  24
BRANCH   6  25
ATOM     25  O   UNL     1      -6.423  12.293  22.398  0.00  0.00    +0.000 OA
ATOM     26  C   UNL     1      -7.030  13.540  22.681  0.00  0.00    +0.000 C 
ENDBRANCH   6  25
TORSDOF 2
ENDMDL
MODEL 5
REMARK VINA RESULT:      -6.2      1.921      2.749
REMARK  Name = 
REMARK  4 active torsions:
REMARK  status: ('A' for Active; 'I' for Inactive)
REMARK    1  A    between atoms: C_1  and  O_2
REMARK    2  A    between atoms: O_2  and  C_3
REMARK    3  A    between atoms: C_8  and  O_9
REMARK    4  A    between atoms: O_9  and  C_10
REMARK                            x       y       z     vdW  Elec       q    Type
REMARK                         _______ _______ _______ _____ _____    ______ ____
ROOT
ATOM      1  C   UNL     1       1.222  15.744  18.800  0.00  0.00    +0.000 A 
ATOM      2  C   UNL     1       0.172  14.998  19.362  0.00  0.00    +0.000 A 
ATOM      3  C   UNL     1       0.248  13.602  19.475  0.00  0.00    +0.000 A 
ATOM      4  C   UNL     1       1.309  12.924  18.857  0.00  0.00    +0.000 A 
ATOM      5  C   UNL     1       2.282  13.674  18.173  0.00  0.00    +0.000 A 
ATOM      6  C   UNL     1       2.262  15.077  18.151  0.00  0.00    +0.000 A 
ATOM      7  C   UNL     1       1.457  11.474  18.923  0.00  0.00    +0.000 A 
ATOM      8  N   UNL     1       1.985  10.685  17.930  0.00  0.00    +0.000 N 
ATOM      9  C   UNL     1       2.050   9.371  18.343  0.00  0.00    +0.000 A 
ATOM     10  C   UNL     1       2.536   8.241  17.675  0.00  0.00    +0.000 A 
ATOM     11  C   UNL     1       2.484   7.019  18.354  0.00  0.00    +0.000 A 
ATOM     12  C   UNL     1       1.964   6.943  19.644  0.00  0.00    +0.000 A 
ATOM     13 BR   UNL     1       1.921   5.274  20.535  0.00  0.00    +0.000 Br
ATOM     14  C   UNL     1       1.474   8.077  20.296  0.00  0.00    +0.000 A 
ATOM     15  C   UNL     1       1.517   9.318  19.630  0.00  0.00    +0.000 A 
ATOM     16  C   UNL     1       1.124  10.643  19.973  0.00  0.00    +0.000 A 
ATOM     17  C   UNL     1       0.506  11.125  21.230  0.00  0.00    +0.000 C 
ATOM     18  C   UNL     1      -0.795  11.853  20.961  0.00  0.00    +0.000 C 
ATOM     19  O   UNL     1      -1.844  11.514  21.516  0.00  0.00    +0.000 OA
ATOM     20  N   UNL     1      -0.797  13.001  20.213  0.00  0.00    +0.000 N 
ATOM     21  H   UNL     1       2.293  11.014  17.028  0.00  0.00    +0.000 HD
ATOM     22  H   UNL     1      -1.663  13.516  20.319  0.00  0.00    +0.000 HD
ENDROOT
BRANCH   1  24
ATOM     23  C   UNL     1       0.260  17.771  18.083  0.00  0.00    +0.000 C 
ATOM     24  O   UNL     1       1.227  17.109  18.905  0.00  0.00    +0.000 OA
ENDBRANCH   1  24
BRANCH   6  25
ATOM     25  O   UNL     1       3.346  15.580  17.487  0.00  0.00    +0.000 OA
ATOM     26  C   UNL     1       4.637  15.089  17.794  0.00  0.00    +0.000 C 
ENDBRANCH   6  25
TORSDOF 2
ENDMDL
MODEL 6
REMARK VINA RESULT:      -6.1      5.464      8.309
REMARK  Name = 
REMARK  4 active torsions:
REMARK  status: ('A' for Active; 'I' for Inactive)
REMARK    1  A    between atoms: C_1  and  O_2
REMARK    2  A    between atoms: O_2  and  C_3
REMARK    3  A    between atoms: C_8  and  O_9
REMARK    4  A    between atoms: O_9  and  C_10
REMARK                            x       y       z     vdW  Elec       q    Type
REMARK                         _______ _______ _______ _____ _____    ______ ____
ROOT
ATOM      1  C   UNL     1       0.263  10.594  18.581  0.00  0.00    +0.000 A 
ATOM      2  C   UNL     1       0.434  11.457  19.677  0.00  0.00    +0.000 A 
ATOM      3  C   UNL     1      -0.665  12.030  20.332  0.00  0.00    +0.000 A 
ATOM      4  C   UNL     1      -1.945  11.883  19.777  0.00  0.00    +0.000 A 
ATOM      5  C   UNL     1      -2.085  11.132  18.596  0.00  0.00    +0.000 A 
ATOM      6  C   UNL     1      -1.001  10.471  18.000  0.00  0.00    +0.000 A 
ATOM      7  C   UNL     1      -3.137  12.452  20.394  0.00  0.00    +0.000 A 
ATOM      8  N   UNL     1      -4.232  12.927  19.714  0.00  0.00    +0.000 N 
ATOM      9  C   UNL     1      -5.213  13.326  20.597  0.00  0.00    +0.000 A 
ATOM     10  C   UNL     1      -6.490  13.842  20.351  0.00  0.00    +0.000 A 
ATOM     11  C   UNL     1      -7.284  14.154  21.460  0.00  0.00    +0.000 A 
ATOM     12  C   UNL     1      -6.809  13.955  22.754  0.00  0.00    +0.000 A 
ATOM     13 BR   UNL     1      -7.917  14.377  24.229  0.00  0.00    +0.000 Br
ATOM     14  C   UNL     1      -5.529  13.446  22.986  0.00  0.00    +0.000 A 
ATOM     15  C   UNL     1      -4.713  13.126  21.883  0.00  0.00    +0.000 A 
ATOM     16  C   UNL     1      -3.397  12.600  21.741  0.00  0.00    +0.000 A 
ATOM     17  C   UNL     1      -2.438  12.216  22.803  0.00  0.00    +0.000 C 
ATOM     18  C   UNL     1      -1.116  12.937  22.640  0.00  0.00    +0.000 C 
ATOM     19  O   UNL     1      -0.634  13.603  23.560  0.00  0.00    +0.000 OA
ATOM     20  N   UNL     1      -0.357  12.734  21.518  0.00  0.00    +0.000 N 
ATOM     21  H   UNL     1      -4.319  12.972  18.710  0.00  0.00    +0.000 HD
ATOM     22  H   UNL     1       0.593  13.064  21.644  0.00  0.00    +0.000 HD
ENDROOT
BRANCH   1  24
ATOM     23  C   UNL     1       1.683   8.742  18.906  0.00  0.00    +0.000 C 
ATOM     24  O   UNL     1       1.323   9.872  18.102  0.00  0.00    +0.000 OA
ENDBRANCH   1  24
BRANCH   6  25
ATOM     25  O   UNL     1      -1.396   9.750  16.907  0.00  0.00    +0.000 OA
ATOM     26  C   UNL     1      -2.754   9.781  16.509  0.00  0.00    +0.000 C 
ENDBRANCH   6  25
TORSDOF 2
ENDMDL
MODEL 7
REMARK VINA RESULT:      -6.1      3.781      6.025
REMARK  Name = 
REMARK  4 active torsions:
REMARK  status: ('A' for Active; 'I' for Inactive)
REMARK    1  A    between atoms: C_1  and  O_2
REMARK    2  A    between atoms: O_2  and  C_3
REMARK    3  A    between atoms: C_8  and  O_9
REMARK    4  A    between atoms: O_9  and  C_10
REMARK                            x       y       z     vdW  Elec       q    Type
REMARK                         _______ _______ _______ _____ _____    ______ ____
ROOT
ATOM      1  C   UNL     1      -4.287  14.579  22.215  0.00  0.00    +0.000 A 
ATOM      2  C   UNL     1      -3.208  14.984  21.411  0.00  0.00    +0.000 A 
ATOM      3  C   UNL     1      -2.241  14.068  20.974  0.00  0.00    +0.000 A 
ATOM      4  C   UNL     1      -2.251  12.764  21.492  0.00  0.00    +0.000 A 
ATOM      5  C   UNL     1      -3.257  12.411  22.408  0.00  0.00    +0.000 A 
ATOM      6  C   UNL     1      -4.286  13.296  22.764  0.00  0.00    +0.000 A 
ATOM      7  C   UNL     1      -1.277  11.754  21.091  0.00  0.00    +0.000 A 
ATOM      8  N   UNL     1      -0.785  10.762  21.904  0.00  0.00    +0.000 N 
ATOM      9  C   UNL     1       0.058   9.933  21.195  0.00  0.00    +0.000 A 
ATOM     10  C   UNL     1       0.754   8.791  21.608  0.00  0.00    +0.000 A 
ATOM     11  C   UNL     1       1.539   8.134  20.655  0.00  0.00    +0.000 A 
ATOM     12  C   UNL     1       1.617   8.610  19.348  0.00  0.00    +0.000 A 
ATOM     13 BR   UNL     1       2.680   7.688  18.082  0.00  0.00    +0.000 Br
ATOM     14  C   UNL     1       0.924   9.756  18.950  0.00  0.00    +0.000 A 
ATOM     15  C   UNL     1       0.128  10.433  19.896  0.00  0.00    +0.000 A 
ATOM     16  C   UNL     1      -0.696  11.593  19.850  0.00  0.00    +0.000 A 
ATOM     17  C   UNL     1      -0.965  12.489  18.702  0.00  0.00    +0.000 C 
ATOM     18  C   UNL     1      -0.635  13.929  19.036  0.00  0.00    +0.000 C 
ATOM     19  O   UNL     1       0.142  14.585  18.337  0.00  0.00    +0.000 OA
ATOM     20  N   UNL     1      -1.315  14.575  20.035  0.00  0.00    +0.000 N 
ATOM     21  H   UNL     1      -1.011  10.644  22.879  0.00  0.00    +0.000 HD
ATOM     22  H   UNL     1      -1.183  15.579  19.989  0.00  0.00    +0.000 HD
ENDROOT
BRANCH   1  24
ATOM     23  C   UNL     1      -5.223  16.202  23.644  0.00  0.00    +0.000 C 
ATOM     24  O   UNL     1      -5.334  15.433  22.441  0.00  0.00    +0.000 OA
ENDBRANCH   1  24
BRANCH   6  25
ATOM     25  O   UNL     1      -5.182  12.704  23.611  0.00  0.00    +0.000 OA
ATOM     26  C   UNL     1      -4.735  12.211  24.860  0.00  0.00    +0.000 C 
ENDBRANCH   6  25
TORSDOF 2
ENDMDL
MODEL 8
REMARK VINA RESULT:      -6.1      5.219      8.198
REMARK  Name = 
REMARK  4 active torsions:
REMARK  status: ('A' for Active; 'I' for Inactive)
REMARK    1  A    between atoms: C_1  and  O_2
REMARK    2  A    between atoms: O_2  and  C_3
REMARK    3  A    between atoms: C_8  and  O_9
REMARK    4  A    between atoms: O_9  and  C_10
REMARK                            x       y       z     vdW  Elec       q    Type
REMARK                         _______ _______ _______ _____ _____    ______ ____
ROOT
ATOM      1  C   UNL     1      -2.801  10.350  17.104  0.00  0.00    +0.000 A 
ATOM      2  C   UNL     1      -1.560  10.417  17.759  0.00  0.00    +0.000 A 
ATOM      3  C   UNL     1      -1.374  11.230  18.888  0.00  0.00    +0.000 A 
ATOM      4  C   UNL     1      -2.390  12.123  19.261  0.00  0.00    +0.000 A 
ATOM      5  C   UNL     1      -3.577  12.147  18.508  0.00  0.00    +0.000 A 
ATOM      6  C   UNL     1      -3.803  11.260  17.444  0.00  0.00    +0.000 A 
ATOM      7  C   UNL     1      -2.272  13.003  20.418  0.00  0.00    +0.000 A 
ATOM      8  N   UNL     1      -2.813  14.263  20.513  0.00  0.00    +0.000 N 
ATOM      9  C   UNL     1      -2.581  14.793  21.764  0.00  0.00    +0.000 A 
ATOM     10  C   UNL     1      -2.968  16.024  22.306  0.00  0.00    +0.000 A 
ATOM     11  C   UNL     1      -2.595  16.294  23.627  0.00  0.00    +0.000 A 
ATOM     12  C   UNL     1      -1.864  15.364  24.363  0.00  0.00    +0.000 A 
ATOM     13 BR   UNL     1      -1.387  15.759  26.151  0.00  0.00    +0.000 Br
ATOM     14  C   UNL     1      -1.476  14.142  23.808  0.00  0.00    +0.000 A 
ATOM     15  C   UNL     1      -1.842  13.852  22.478  0.00  0.00    +0.000 A 
ATOM     16  C   UNL     1      -1.632  12.741  21.612  0.00  0.00    +0.000 A 
ATOM     17  C   UNL     1      -0.907  11.480  21.888  0.00  0.00    +0.000 C 
ATOM     18  C   UNL     1       0.185  11.236  20.868  0.00  0.00    +0.000 C 
ATOM     19  O   UNL     1       1.354  11.046  21.216  0.00  0.00    +0.000 OA
ATOM     20  N   UNL     1      -0.134  11.068  19.546  0.00  0.00    +0.000 N 
ATOM     21  H   UNL     1      -3.318  14.736  19.780  0.00  0.00    +0.000 HD
ATOM     22  H   UNL     1       0.636  10.669  19.022  0.00  0.00    +0.000 HD
ENDROOT
BRANCH   1  24
ATOM     23  C   UNL     1      -2.978   9.869  14.804  0.00  0.00    +0.000 C 
ATOM     24  O   UNL     1      -3.025   9.390  16.153  0.00  0.00    +0.000 OA
ENDBRANCH   1  24
BRANCH   6  25
ATOM     25  O   UNL     1      -5.053  11.426  16.914  0.00  0.00    +0.000 OA
ATOM     26  C   UNL     1      -5.881  12.466  17.401  0.00  0.00    +0.000 C 
ENDBRANCH   6  25
TORSDOF 2
ENDMDL
MODEL 9
REMARK VINA RESULT:      -5.9      5.596      7.699
REMARK  Name = 
REMARK  4 active torsions:
REMARK  status: ('A' for Active; 'I' for Inactive)
REMARK    1  A    between atoms: C_1  and  O_2
REMARK    2  A    between atoms: O_2  and  C_3
REMARK    3  A    between atoms: C_8  and  O_9
REMARK    4  A    between atoms: O_9  and  C_10
REMARK                            x       y       z     vdW  Elec       q    Type
REMARK                         _______ _______ _______ _____ _____    ______ ____
ROOT
ATOM      1  C   UNL     1      -2.566  15.360  24.666  0.00  0.00    +0.000 A 
ATOM      2  C   UNL     1      -1.729  14.274  24.357  0.00  0.00    +0.000 A 
ATOM      3  C   UNL     1      -1.879  13.556  23.161  0.00  0.00    +0.000 A 
ATOM      4  C   UNL     1      -2.991  13.812  22.345  0.00  0.00    +0.000 A 
ATOM      5  C   UNL     1      -3.901  14.808  22.739  0.00  0.00    +0.000 A 
ATOM      6  C   UNL     1      -3.695  15.598  23.881  0.00  0.00    +0.000 A 
ATOM      7  C   UNL     1      -3.220  13.106  21.089  0.00  0.00    +0.000 A 
ATOM      8  N   UNL     1      -4.452  12.786  20.574  0.00  0.00    +0.000 N 
ATOM      9  C   UNL     1      -4.317  12.189  19.339  0.00  0.00    +0.000 A 
ATOM     10  C   UNL     1      -5.295  11.728  18.450  0.00  0.00    +0.000 A 
ATOM     11  C   UNL     1      -4.859  11.166  17.245  0.00  0.00    +0.000 A 
ATOM     12  C   UNL     1      -3.500  11.074  16.954  0.00  0.00    +0.000 A 
ATOM     13 BR   UNL     1      -2.948  10.319  15.309  0.00  0.00    +0.000 Br
ATOM     14  C   UNL     1      -2.533  11.530  17.854  0.00  0.00    +0.000 A 
ATOM     15  C   UNL     1      -2.952  12.098  19.073  0.00  0.00    +0.000 A 
ATOM     16  C   UNL     1      -2.272  12.656  20.193  0.00  0.00    +0.000 A 
ATOM     17  C   UNL     1      -0.814  12.800  20.408  0.00  0.00    +0.000 C 
ATOM     18  C   UNL     1      -0.379  12.148  21.705  0.00  0.00    +0.000 C 
ATOM     19  O   UNL     1       0.513  11.296  21.723  0.00  0.00    +0.000 OA
ATOM     20  N   UNL     1      -0.866  12.606  22.901  0.00  0.00    +0.000 N 
ATOM     21  H   UNL     1      -5.336  12.968  21.024  0.00  0.00    +0.000 HD
ATOM     22  H   UNL     1      -0.318  12.266  23.682  0.00  0.00    +0.000 HD
ENDROOT
BRANCH   1  24
ATOM     23  C   UNL     1      -0.970  15.960  26.293  0.00  0.00    +0.000 C 
ATOM     24  O   UNL     1      -2.264  16.182  25.719  0.00  0.00    +0.000 OA
ENDBRANCH   1  24
BRANCH   6  25
ATOM     25  O   UNL     1      -4.674  16.542  24.017  0.00  0.00    +0.000 OA
ATOM     26  C   UNL     1      -6.031  16.157  23.898  0.00  0.00    +0.000 C 
ENDBRANCH   6  25
TORSDOF 2
ENDMDL
