MODEL 1
REMARK VINA RESULT:      -6.1      0.000      0.000
REMARK  Name = 
REMARK  4 active torsions:
REMARK  status: ('A' for Active; 'I' for Inactive)
REMARK    1  A    between atoms: C_1  and  C_2
REMARK    2  A    between atoms: C_5  and  N_6
REMARK    3  A    between atoms: C_7  and  C_9
REMARK    4  A    between atoms: C_9  and  N_10
REMARK                            x       y       z     vdW  Elec       q    Type
REMARK                         _______ _______ _______ _____ _____    ______ ____
ROOT
ATOM      1  N   UNL     1       5.487   4.027  17.071  0.00  0.00    +0.000 N 
ATOM      2  C   UNL     1       5.762   5.089  16.222  0.00  0.00    +0.000 C 
ATOM      3  O   UNL     1       5.044   6.072  16.045  0.00  0.00    +0.000 OA
ATOM      4  H   UNL     1       6.214   3.338  17.235  0.00  0.00    +0.000 HD
ENDROOT
BRANCH   1   9
ATOM      5  C   UNL     1       0.731   3.486  20.243  0.00  0.00    +0.000 C 
ATOM      6  C   UNL     1       1.974   3.607  19.412  0.00  0.00    +0.000 A 
ATOM      7  C   UNL     1       1.962   3.243  18.065  0.00  0.00    +0.000 A 
ATOM      8  C   UNL     1       3.114   3.368  17.284  0.00  0.00    +0.000 A 
ATOM      9  C   UNL     1       4.302   3.860  17.830  0.00  0.00    +0.000 A 
ATOM     10  C   UNL     1       4.324   4.198  19.188  0.00  0.00    +0.000 A 
ATOM     11  C   UNL     1       3.166   4.085  19.970  0.00  0.00    +0.000 A 
ENDBRANCH   1   9
BRANCH   2  12
ATOM     12  C   UNL     1       7.080   4.987  15.484  0.00  0.00    +0.000 C 
BRANCH  12  13
ATOM     13  N   UNL     1       6.939   4.582  14.097  0.00  0.00    +0.000 N 
ATOM     14  C   UNL     1       6.059   3.635  13.646  0.00  0.00    +0.000 A 
ATOM     15  C   UNL     1       6.280   3.558  12.290  0.00  0.00    +0.000 A 
ATOM     16  N   UNL     1       7.276   4.418  11.915  0.00  0.00    +0.000 NA
ATOM     17  C   UNL     1       7.671   5.005  13.023  0.00  0.00    +0.000 A 
ENDBRANCH  12  13
ENDBRANCH   2  12
TORSDOF 3
ENDMDL
MODEL 2
REMARK VINA RESULT:      -6.1      3.529      4.161
REMARK  Name = 
REMARK  4 active torsions:
REMARK  status: ('A' for Active; 'I' for Inactive)
REMARK    1  A    between atoms: C_1  and  C_2
REMARK    2  A    between atoms: C_5  and  N_6
REMARK    3  A    between atoms: C_7  and  C_9
REMARK    4  A    between atoms: C_9  and  N_10
REMARK                            x       y       z     vdW  Elec       q    Type
REMARK                         _______ _______ _______ _____ _____    ______ ____
ROOT
ATOM      1  N   UNL     1       3.762   5.956  18.180  0.00  0.00    +0.000 N 
ATOM      2  C   UNL     1       3.342   4.715  17.722  0.00  0.00    +0.000 C 
ATOM      3  O   UNL     1       2.179   4.393  17.484  0.00  0.00    +0.000 OA
ATOM      4  H   UNL     1       4.758   6.146  18.214  0.00  0.00    +0.000 HD
ENDROOT
BRANCH   1   9
ATOM      5  C   UNL     1       0.387  10.345  19.701  0.00  0.00    +0.000 C 
ATOM      6  C   UNL     1       1.256   9.193  19.290  0.00  0.00    +0.000 A 
ATOM      7  C   UNL     1       1.817   9.152  18.013  0.00  0.00    +0.000 A 
ATOM      8  C   UNL     1       2.638   8.088  17.632  0.00  0.00    +0.000 A 
ATOM      9  C   UNL     1       2.917   7.043  18.515  0.00  0.00    +0.000 A 
ATOM     10  C   UNL     1       2.331   7.068  19.786  0.00  0.00    +0.000 A 
ATOM     11  C   UNL     1       1.517   8.141  20.175  0.00  0.00    +0.000 A 
ENDBRANCH   1   9
BRANCH   2  12
ATOM     12  C   UNL     1       4.454   3.711  17.500  0.00  0.00    +0.000 C 
BRANCH  12  13
ATOM     13  N   UNL     1       5.516   4.201  16.641  0.00  0.00    +0.000 N 
ATOM     14  C   UNL     1       5.412   4.361  15.284  0.00  0.00    +0.000 A 
ATOM     15  C   UNL     1       6.646   4.820  14.883  0.00  0.00    +0.000 A 
ATOM     16  N   UNL     1       7.492   4.926  15.953  0.00  0.00    +0.000 NA
ATOM     17  C   UNL     1       6.796   4.526  16.994  0.00  0.00    +0.000 A 
ENDBRANCH  12  13
ENDBRANCH   2  12
TORSDOF 3
ENDMDL
MODEL 3
REMARK VINA RESULT:      -6.1      3.786      4.673
REMARK  Name = 
REMARK  4 active torsions:
REMARK  status: ('A' for Active; 'I' for Inactive)
REMARK    1  A    between atoms: C_1  and  C_2
REMARK    2  A    between atoms: C_5  and  N_6
REMARK    3  A    between atoms: C_7  and  C_9
REMARK    4  A    between atoms: C_9  and  N_10
REMARK                            x       y       z     vdW  Elec       q    Type
REMARK                         _______ _______ _______ _____ _____    ______ ____
ROOT
ATOM      1  N   UNL     1       3.584   6.160  18.676  0.00  0.00    +0.000 N 
ATOM      2  C   UNL     1       3.212   4.940  18.128  0.00  0.00    +0.000 C 
ATOM      3  O   UNL     1       2.111   4.675  17.645  0.00  0.00    +0.000 OA
ATOM      4  H   UNL     1       4.558   6.301  18.922  0.00  0.00    +0.000 HD
ENDROOT
BRANCH   1   9
ATOM      5  C   UNL     1       0.128  10.721  19.144  0.00  0.00    +0.000 C 
ATOM      6  C   UNL     1       1.042   9.537  19.036  0.00  0.00    +0.000 A 
ATOM      7  C   UNL     1       1.202   8.667  20.115  0.00  0.00    +0.000 A 
ATOM      8  C   UNL     1       2.042   7.554  20.013  0.00  0.00    +0.000 A 
ATOM      9  C   UNL     1       2.740   7.287  18.833  0.00  0.00    +0.000 A 
ATOM     10  C   UNL     1       2.604   8.175  17.760  0.00  0.00    +0.000 A 
ATOM     11  C   UNL     1       1.752   9.285  17.856  0.00  0.00    +0.000 A 
ENDBRANCH   1   9
BRANCH   2  12
ATOM     12  C   UNL     1       4.295   3.883  18.137  0.00  0.00    +0.000 C 
BRANCH  12  13
ATOM     13  N   UNL     1       5.459   4.237  17.344  0.00  0.00    +0.000 N 
ATOM     14  C   UNL     1       5.502   4.225  15.975  0.00  0.00    +0.000 A 
ATOM     15  C   UNL     1       6.786   4.602  15.655  0.00  0.00    +0.000 A 
ATOM     16  N   UNL     1       7.520   4.824  16.789  0.00  0.00    +0.000 NA
ATOM     17  C   UNL     1       6.705   4.574  17.790  0.00  0.00    +0.000 A 
ENDBRANCH  12  13
ENDBRANCH   2  12
TORSDOF 3
ENDMDL
MODEL 4
REMARK VINA RESULT:      -6.0      3.563      6.700
REMARK  Name = 
REMARK  4 active torsions:
REMARK  status: ('A' for Active; 'I' for Inactive)
REMARK    1  A    between atoms: C_1  and  C_2
REMARK    2  A    between atoms: C_5  and  N_6
REMARK    3  A    between atoms: C_7  and  C_9
REMARK    4  A    between atoms: C_9  and  N_10
REMARK                            x       y       z     vdW  Elec       q    Type
REMARK                         _______ _______ _______ _____ _____    ______ ____
ROOT
ATOM      1  N   UNL     1       5.247   3.956  18.958  0.00  0.00    +0.000 N 
ATOM      2  C   UNL     1       4.420   3.212  18.129  0.00  0.00    +0.000 C 
ATOM      3  O   UNL     1       4.219   3.426  16.934  0.00  0.00    +0.000 OA
ATOM      4  H   UNL     1       5.437   3.606  19.891  0.00  0.00    +0.000 HD
ENDROOT
BRANCH   1   9
ATOM      5  C   UNL     1       8.245   8.625  17.479  0.00  0.00    +0.000 C 
ATOM      6  C   UNL     1       7.448   7.417  17.874  0.00  0.00    +0.000 A 
ATOM      7  C   UNL     1       6.185   7.193  17.323  0.00  0.00    +0.000 A 
ATOM      8  C   UNL     1       5.446   6.061  17.677  0.00  0.00    +0.000 A 
ATOM      9  C   UNL     1       5.950   5.130  18.587  0.00  0.00    +0.000 A 
ATOM     10  C   UNL     1       7.203   5.368  19.163  0.00  0.00    +0.000 A 
ATOM     11  C   UNL     1       7.952   6.497  18.800  0.00  0.00    +0.000 A 
ENDBRANCH   1   9
BRANCH   2  12
ATOM     12  C   UNL     1       3.741   2.037  18.800  0.00  0.00    +0.000 C 
BRANCH  12  13
ATOM     13  N   UNL     1       2.734   2.424  19.771  0.00  0.00    +0.000 N 
ATOM     14  C   UNL     1       2.942   2.501  21.123  0.00  0.00    +0.000 A 
ATOM     15  C   UNL     1       1.729   2.878  21.650  0.00  0.00    +0.000 A 
ATOM     16  N   UNL     1       0.794   3.016  20.659  0.00  0.00    +0.000 NA
ATOM     17  C   UNL     1       1.419   2.714  19.542  0.00  0.00    +0.000 A 
ENDBRANCH  12  13
ENDBRANCH   2  12
TORSDOF 3
ENDMDL
MODEL 5
REMARK VINA RESULT:      -6.0      3.434      4.127
REMARK  Name = 
REMARK  4 active torsions:
REMARK  status: ('A' for Active; 'I' for Inactive)
REMARK    1  A    between atoms: C_1  and  C_2
REMARK    2  A    between atoms: C_5  and  N_6
REMARK    3  A    between atoms: C_7  and  C_9
REMARK    4  A    between atoms: C_9  and  N_10
REMARK                            x       y       z     vdW  Elec       q    Type
REMARK                         _______ _______ _______ _____ _____    ______ ____
ROOT
ATOM      1  N   UNL     1       3.174   5.656  18.149  0.00  0.00    +0.000 N 
ATOM      2  C   UNL     1       4.408   5.136  18.516  0.00  0.00    +0.000 C 
ATOM      3  O   UNL     1       5.119   5.551  19.430  0.00  0.00    +0.000 OA
ATOM      4  H   UNL     1       2.621   5.149  17.467  0.00  0.00    +0.000 HD
ENDROOT
BRANCH   1   9
ATOM      5  C   UNL     1       0.591  10.305  20.312  0.00  0.00    +0.000 C 
ATOM      6  C   UNL     1       1.281   9.093  19.760  0.00  0.00    +0.000 A 
ATOM      7  C   UNL     1       1.496   7.974  20.565  0.00  0.00    +0.000 A 
ATOM      8  C   UNL     1       2.125   6.838  20.049  0.00  0.00    +0.000 A 
ATOM      9  C   UNL     1       2.553   6.794  18.721  0.00  0.00    +0.000 A 
ATOM     10  C   UNL     1       2.365   7.926  17.920  0.00  0.00    +0.000 A 
ATOM     11  C   UNL     1       1.723   9.062  18.432  0.00  0.00    +0.000 A 
ENDBRANCH   1   9
BRANCH   2  12
ATOM     12  C   UNL     1       4.865   3.948  17.697  0.00  0.00    +0.000 C 
BRANCH  12  13
ATOM     13  N   UNL     1       5.778   4.298  16.624  0.00  0.00    +0.000 N 
ATOM     14  C   UNL     1       5.447   4.326  15.295  0.00  0.00    +0.000 A 
ATOM     15  C   UNL     1       6.605   4.682  14.645  0.00  0.00    +0.000 A 
ATOM     16  N   UNL     1       7.626   4.855  15.540  0.00  0.00    +0.000 NA
ATOM     17  C   UNL     1       7.108   4.595  16.720  0.00  0.00    +0.000 A 
ENDBRANCH  12  13
ENDBRANCH   2  12
TORSDOF 3
ENDMDL
MODEL 6
REMARK VINA RESULT:      -6.0      0.316      1.209
REMARK  Name = 
REMARK  4 active torsions:
REMARK  status: ('A' for Active; 'I' for Inactive)
REMARK    1  A    between atoms: C_1  and  C_2
REMARK    2  A    between atoms: C_5  and  N_6
REMARK    3  A    between atoms: C_7  and  C_9
REMARK    4  A    between atoms: C_9  and  N_10
REMARK                            x       y       z     vdW  Elec       q    Type
REMARK                         _______ _______ _______ _____ _____    ______ ____
ROOT
ATOM      1  N   UNL     1       5.578   4.231  17.213  0.00  0.00    +0.000 N 
ATOM      2  C   UNL     1       5.829   5.170  16.223  0.00  0.00    +0.000 C 
ATOM      3  O   UNL     1       5.096   6.111  15.922  0.00  0.00    +0.000 OA
ATOM      4  H   UNL     1       6.317   3.580  17.460  0.00  0.00    +0.000 HD
ENDROOT
BRANCH   1   9
ATOM      5  C   UNL     1       0.796   3.762  20.357  0.00  0.00    +0.000 C 
ATOM      6  C   UNL     1       2.041   3.904  19.532  0.00  0.00    +0.000 A 
ATOM      7  C   UNL     1       3.074   4.743  19.951  0.00  0.00    +0.000 A 
ATOM      8  C   UNL     1       4.242   4.867  19.193  0.00  0.00    +0.000 A 
ATOM      9  C   UNL     1       4.404   4.156  18.002  0.00  0.00    +0.000 A 
ATOM     10  C   UNL     1       3.357   3.335  17.566  0.00  0.00    +0.000 A 
ATOM     11  C   UNL     1       2.190   3.201  18.331  0.00  0.00    +0.000 A 
ENDBRANCH   1   9
BRANCH   2  12
ATOM     12  C   UNL     1       7.140   4.983  15.489  0.00  0.00    +0.000 C 
BRANCH  12  13
ATOM     13  N   UNL     1       6.978   4.590  14.101  0.00  0.00    +0.000 N 
ATOM     14  C   UNL     1       6.097   3.640  13.656  0.00  0.00    +0.000 A 
ATOM     15  C   UNL     1       6.295   3.578  12.297  0.00  0.00    +0.000 A 
ATOM     16  N   UNL     1       7.278   4.448  11.912  0.00  0.00    +0.000 NA
ATOM     17  C   UNL     1       7.689   5.027  13.019  0.00  0.00    +0.000 A 
ENDBRANCH  12  13
ENDBRANCH   2  12
TORSDOF 3
ENDMDL
MODEL 7
REMARK VINA RESULT:      -6.0      3.412      6.621
REMARK  Name = 
REMARK  4 active torsions:
REMARK  status: ('A' for Active; 'I' for Inactive)
REMARK    1  A    between atoms: C_1  and  C_2
REMARK    2  A    between atoms: C_5  and  N_6
REMARK    3  A    between atoms: C_7  and  C_9
REMARK    4  A    between atoms: C_9  and  N_10
REMARK                            x       y       z     vdW  Elec       q    Type
REMARK                         _______ _______ _______ _____ _____    ______ ____
ROOT
ATOM      1  N   UNL     1       5.840   4.234  18.529  0.00  0.00    +0.000 N 
ATOM      2  C   UNL     1       4.699   4.063  19.301  0.00  0.00    +0.000 C 
ATOM      3  O   UNL     1       4.094   4.952  19.897  0.00  0.00    +0.000 OA
ATOM      4  H   UNL     1       6.173   3.450  17.979  0.00  0.00    +0.000 HD
ENDROOT
BRANCH   1   9
ATOM      5  C   UNL     1       8.529   9.248  17.756  0.00  0.00    +0.000 C 
ATOM      6  C   UNL     1       7.843   7.929  17.952  0.00  0.00    +0.000 A 
ATOM      7  C   UNL     1       8.316   7.020  18.899  0.00  0.00    +0.000 A 
ATOM      8  C   UNL     1       7.670   5.796  19.095  0.00  0.00    +0.000 A 
ATOM      9  C   UNL     1       6.540   5.453  18.350  0.00  0.00    +0.000 A 
ATOM     10  C   UNL     1       6.082   6.350  17.378  0.00  0.00    +0.000 A 
ATOM     11  C   UNL     1       6.721   7.584  17.189  0.00  0.00    +0.000 A 
ENDBRANCH   1   9
BRANCH   2  12
ATOM     12  C   UNL     1       4.189   2.639  19.371  0.00  0.00    +0.000 C 
BRANCH  12  13
ATOM     13  N   UNL     1       2.750   2.529  19.210  0.00  0.00    +0.000 N 
ATOM     14  C   UNL     1       1.848   2.527  20.241  0.00  0.00    +0.000 A 
ATOM     15  C   UNL     1       0.619   2.382  19.639  0.00  0.00    +0.000 A 
ATOM     16  N   UNL     1       0.756   2.281  18.281  0.00  0.00    +0.000 NA
ATOM     17  C   UNL     1       2.049   2.348  18.052  0.00  0.00    +0.000 A 
ENDBRANCH  12  13
ENDBRANCH   2  12
TORSDOF 3
ENDMDL
MODEL 8
REMARK VINA RESULT:      -6.0      3.498      6.643
REMARK  Name = 
REMARK  4 active torsions:
REMARK  status: ('A' for Active; 'I' for Inactive)
REMARK    1  A    between atoms: C_1  and  C_2
REMARK    2  A    between atoms: C_5  and  N_6
REMARK    3  A    between atoms: C_7  and  C_9
REMARK    4  A    between atoms: C_9  and  N_10
REMARK                            x       y       z     vdW  Elec       q    Type
REMARK                         _______ _______ _______ _____ _____    ______ ____
ROOT
ATOM      1  N   UNL     1       4.920   4.175  18.776  0.00  0.00    +0.000 N 
ATOM      2  C   UNL     1       4.343   3.323  17.845  0.00  0.00    +0.000 C 
ATOM      3  O   UNL     1       4.540   3.346  16.631  0.00  0.00    +0.000 OA
ATOM      4  H   UNL     1       4.785   3.977  19.761  0.00  0.00    +0.000 HD
ENDROOT
BRANCH   1   9
ATOM      5  C   UNL     1       8.282   8.668  17.559  0.00  0.00    +0.000 C 
ATOM      6  C   UNL     1       7.417   7.483  17.868  0.00  0.00    +0.000 A 
ATOM      7  C   UNL     1       7.873   6.479  18.724  0.00  0.00    +0.000 A 
ATOM      8  C   UNL     1       7.064   5.380  19.025  0.00  0.00    +0.000 A 
ATOM      9  C   UNL     1       5.784   5.259  18.480  0.00  0.00    +0.000 A 
ATOM     10  C   UNL     1       5.337   6.249  17.598  0.00  0.00    +0.000 A 
ATOM     11  C   UNL     1       6.142   7.359  17.304  0.00  0.00    +0.000 A 
ENDBRANCH   1   9
BRANCH   2  12
ATOM     12  C   UNL     1       3.408   2.286  18.428  0.00  0.00    +0.000 C 
BRANCH  12  13
ATOM     13  N   UNL     1       2.482   2.824  19.408  0.00  0.00    +0.000 N 
ATOM     14  C   UNL     1       2.533   2.568  20.753  0.00  0.00    +0.000 A 
ATOM     15  C   UNL     1       1.468   3.253  21.288  0.00  0.00    +0.000 A 
ATOM     16  N   UNL     1       0.768   3.901  20.306  0.00  0.00    +0.000 NA
ATOM     17  C   UNL     1       1.385   3.606  19.183  0.00  0.00    +0.000 A 
ENDBRANCH  12  13
ENDBRANCH   2  12
TORSDOF 3
ENDMDL
MODEL 9
REMARK VINA RESULT:      -6.0      3.398      3.966
REMARK  Name = 
REMARK  4 active torsions:
REMARK  status: ('A' for Active; 'I' for Inactive)
REMARK    1  A    between atoms: C_1  and  C_2
REMARK    2  A    between atoms: C_5  and  N_6
REMARK    3  A    between atoms: C_7  and  C_9
REMARK    4  A    between atoms: C_9  and  N_10
REMARK                            x       y       z     vdW  Elec       q    Type
REMARK                         _______ _______ _______ _____ _____    ______ ____
ROOT
ATOM      1  N   UNL     1       3.439   5.706  18.126  0.00  0.00    +0.000 N 
ATOM      2  C   UNL     1       4.651   5.234  18.610  0.00  0.00    +0.000 C 
ATOM      3  O   UNL     1       5.251   5.670  19.592  0.00  0.00    +0.000 OA
ATOM      4  H   UNL     1       2.976   5.183  17.391  0.00  0.00    +0.000 HD
ENDROOT
BRANCH   1   9
ATOM      5  C   UNL     1       0.577  10.153  20.364  0.00  0.00    +0.000 C 
ATOM      6  C   UNL     1       1.310   8.989  19.766  0.00  0.00    +0.000 A 
ATOM      7  C   UNL     1       1.790   9.053  18.457  0.00  0.00    +0.000 A 
ATOM      8  C   UNL     1       2.486   7.976  17.902  0.00  0.00    +0.000 A 
ATOM      9  C   UNL     1       2.718   6.813  18.639  0.00  0.00    +0.000 A 
ATOM     10  C   UNL     1       2.212   6.736  19.942  0.00  0.00    +0.000 A 
ATOM     11  C   UNL     1       1.524   7.820  20.505  0.00  0.00    +0.000 A 
ENDBRANCH   1   9
BRANCH   2  12
ATOM     12  C   UNL     1       5.234   4.072  17.835  0.00  0.00    +0.000 C 
BRANCH  12  13
ATOM     13  N   UNL     1       5.985   4.475  16.660  0.00  0.00    +0.000 N 
ATOM     14  C   UNL     1       5.822   3.942  15.409  0.00  0.00    +0.000 A 
ATOM     15  C   UNL     1       6.740   4.595  14.620  0.00  0.00    +0.000 A 
ATOM     16  N   UNL     1       7.461   5.492  15.360  0.00  0.00    +0.000 NA
ATOM     17  C   UNL     1       7.003   5.383  16.588  0.00  0.00    +0.000 A 
ENDBRANCH  12  13
ENDBRANCH   2  12
TORSDOF 3
ENDMDL
