MODEL 1
REMARK VINA RESULT:      -8.3      0.000      0.000
REMARK  Name = 
REMARK  7 active torsions:
REMARK  status: ('A' for Active; 'I' for Inactive)
REMARK    1  A    between atoms: C_1  and  C_2
REMARK    2  A    between atoms: C_4  and  C_5
REMARK    3  A    between atoms: C_6  and  S_7
REMARK    4  A    between atoms: S_7  and  N_10
REMARK    5  A    between atoms: C_13  and  C_14
REMARK    6  A    between atoms: C_20  and  C_21
REMARK    7  A    between atoms: C_25  and  C_26
REMARK                            x       y       z     vdW  Elec       q    Type
REMARK                         _______ _______ _______ _____ _____    ______ ____
ROOT
ATOM      1  N   UNL     1       5.353   4.672  18.035  0.00  0.00    +0.000 NA
ATOM      2  C   UNL     1       6.247   4.858  16.864  0.00  0.00    +0.000 C 
ATOM      3  C   UNL     1       7.714   5.012  17.225  0.00  0.00    +0.000 C 
ATOM      4  C   UNL     1       8.003   5.956  18.384  0.00  0.00    +0.000 C 
ATOM      5  C   UNL     1       7.133   5.607  19.577  0.00  0.00    +0.000 C 
ATOM      6  C   UNL     1       5.650   5.461  19.267  0.00  0.00    +0.000 C 
ENDROOT
BRANCH   4   7
ATOM      7  C   UNL     1       8.087   7.447  18.034  0.00  0.00    +0.000 C 
ATOM      8  O   UNL     1       7.598   7.825  16.970  0.00  0.00    +0.000 OA
ATOM      9  N   UNL     1       8.734   8.269  18.925  0.00  0.00    +0.000 N 
ATOM     10  C   UNL     1       8.848   9.617  18.701  0.00  0.00    +0.000 A 
ATOM     11  N   UNL     1       9.655  10.452  19.319  0.00  0.00    +0.000 NA
ATOM     12  N   UNL     1       9.379  11.713  18.818  0.00  0.00    +0.000 NA
ATOM     13  C   UNL     1       8.397  11.554  17.957  0.00  0.00    +0.000 A 
ATOM     14  C   UNL     1       7.621  12.558  17.205  0.00  0.00    +0.000 C 
ATOM     15  O   UNL     1       8.020  10.248  17.819  0.00  0.00    +0.000 OA
ATOM     16  H   UNL     1       9.287   7.925  19.691  0.00  0.00    +0.000 HD
ENDBRANCH   4   7
BRANCH   1  17
ATOM     17  S   UNL     1       3.655   4.764  17.624  0.00  0.00    +0.000 S 
ATOM     18  O   UNL     1       3.532   3.903  16.461  0.00  0.00    +0.000 OA
ATOM     19  O   UNL     1       3.305   6.161  17.519  0.00  0.00    +0.000 OA
BRANCH  17  25
ATOM     20  C   UNL     1       0.882   2.278  22.524  0.00  0.00    +0.000 C 
ATOM     21  C   UNL     1       1.524   2.853  21.296  0.00  0.00    +0.000 A 
ATOM     22  C   UNL     1       2.148   2.071  20.330  0.00  0.00    +0.000 A 
ATOM     23  C   UNL     1       2.770   2.651  19.200  0.00  0.00    +0.000 A 
ATOM     24  C   UNL     1       3.447   1.708  18.236  0.00  0.00    +0.000 C 
ATOM     25  C   UNL     1       2.763   4.071  19.039  0.00  0.00    +0.000 A 
ATOM     26  C   UNL     1       2.143   4.868  20.030  0.00  0.00    +0.000 A 
ATOM     27  C   UNL     1       2.067   6.369  20.134  0.00  0.00    +0.000 C 
ATOM     28  C   UNL     1       1.527   4.233  21.132  0.00  0.00    +0.000 A 
ENDBRANCH  17  25
ENDBRANCH   1  17
TORSDOF 3
ENDMDL
MODEL 2
REMARK VINA RESULT:      -8.1      1.189      2.535
REMARK  Name = 
REMARK  7 active torsions:
REMARK  status: ('A' for Active; 'I' for Inactive)
REMARK    1  A    between atoms: C_1  and  C_2
REMARK    2  A    between atoms: C_4  and  C_5
REMARK    3  A    between atoms: C_6  and  S_7
REMARK    4  A    between atoms: S_7  and  N_10
REMARK    5  A    between atoms: C_13  and  C_14
REMARK    6  A    between atoms: C_20  and  C_21
REMARK    7  A    between atoms: C_25  and  C_26
REMARK                            x       y       z     vdW  Elec       q    Type
REMARK                         _______ _______ _______ _____ _____    ______ ____
ROOT
ATOM      1  N   UNL     1       5.308   4.404  18.255  0.00  0.00    +0.000 NA
ATOM      2  C   UNL     1       6.223   4.545  17.094  0.00  0.00    +0.000 C 
ATOM      3  C   UNL     1       7.681   4.734  17.475  0.00  0.00    +0.000 C 
ATOM      4  C   UNL     1       7.936   5.735  18.593  0.00  0.00    +0.000 C 
ATOM      5  C   UNL     1       7.046   5.433  19.785  0.00  0.00    +0.000 C 
ATOM      6  C   UNL     1       5.572   5.254  19.454  0.00  0.00    +0.000 C 
ENDROOT
BRANCH   4   7
ATOM      7  C   UNL     1       8.010   7.209  18.174  0.00  0.00    +0.000 C 
ATOM      8  O   UNL     1       7.482   7.541  17.114  0.00  0.00    +0.000 OA
ATOM      9  N   UNL     1       8.692   8.067  19.003  0.00  0.00    +0.000 N 
ATOM     10  C   UNL     1       8.800   9.403  18.716  0.00  0.00    +0.000 A 
ATOM     11  N   UNL     1       9.633  10.262  19.265  0.00  0.00    +0.000 NA
ATOM     12  N   UNL     1       9.340  11.500  18.719  0.00  0.00    +0.000 NA
ATOM     13  C   UNL     1       8.326  11.307  17.903  0.00  0.00    +0.000 A 
ATOM     14  C   UNL     1       7.525  12.280  17.138  0.00  0.00    +0.000 C 
ATOM     15  O   UNL     1       7.941   9.998  17.838  0.00  0.00    +0.000 OA
ATOM     16  H   UNL     1       9.273   7.755  19.762  0.00  0.00    +0.000 HD
ENDBRANCH   4   7
BRANCH   1  17
ATOM     17  S   UNL     1       3.618   4.455  17.808  0.00  0.00    +0.000 S 
ATOM     18  O   UNL     1       3.151   3.104  18.060  0.00  0.00    +0.000 OA
ATOM     19  O   UNL     1       3.534   5.003  16.475  0.00  0.00    +0.000 OA
BRANCH  17  25
ATOM     20  C   UNL     1       0.791   8.541  21.440  0.00  0.00    +0.000 C 
ATOM     21  C   UNL     1       1.528   7.574  20.562  0.00  0.00    +0.000 A 
ATOM     22  C   UNL     1       2.208   7.960  19.411  0.00  0.00    +0.000 A 
ATOM     23  C   UNL     1       2.866   7.015  18.591  0.00  0.00    +0.000 A 
ATOM     24  C   UNL     1       3.540   7.543  17.349  0.00  0.00    +0.000 C 
ATOM     25  C   UNL     1       2.839   5.631  18.944  0.00  0.00    +0.000 A 
ATOM     26  C   UNL     1       2.135   5.235  20.105  0.00  0.00    +0.000 A 
ATOM     27  C   UNL     1       1.892   3.850  20.646  0.00  0.00    +0.000 C 
ATOM     28  C   UNL     1       1.504   6.225  20.893  0.00  0.00    +0.000 A 
ENDBRANCH  17  25
ENDBRANCH   1  17
TORSDOF 3
ENDMDL
MODEL 3
REMARK VINA RESULT:      -8.0      1.185      2.292
REMARK  Name = 
REMARK  7 active torsions:
REMARK  status: ('A' for Active; 'I' for Inactive)
REMARK    1  A    between atoms: C_1  and  C_2
REMARK    2  A    between atoms: C_4  and  C_5
REMARK    3  A    between atoms: C_6  and  S_7
REMARK    4  A    between atoms: S_7  and  N_10
REMARK    5  A    between atoms: C_13  and  C_14
REMARK    6  A    between atoms: C_20  and  C_21
REMARK    7  A    between atoms: C_25  and  C_26
REMARK                            x       y       z     vdW  Elec       q    Type
REMARK                         _______ _______ _______ _____ _____    ______ ____
ROOT
ATOM      1  N   UNL     1       5.324   4.343  18.172  0.00  0.00    +0.000 NA
ATOM      2  C   UNL     1       6.288   4.488  17.052  0.00  0.00    +0.000 C 
ATOM      3  C   UNL     1       7.724   4.704  17.496  0.00  0.00    +0.000 C 
ATOM      4  C   UNL     1       7.914   5.720  18.614  0.00  0.00    +0.000 C 
ATOM      5  C   UNL     1       6.975   5.415  19.768  0.00  0.00    +0.000 C 
ATOM      6  C   UNL     1       5.520   5.210  19.372  0.00  0.00    +0.000 C 
ENDROOT
BRANCH   4   7
ATOM      7  C   UNL     1       7.983   7.190  18.183  0.00  0.00    +0.000 C 
ATOM      8  O   UNL     1       7.441   7.516  17.129  0.00  0.00    +0.000 OA
ATOM      9  N   UNL     1       8.679   8.054  18.996  0.00  0.00    +0.000 N 
ATOM     10  C   UNL     1       8.784   9.388  18.697  0.00  0.00    +0.000 A 
ATOM     11  N   UNL     1       9.626  10.249  19.228  0.00  0.00    +0.000 NA
ATOM     12  N   UNL     1       9.327  11.484  18.677  0.00  0.00    +0.000 NA
ATOM     13  C   UNL     1       8.301  11.286  17.877  0.00  0.00    +0.000 A 
ATOM     14  C   UNL     1       7.489  12.254  17.116  0.00  0.00    +0.000 C 
ATOM     15  O   UNL     1       7.913   9.977  17.827  0.00  0.00    +0.000 OA
ATOM     16  H   UNL     1       9.270   7.747  19.749  0.00  0.00    +0.000 HD
ENDBRANCH   4   7
BRANCH   1  17
ATOM     17  S   UNL     1       3.656   4.363  17.649  0.00  0.00    +0.000 S 
ATOM     18  O   UNL     1       3.181   3.025  17.952  0.00  0.00    +0.000 OA
ATOM     19  O   UNL     1       3.630   4.839  16.286  0.00  0.00    +0.000 OA
BRANCH  17  25
ATOM     20  C   UNL     1       1.008   8.462  21.399  0.00  0.00    +0.000 C 
ATOM     21  C   UNL     1       1.603   7.437  20.480  0.00  0.00    +0.000 A 
ATOM     22  C   UNL     1       1.586   6.073  20.753  0.00  0.00    +0.000 A 
ATOM     23  C   UNL     1       2.185   5.138  19.877  0.00  0.00    +0.000 A 
ATOM     24  C   UNL     1       2.137   3.688  20.293  0.00  0.00    +0.000 C 
ATOM     25  C   UNL     1       2.824   5.594  18.684  0.00  0.00    +0.000 A 
ATOM     26  C   UNL     1       2.856   6.983  18.414  0.00  0.00    +0.000 A 
ATOM     27  C   UNL     1       3.525   7.717  17.281  0.00  0.00    +0.000 C 
ATOM     28  C   UNL     1       2.231   7.870  19.319  0.00  0.00    +0.000 A 
ENDBRANCH  17  25
ENDBRANCH   1  17
TORSDOF 3
ENDMDL
MODEL 4
REMARK VINA RESULT:      -7.8      3.644      5.997
REMARK  Name = 
REMARK  7 active torsions:
REMARK  status: ('A' for Active; 'I' for Inactive)
REMARK    1  A    between atoms: C_1  and  C_2
REMARK    2  A    between atoms: C_4  and  C_5
REMARK    3  A    between atoms: C_6  and  S_7
REMARK    4  A    between atoms: S_7  and  N_10
REMARK    5  A    between atoms: C_13  and  C_14
REMARK    6  A    between atoms: C_20  and  C_21
REMARK    7  A    between atoms: C_25  and  C_26
REMARK                            x       y       z     vdW  Elec       q    Type
REMARK                         _______ _______ _______ _____ _____    ______ ____
ROOT
ATOM      1  N   UNL     1       4.058   6.800  18.353  0.00  0.00    +0.000 NA
ATOM      2  C   UNL     1       4.157   5.333  18.562  0.00  0.00    +0.000 C 
ATOM      3  C   UNL     1       5.583   4.819  18.666  0.00  0.00    +0.000 C 
ATOM      4  C   UNL     1       6.549   5.366  17.625  0.00  0.00    +0.000 C 
ATOM      5  C   UNL     1       6.467   6.881  17.574  0.00  0.00    +0.000 C 
ATOM      6  C   UNL     1       5.058   7.442  17.450  0.00  0.00    +0.000 C 
ENDROOT
BRANCH   4   7
ATOM      7  C   UNL     1       6.551   4.653  16.267  0.00  0.00    +0.000 C 
ATOM      8  O   UNL     1       6.148   3.492  16.217  0.00  0.00    +0.000 OA
ATOM      9  N   UNL     1       7.034   5.353  15.187  0.00  0.00    +0.000 N 
ATOM     10  C   UNL     1       7.063   4.801  13.933  0.00  0.00    +0.000 A 
ATOM     11  N   UNL     1       7.733   5.247  12.891  0.00  0.00    +0.000 NA
ATOM     12  N   UNL     1       7.411   4.418  11.830  0.00  0.00    +0.000 NA
ATOM     13  C   UNL     1       6.541   3.550  12.298  0.00  0.00    +0.000 A 
ATOM     14  C   UNL     1       5.771   2.505  11.597  0.00  0.00    +0.000 C 
ATOM     15  O   UNL     1       6.285   3.722  13.629  0.00  0.00    +0.000 OA
ATOM     16  H   UNL     1       7.529   6.224  15.272  0.00  0.00    +0.000 HD
ENDBRANCH   4   7
BRANCH   1  17
ATOM     17  S   UNL     1       2.435   7.330  17.971  0.00  0.00    +0.000 S 
ATOM     18  O   UNL     1       1.748   6.106  17.600  0.00  0.00    +0.000 OA
ATOM     19  O   UNL     1       2.540   8.407  17.015  0.00  0.00    +0.000 OA
BRANCH  17  25
ATOM     20  C   UNL     1      -0.112   9.720  23.038  0.00  0.00    +0.000 C 
ATOM     21  C   UNL     1       0.550   9.177  21.805  0.00  0.00    +0.000 A 
ATOM     22  C   UNL     1       0.770   9.941  20.664  0.00  0.00    +0.000 A 
ATOM     23  C   UNL     1       1.369   9.385  19.509  0.00  0.00    +0.000 A 
ATOM     24  C   UNL     1       1.525  10.297  18.318  0.00  0.00    +0.000 C 
ATOM     25  C   UNL     1       1.760   8.011  19.506  0.00  0.00    +0.000 A 
ATOM     26  C   UNL     1       1.522   7.230  20.662  0.00  0.00    +0.000 A 
ATOM     27  C   UNL     1       1.766   5.760  20.884  0.00  0.00    +0.000 C 
ATOM     28  C   UNL     1       0.930   7.841  21.790  0.00  0.00    +0.000 A 
ENDBRANCH  17  25
ENDBRANCH   1  17
TORSDOF 3
ENDMDL
MODEL 5
REMARK VINA RESULT:      -7.5      0.154      1.704
REMARK  Name = 
REMARK  7 active torsions:
REMARK  status: ('A' for Active; 'I' for Inactive)
REMARK    1  A    between atoms: C_1  and  C_2
REMARK    2  A    between atoms: C_4  and  C_5
REMARK    3  A    between atoms: C_6  and  S_7
REMARK    4  A    between atoms: S_7  and  N_10
REMARK    5  A    between atoms: C_13  and  C_14
REMARK    6  A    between atoms: C_20  and  C_21
REMARK    7  A    between atoms: C_25  and  C_26
REMARK                            x       y       z     vdW  Elec       q    Type
REMARK                         _______ _______ _______ _____ _____    ______ ____
ROOT
ATOM      1  N   UNL     1       5.397   4.722  18.058  0.00  0.00    +0.000 NA
ATOM      2  C   UNL     1       6.200   4.945  16.829  0.00  0.00    +0.000 C 
ATOM      3  C   UNL     1       7.689   5.100  17.083  0.00  0.00    +0.000 C 
ATOM      4  C   UNL     1       8.059   6.016  18.241  0.00  0.00    +0.000 C 
ATOM      5  C   UNL     1       7.282   5.631  19.487  0.00  0.00    +0.000 C 
ATOM      6  C   UNL     1       5.781   5.482  19.284  0.00  0.00    +0.000 C 
ENDROOT
BRANCH   4   7
ATOM      7  C   UNL     1       8.109   7.516  17.925  0.00  0.00    +0.000 C 
ATOM      8  O   UNL     1       7.602   7.908  16.874  0.00  0.00    +0.000 OA
ATOM      9  N   UNL     1       8.747   8.331  18.829  0.00  0.00    +0.000 N 
ATOM     10  C   UNL     1       8.830   9.686  18.635  0.00  0.00    +0.000 A 
ATOM     11  N   UNL     1       9.626  10.524  19.264  0.00  0.00    +0.000 NA
ATOM     12  N   UNL     1       9.318  11.789  18.794  0.00  0.00    +0.000 NA
ATOM     13  C   UNL     1       8.332  11.629  17.938  0.00  0.00    +0.000 A 
ATOM     14  C   UNL     1       7.529  12.633  17.217  0.00  0.00    +0.000 C 
ATOM     15  O   UNL     1       7.981  10.319  17.774  0.00  0.00    +0.000 OA
ATOM     16  H   UNL     1       9.314   7.981  19.582  0.00  0.00    +0.000 HD
ENDBRANCH   4   7
BRANCH   1  17
ATOM     17  S   UNL     1       3.673   4.812  17.778  0.00  0.00    +0.000 S 
ATOM     18  O   UNL     1       3.477   4.037  16.566  0.00  0.00    +0.000 OA
ATOM     19  O   UNL     1       3.297   6.206  17.802  0.00  0.00    +0.000 OA
BRANCH  17  25
ATOM     20  C   UNL     1       0.765   2.179  22.520  0.00  0.00    +0.000 C 
ATOM     21  C   UNL     1       1.506   2.850  21.401  0.00  0.00    +0.000 A 
ATOM     22  C   UNL     1       1.544   4.231  21.238  0.00  0.00    +0.000 A 
ATOM     23  C   UNL     1       2.227   4.827  20.152  0.00  0.00    +0.000 A 
ATOM     24  C   UNL     1       2.170   6.331  20.056  0.00  0.00    +0.000 C 
ATOM     25  C   UNL     1       2.895   4.001  19.197  0.00  0.00    +0.000 A 
ATOM     26  C   UNL     1       2.844   2.596  19.354  0.00  0.00    +0.000 A 
ATOM     27  C   UNL     1       3.392   1.517  18.456  0.00  0.00    +0.000 C 
ATOM     28  C   UNL     1       2.156   2.056  20.464  0.00  0.00    +0.000 A 
ENDBRANCH  17  25
ENDBRANCH   1  17
TORSDOF 3
ENDMDL
MODEL 6
REMARK VINA RESULT:      -7.1      3.900      6.129
REMARK  Name = 
REMARK  7 active torsions:
REMARK  status: ('A' for Active; 'I' for Inactive)
REMARK    1  A    between atoms: C_1  and  C_2
REMARK    2  A    between atoms: C_4  and  C_5
REMARK    3  A    between atoms: C_6  and  S_7
REMARK    4  A    between atoms: S_7  and  N_10
REMARK    5  A    between atoms: C_13  and  C_14
REMARK    6  A    between atoms: C_20  and  C_21
REMARK    7  A    between atoms: C_25  and  C_26
REMARK                            x       y       z     vdW  Elec       q    Type
REMARK                         _______ _______ _______ _____ _____    ______ ____
ROOT
ATOM      1  N   UNL     1       2.704   6.561  18.902  0.00  0.00    +0.000 NA
ATOM      2  C   UNL     1       2.117   5.419  18.155  0.00  0.00    +0.000 C 
ATOM      3  C   UNL     1       2.770   4.082  18.457  0.00  0.00    +0.000 C 
ATOM      4  C   UNL     1       4.292   4.092  18.482  0.00  0.00    +0.000 C 
ATOM      5  C   UNL     1       4.797   5.213  19.371  0.00  0.00    +0.000 C 
ATOM      6  C   UNL     1       4.184   6.578  19.092  0.00  0.00    +0.000 C 
ENDROOT
BRANCH   4   7
ATOM      7  C   UNL     1       4.989   3.956  17.122  0.00  0.00    +0.000 C 
ATOM      8  O   UNL     1       4.765   2.950  16.450  0.00  0.00    +0.000 OA
ATOM      9  N   UNL     1       5.849   4.961  16.750  0.00  0.00    +0.000 N 
ATOM     10  C   UNL     1       6.507   4.930  15.548  0.00  0.00    +0.000 A 
ATOM     11  N   UNL     1       7.538   5.668  15.195  0.00  0.00    +0.000 NA
ATOM     12  N   UNL     1       7.823   5.345  13.879  0.00  0.00    +0.000 NA
ATOM     13  C   UNL     1       6.921   4.459  13.519  0.00  0.00    +0.000 A 
ATOM     14  C   UNL     1       6.664   3.846  12.202  0.00  0.00    +0.000 C 
ATOM     15  O   UNL     1       6.063   4.135  14.531  0.00  0.00    +0.000 OA
ATOM     16  H   UNL     1       6.165   5.678  17.381  0.00  0.00    +0.000 HD
ENDBRANCH   4   7
BRANCH   1  17
ATOM     17  S   UNL     1       2.124   8.115  18.347  0.00  0.00    +0.000 S 
ATOM     18  O   UNL     1       1.147   7.777  17.328  0.00  0.00    +0.000 OA
ATOM     19  O   UNL     1       3.276   8.912  17.996  0.00  0.00    +0.000 OA
BRANCH  17  25
ATOM     20  C   UNL     1      -0.824  10.807  23.030  0.00  0.00    +0.000 C 
ATOM     21  C   UNL     1      -0.065  10.191  21.893  0.00  0.00    +0.000 A 
ATOM     22  C   UNL     1       0.257  10.885  20.732  0.00  0.00    +0.000 A 
ATOM     23  C   UNL     1       0.948  10.260  19.667  0.00  0.00    +0.000 A 
ATOM     24  C   UNL     1       1.212  11.100  18.441  0.00  0.00    +0.000 C 
ATOM     25  C   UNL     1       1.326   8.887  19.777  0.00  0.00    +0.000 A 
ATOM     26  C   UNL     1       0.985   8.176  20.952  0.00  0.00    +0.000 A 
ATOM     27  C   UNL     1       1.197   6.721  21.279  0.00  0.00    +0.000 C 
ATOM     28  C   UNL     1       0.304   8.855  21.988  0.00  0.00    +0.000 A 
ENDBRANCH  17  25
ENDBRANCH   1  17
TORSDOF 3
ENDMDL
MODEL 7
REMARK VINA RESULT:      -7.0      7.649     10.007
REMARK  Name = 
REMARK  7 active torsions:
REMARK  status: ('A' for Active; 'I' for Inactive)
REMARK    1  A    between atoms: C_1  and  C_2
REMARK    2  A    between atoms: C_4  and  C_5
REMARK    3  A    between atoms: C_6  and  S_7
REMARK    4  A    between atoms: S_7  and  N_10
REMARK    5  A    between atoms: C_13  and  C_14
REMARK    6  A    between atoms: C_20  and  C_21
REMARK    7  A    between atoms: C_25  and  C_26
REMARK                            x       y       z     vdW  Elec       q    Type
REMARK                         _______ _______ _______ _____ _____    ______ ____
ROOT
ATOM      1  N   UNL     1       0.265  10.585  19.935  0.00  0.00    +0.000 NA
ATOM      2  C   UNL     1      -1.083  10.501  19.318  0.00  0.00    +0.000 C 
ATOM      3  C   UNL     1      -1.589  11.819  18.758  0.00  0.00    +0.000 C 
ATOM      4  C   UNL     1      -1.393  13.028  19.661  0.00  0.00    +0.000 C 
ATOM      5  C   UNL     1       0.046  13.101  20.139  0.00  0.00    +0.000 C 
ATOM      6  C   UNL     1       0.591  11.807  20.727  0.00  0.00    +0.000 C 
ENDROOT
BRANCH   4   7
ATOM      7  C   UNL     1      -2.464  13.247  20.737  0.00  0.00    +0.000 C 
ATOM      8  O   UNL     1      -3.198  14.229  20.639  0.00  0.00    +0.000 OA
ATOM      9  N   UNL     1      -2.517  12.339  21.768  0.00  0.00    +0.000 N 
ATOM     10  C   UNL     1      -3.449  12.448  22.768  0.00  0.00    +0.000 A 
ATOM     11  N   UNL     1      -3.436  11.824  23.927  0.00  0.00    +0.000 NA
ATOM     12  N   UNL     1      -4.601  12.185  24.582  0.00  0.00    +0.000 NA
ATOM     13  C   UNL     1      -5.253  12.976  23.756  0.00  0.00    +0.000 A 
ATOM     14  C   UNL     1      -6.598  13.568  23.872  0.00  0.00    +0.000 C 
ATOM     15  O   UNL     1      -4.574  13.200  22.592  0.00  0.00    +0.000 OA
ATOM     16  H   UNL     1      -1.800  11.655  21.938  0.00  0.00    +0.000 HD
ENDBRANCH   4   7
BRANCH   1  17
ATOM     17  S   UNL     1       0.714   9.135  20.804  0.00  0.00    +0.000 S 
ATOM     18  O   UNL     1      -0.547   8.439  20.992  0.00  0.00    +0.000 OA
ATOM     19  O   UNL     1       1.486   9.537  21.957  0.00  0.00    +0.000 OA
BRANCH  17  25
ATOM     20  C   UNL     1       4.202   5.789  16.995  0.00  0.00    +0.000 C 
ATOM     21  C   UNL     1       3.388   6.593  17.966  0.00  0.00    +0.000 A 
ATOM     22  C   UNL     1       2.851   6.057  19.131  0.00  0.00    +0.000 A 
ATOM     23  C   UNL     1       2.062   6.838  20.008  0.00  0.00    +0.000 A 
ATOM     24  C   UNL     1       1.501   6.142  21.223  0.00  0.00    +0.000 C 
ATOM     25  C   UNL     1       1.806   8.209  19.697  0.00  0.00    +0.000 A 
ATOM     26  C   UNL     1       2.339   8.750  18.503  0.00  0.00    +0.000 A 
ATOM     27  C   UNL     1       2.154  10.126  17.916  0.00  0.00    +0.000 C 
ATOM     28  C   UNL     1       3.129   7.926  17.671  0.00  0.00    +0.000 A 
ENDBRANCH  17  25
ENDBRANCH   1  17
TORSDOF 3
ENDMDL
MODEL 8
REMARK VINA RESULT:      -7.0      9.281     12.109
REMARK  Name = 
REMARK  7 active torsions:
REMARK  status: ('A' for Active; 'I' for Inactive)
REMARK    1  A    between atoms: C_1  and  C_2
REMARK    2  A    between atoms: C_4  and  C_5
REMARK    3  A    between atoms: C_6  and  S_7
REMARK    4  A    between atoms: S_7  and  N_10
REMARK    5  A    between atoms: C_13  and  C_14
REMARK    6  A    between atoms: C_20  and  C_21
REMARK    7  A    between atoms: C_25  and  C_26
REMARK                            x       y       z     vdW  Elec       q    Type
REMARK                         _______ _______ _______ _____ _____    ______ ____
ROOT
ATOM      1  N   UNL     1      -0.416  12.594  22.455  0.00  0.00    +0.000 NA
ATOM      2  C   UNL     1      -0.857  13.974  22.128  0.00  0.00    +0.000 C 
ATOM      3  C   UNL     1      -2.020  14.468  22.971  0.00  0.00    +0.000 C 
ATOM      4  C   UNL     1      -3.162  13.476  23.148  0.00  0.00    +0.000 C 
ATOM      5  C   UNL     1      -2.626  12.132  23.606  0.00  0.00    +0.000 C 
ATOM      6  C   UNL     1      -1.470  11.588  22.779  0.00  0.00    +0.000 C 
ENDROOT
BRANCH   4   7
ATOM      7  C   UNL     1      -4.196  13.430  22.017  0.00  0.00    +0.000 C 
ATOM      8  O   UNL     1      -4.261  14.386  21.246  0.00  0.00    +0.000 OA
ATOM      9  N   UNL     1      -5.012  12.325  21.952  0.00  0.00    +0.000 N 
ATOM     10  C   UNL     1      -5.957  12.192  20.968  0.00  0.00    +0.000 A 
ATOM     11  N   UNL     1      -6.960  11.340  20.950  0.00  0.00    +0.000 NA
ATOM     12  N   UNL     1      -7.607  11.517  19.739  0.00  0.00    +0.000 NA
ATOM     13  C   UNL     1      -6.928  12.442  19.096  0.00  0.00    +0.000 A 
ATOM     14  C   UNL     1      -7.086  12.953  17.722  0.00  0.00    +0.000 C 
ATOM     15  O   UNL     1      -5.877  12.927  19.821  0.00  0.00    +0.000 OA
ATOM     16  H   UNL     1      -5.076  11.644  22.689  0.00  0.00    +0.000 HD
ENDBRANCH   4   7
BRANCH   1  17
ATOM     17  S   UNL     1       0.735  11.951  21.307  0.00  0.00    +0.000 S 
ATOM     18  O   UNL     1       1.215  10.735  21.940  0.00  0.00    +0.000 OA
ATOM     19  O   UNL     1       1.668  13.005  20.985  0.00  0.00    +0.000 OA
BRANCH  17  25
ATOM     20  C   UNL     1      -2.711  10.558  16.402  0.00  0.00    +0.000 C 
ATOM     21  C   UNL     1      -1.833  10.859  17.580  0.00  0.00    +0.000 A 
ATOM     22  C   UNL     1      -1.449   9.895  18.505  0.00  0.00    +0.000 A 
ATOM     23  C   UNL     1      -0.645  10.223  19.622  0.00  0.00    +0.000 A 
ATOM     24  C   UNL     1      -0.320   9.103  20.579  0.00  0.00    +0.000 C 
ATOM     25  C   UNL     1      -0.213  11.571  19.812  0.00  0.00    +0.000 A 
ATOM     26  C   UNL     1      -0.616  12.556  18.879  0.00  0.00    +0.000 A 
ATOM     27  C   UNL     1      -0.364  14.041  18.894  0.00  0.00    +0.000 C 
ATOM     28  C   UNL     1      -1.411  12.168  17.776  0.00  0.00    +0.000 A 
ENDBRANCH  17  25
ENDBRANCH   1  17
TORSDOF 3
ENDMDL
MODEL 9
REMARK VINA RESULT:      -7.0      8.044     11.677
REMARK  Name = 
REMARK  7 active torsions:
REMARK  status: ('A' for Active; 'I' for Inactive)
REMARK    1  A    between atoms: C_1  and  C_2
REMARK    2  A    between atoms: C_4  and  C_5
REMARK    3  A    between atoms: C_6  and  S_7
REMARK    4  A    between atoms: S_7  and  N_10
REMARK    5  A    between atoms: C_13  and  C_14
REMARK    6  A    between atoms: C_20  and  C_21
REMARK    7  A    between atoms: C_25  and  C_26
REMARK                            x       y       z     vdW  Elec       q    Type
REMARK                         _______ _______ _______ _____ _____    ______ ____
ROOT
ATOM      1  N   UNL     1       1.793  12.640  20.741  0.00  0.00    +0.000 NA
ATOM      2  C   UNL     1       0.904  11.641  21.388  0.00  0.00    +0.000 C 
ATOM      3  C   UNL     1       0.811  10.322  20.641  0.00  0.00    +0.000 C 
ATOM      4  C   UNL     1       0.624  10.439  19.135  0.00  0.00    +0.000 C 
ATOM      5  C   UNL     1       1.658  11.381  18.546  0.00  0.00    +0.000 C 
ATOM      6  C   UNL     1       1.774  12.725  19.251  0.00  0.00    +0.000 C 
ENDROOT
BRANCH   4   7
ATOM      7  C   UNL     1      -0.816  10.643  18.649  0.00  0.00    +0.000 C 
ATOM      8  O   UNL     1      -1.680  10.916  19.481  0.00  0.00    +0.000 OA
ATOM      9  N   UNL     1      -1.058  10.480  17.305  0.00  0.00    +0.000 N 
ATOM     10  C   UNL     1      -2.312  10.654  16.779  0.00  0.00    +0.000 A 
ATOM     11  N   UNL     1      -2.726  10.273  15.589  0.00  0.00    +0.000 NA
ATOM     12  N   UNL     1      -4.032  10.716  15.465  0.00  0.00    +0.000 NA
ATOM     13  C   UNL     1      -4.303  11.366  16.577  0.00  0.00    +0.000 A 
ATOM     14  C   UNL     1      -5.496  12.144  16.955  0.00  0.00    +0.000 C 
ATOM     15  O   UNL     1      -3.263  11.354  17.463  0.00  0.00    +0.000 OA
ATOM     16  H   UNL     1      -0.390  10.078  16.670  0.00  0.00    +0.000 HD
ENDBRANCH   4   7
BRANCH   1  17
ATOM     17  S   UNL     1       1.680  14.229  21.463  0.00  0.00    +0.000 S 
ATOM     18  O   UNL     1       3.029  14.496  21.928  0.00  0.00    +0.000 OA
ATOM     19  O   UNL     1       0.590  14.203  22.409  0.00  0.00    +0.000 OA
BRANCH  17  25
ATOM     20  C   UNL     1      -0.061  18.189  17.086  0.00  0.00    +0.000 C 
ATOM     21  C   UNL     1       0.342  17.181  18.121  0.00  0.00    +0.000 A 
ATOM     22  C   UNL     1      -0.563  16.326  18.740  0.00  0.00    +0.000 A 
ATOM     23  C   UNL     1      -0.150  15.410  19.735  0.00  0.00    +0.000 A 
ATOM     24  C   UNL     1      -1.225  14.558  20.364  0.00  0.00    +0.000 C 
ATOM     25  C   UNL     1       1.224  15.354  20.119  0.00  0.00    +0.000 A 
ATOM     26  C   UNL     1       2.143  16.234  19.501  0.00  0.00    +0.000 A 
ATOM     27  C   UNL     1       3.612  16.426  19.777  0.00  0.00    +0.000 C 
ATOM     28  C   UNL     1       1.676  17.121  18.505  0.00  0.00    +0.000 A 
ENDBRANCH  17  25
ENDBRANCH   1  17
TORSDOF 3
ENDMDL
