MODEL 1
REMARK VINA RESULT:      -9.4      0.000      0.000
REMARK  Name = 
REMARK  7 active torsions:
REMARK  status: ('A' for Active; 'I' for Inactive)
REMARK    1  A    between atoms: C_2  and  C_3
REMARK    2  A    between atoms: C_4  and  C_5
REMARK    3  A    between atoms: C_6  and  C_7
REMARK    4  A    between atoms: N_16  and  C_17
REMARK    5  A    between atoms: C_17  and  C_18
REMARK    6  A    between atoms: C_18  and  N_19
REMARK    7  A    between atoms: N_19  and  C_20
REMARK                            x       y       z     vdW  Elec       q    Type
REMARK                         _______ _______ _______ _____ _____    ______ ____
ROOT
ATOM      1  C   UNL     1       5.630   4.953  17.831  0.00  0.00    +0.000 C 
ENDROOT
BRANCH   1   4
ATOM      2  O   UNL     1       8.031   5.115  19.439  0.00  0.00    +0.000 OA
ATOM      3  C   UNL     1       7.648   6.053  18.783  0.00  0.00    +0.000 C 
ATOM      4  N   UNL     1       6.562   6.064  17.957  0.00  0.00    +0.000 N 
ATOM      5  H   UNL     1       6.324   6.912  17.469  0.00  0.00    +0.000 HD
BRANCH   3   6
ATOM      6  C   UNL     1       8.385   7.365  18.774  0.00  0.00    +0.000 C 
ATOM      7  C   UNL     1       7.954   8.394  18.020  0.00  0.00    +0.000 C 
BRANCH   7   8
ATOM      8  C   UNL     1       8.653   9.656  18.021  0.00  0.00    +0.000 C 
ATOM      9  C   UNL     1       9.331  10.145  19.073  0.00  0.00    +0.000 C 
BRANCH   9  10
ATOM     10  C   UNL     1      10.015  11.447  19.040  0.00  0.00    +0.000 A 
ATOM     11  C   UNL     1      10.454  12.082  20.229  0.00  0.00    +0.000 A 
ATOM     12  C   UNL     1      11.115  13.312  20.196  0.00  0.00    +0.000 A 
ATOM     13  C   UNL     1      11.332  13.882  18.966  0.00  0.00    +0.000 A 
ATOM     14  C   UNL     1      10.925  13.272  17.802  0.00  0.00    +0.000 A 
ATOM     15  C   UNL     1      10.275  12.054  17.803  0.00  0.00    +0.000 A 
ATOM     16  O   UNL     1      11.241  14.003  16.699  0.00  0.00    +0.000 OA
ATOM     17  C   UNL     1      11.844  15.164  17.307  0.00  0.00    +0.000 C 
ATOM     18  O   UNL     1      11.953  15.071  18.741  0.00  0.00    +0.000 OA
ENDBRANCH   9  10
ENDBRANCH   7   8
ENDBRANCH   3   6
ENDBRANCH   1   4
BRANCH   1  19
ATOM     19  C   UNL     1       4.669   5.109  16.655  0.00  0.00    +0.000 C 
BRANCH  19  20
ATOM     20  N   UNL     1       3.262   4.821  17.016  0.00  0.00    +0.000 N 
ATOM     21  H   UNL     1       2.995   3.847  16.867  0.00  0.00    +0.000 HD
BRANCH  20  22
ATOM     22  C   UNL     1       2.792   5.282  18.282  0.00  0.00    +0.000 A 
ATOM     23  C   UNL     1       2.436   6.633  18.535  0.00  0.00    +0.000 A 
ATOM     24  C   UNL     1       1.893   6.945  19.787  0.00  0.00    +0.000 A 
ATOM     25  N   UNL     1       1.754   6.045  20.784  0.00  0.00    +0.000 NA
ATOM     26  C   UNL     1       2.154   4.789  20.587  0.00  0.00    +0.000 A 
ATOM     27  C   UNL     1       1.993   3.920  21.659  0.00  0.00    +0.000 A 
ATOM     28  C   UNL     1       2.382   2.586  21.596  0.00  0.00    +0.000 A 
ATOM     29  C   UNL     1       2.945   2.108  20.419  0.00  0.00    +0.000 A 
ATOM     30  C   UNL     1       3.102   2.965  19.322  0.00  0.00    +0.000 A 
ATOM     31  C   UNL     1       2.709   4.333  19.369  0.00  0.00    +0.000 A 
ATOM     32  C   UNL     1       1.456   8.342  20.156  0.00  0.00    +0.000 C 
ATOM     33  C   UNL     1       1.363   9.322  18.994  0.00  0.00    +0.000 C 
ATOM     34  C   UNL     1       2.544   9.142  18.071  0.00  0.00    +0.000 C 
ATOM     35  C   UNL     1       2.525   7.733  17.507  0.00  0.00    +0.000 C 
ENDBRANCH  20  22
ENDBRANCH  19  20
ENDBRANCH   1  19
TORSDOF 7
ENDMDL
MODEL 2
REMARK VINA RESULT:      -9.2      0.986      3.367
REMARK  Name = 
REMARK  7 active torsions:
REMARK  status: ('A' for Active; 'I' for Inactive)
REMARK    1  A    between atoms: C_2  and  C_3
REMARK    2  A    between atoms: C_4  and  C_5
REMARK    3  A    between atoms: C_6  and  C_7
REMARK    4  A    between atoms: N_16  and  C_17
REMARK    5  A    between atoms: C_17  and  C_18
REMARK    6  A    between atoms: C_18  and  N_19
REMARK    7  A    between atoms: N_19  and  C_20
REMARK                            x       y       z     vdW  Elec       q    Type
REMARK                         _______ _______ _______ _____ _____    ______ ____
ROOT
ATOM      1  C   UNL     1       5.932   5.654  15.994  0.00  0.00    +0.000 C 
ENDROOT
BRANCH   1   4
ATOM      2  O   UNL     1       8.026   6.101  17.941  0.00  0.00    +0.000 OA
ATOM      3  C   UNL     1       7.483   7.020  17.378  0.00  0.00    +0.000 C 
ATOM      4  N   UNL     1       6.524   6.916  16.413  0.00  0.00    +0.000 N 
ATOM      5  H   UNL     1       6.126   7.754  16.023  0.00  0.00    +0.000 HD
BRANCH   3   6
ATOM      6  C   UNL     1       7.850   8.451  17.665  0.00  0.00    +0.000 C 
ATOM      7  C   UNL     1       8.698   8.760  18.665  0.00  0.00    +0.000 C 
BRANCH   7   8
ATOM      8  C   UNL     1       9.060  10.130  18.934  0.00  0.00    +0.000 C 
ATOM      9  C   UNL     1       9.584  10.967  18.021  0.00  0.00    +0.000 C 
BRANCH   9  10
ATOM     10  C   UNL     1       9.959  12.353  18.340  0.00  0.00    +0.000 A 
ATOM     11  C   UNL     1       9.749  12.897  19.630  0.00  0.00    +0.000 A 
ATOM     12  C   UNL     1      10.117  14.209  19.936  0.00  0.00    +0.000 A 
ATOM     13  C   UNL     1      10.701  14.952  18.939  0.00  0.00    +0.000 A 
ATOM     14  C   UNL     1      10.926  14.433  17.686  0.00  0.00    +0.000 A 
ATOM     15  C   UNL     1      10.577  13.138  17.356  0.00  0.00    +0.000 A 
ATOM     16  O   UNL     1      11.516  15.334  16.853  0.00  0.00    +0.000 OA
ATOM     17  C   UNL     1      11.586  16.491  17.712  0.00  0.00    +0.000 C 
ATOM     18  O   UNL     1      11.119  16.241  19.052  0.00  0.00    +0.000 OA
ENDBRANCH   9  10
ENDBRANCH   7   8
ENDBRANCH   3   6
ENDBRANCH   1   4
BRANCH   1  19
ATOM     19  C   UNL     1       4.978   5.067  17.032  0.00  0.00    +0.000 C 
BRANCH  19  20
ATOM     20  N   UNL     1       3.646   5.716  17.024  0.00  0.00    +0.000 N 
ATOM     21  H   UNL     1       3.017   5.342  16.311  0.00  0.00    +0.000 HD
BRANCH  20  22
ATOM     22  C   UNL     1       2.967   5.856  18.271  0.00  0.00    +0.000 A 
ATOM     23  C   UNL     1       2.780   4.783  19.180  0.00  0.00    +0.000 A 
ATOM     24  C   UNL     1       2.186   5.065  20.416  0.00  0.00    +0.000 A 
ATOM     25  N   UNL     1       1.726   6.287  20.759  0.00  0.00    +0.000 NA
ATOM     26  C   UNL     1       1.826   7.288  19.886  0.00  0.00    +0.000 A 
ATOM     27  C   UNL     1       1.320   8.515  20.300  0.00  0.00    +0.000 A 
ATOM     28  C   UNL     1       1.346   9.640  19.483  0.00  0.00    +0.000 A 
ATOM     29  C   UNL     1       1.901   9.534  18.214  0.00  0.00    +0.000 A 
ATOM     30  C   UNL     1       2.431   8.310  17.785  0.00  0.00    +0.000 A 
ATOM     31  C   UNL     1       2.413   7.148  18.607  0.00  0.00    +0.000 A 
ATOM     32  C   UNL     1       1.962   4.006  21.469  0.00  0.00    +0.000 C 
ATOM     33  C   UNL     1       2.683   2.687  21.228  0.00  0.00    +0.000 C 
ATOM     34  C   UNL     1       2.587   2.305  19.770  0.00  0.00    +0.000 C 
ATOM     35  C   UNL     1       3.261   3.375  18.930  0.00  0.00    +0.000 C 
ENDBRANCH  20  22
ENDBRANCH  19  20
ENDBRANCH   1  19
TORSDOF 7
ENDMDL
MODEL 3
REMARK VINA RESULT:      -9.1      1.059      1.143
REMARK  Name = 
REMARK  7 active torsions:
REMARK  status: ('A' for Active; 'I' for Inactive)
REMARK    1  A    between atoms: C_2  and  C_3
REMARK    2  A    between atoms: C_4  and  C_5
REMARK    3  A    between atoms: C_6  and  C_7
REMARK    4  A    between atoms: N_16  and  C_17
REMARK    5  A    between atoms: C_17  and  C_18
REMARK    6  A    between atoms: C_18  and  N_19
REMARK    7  A    between atoms: N_19  and  C_20
REMARK                            x       y       z     vdW  Elec       q    Type
REMARK                         _______ _______ _______ _____ _____    ______ ____
ROOT
ATOM      1  C   UNL     1       5.243   5.438  15.693  0.00  0.00    +0.000 C 
ENDROOT
BRANCH   1   4
ATOM      2  O   UNL     1       7.803   5.422  17.041  0.00  0.00    +0.000 OA
ATOM      3  C   UNL     1       7.205   6.450  16.839  0.00  0.00    +0.000 C 
ATOM      4  N   UNL     1       6.021   6.571  16.171  0.00  0.00    +0.000 N 
ATOM      5  H   UNL     1       5.601   7.481  16.077  0.00  0.00    +0.000 HD
BRANCH   3   6
ATOM      6  C   UNL     1       7.745   7.781  17.288  0.00  0.00    +0.000 C 
ATOM      7  C   UNL     1       8.254   7.938  18.526  0.00  0.00    +0.000 C 
BRANCH   7   8
ATOM      8  C   UNL     1       8.783   9.210  18.953  0.00  0.00    +0.000 C 
ATOM      9  C   UNL     1       9.083  10.223  18.122  0.00  0.00    +0.000 C 
BRANCH   9  10
ATOM     10  C   UNL     1       9.641  11.499  18.595  0.00  0.00    +0.000 A 
ATOM     11  C   UNL     1      10.603  11.545  19.634  0.00  0.00    +0.000 A 
ATOM     12  C   UNL     1      11.142  12.756  20.075  0.00  0.00    +0.000 A 
ATOM     13  C   UNL     1      10.710  13.904  19.456  0.00  0.00    +0.000 A 
ATOM     14  C   UNL     1       9.788  13.875  18.436  0.00  0.00    +0.000 A 
ATOM     15  C   UNL     1       9.242  12.692  17.977  0.00  0.00    +0.000 A 
ATOM     16  O   UNL     1       9.503  15.119  17.963  0.00  0.00    +0.000 OA
ATOM     17  C   UNL     1      10.311  15.932  18.838  0.00  0.00    +0.000 C 
ATOM     18  O   UNL     1      11.119  15.166  19.753  0.00  0.00    +0.000 OA
ENDBRANCH   9  10
ENDBRANCH   7   8
ENDBRANCH   3   6
ENDBRANCH   1   4
BRANCH   1  19
ATOM     19  C   UNL     1       4.721   4.551  16.821  0.00  0.00    +0.000 C 
BRANCH  19  20
ATOM     20  N   UNL     1       3.263   4.695  17.041  0.00  0.00    +0.000 N 
ATOM     21  H   UNL     1       2.728   3.869  16.766  0.00  0.00    +0.000 HD
BRANCH  20  22
ATOM     22  C   UNL     1       2.826   5.178  18.310  0.00  0.00    +0.000 A 
ATOM     23  C   UNL     1       2.473   6.532  18.548  0.00  0.00    +0.000 A 
ATOM     24  C   UNL     1       1.962   6.866  19.808  0.00  0.00    +0.000 A 
ATOM     25  N   UNL     1       1.850   5.984  20.823  0.00  0.00    +0.000 NA
ATOM     26  C   UNL     1       2.248   4.725  20.639  0.00  0.00    +0.000 A 
ATOM     27  C   UNL     1       2.116   3.875  21.731  0.00  0.00    +0.000 A 
ATOM     28  C   UNL     1       2.507   2.541  21.681  0.00  0.00    +0.000 A 
ATOM     29  C   UNL     1       3.040   2.042  20.499  0.00  0.00    +0.000 A 
ATOM     30  C   UNL     1       3.166   2.880  19.383  0.00  0.00    +0.000 A 
ATOM     31  C   UNL     1       2.772   4.248  19.415  0.00  0.00    +0.000 A 
ATOM     32  C   UNL     1       1.532   8.269  20.163  0.00  0.00    +0.000 C 
ATOM     33  C   UNL     1       1.407   9.227  18.986  0.00  0.00    +0.000 C 
ATOM     34  C   UNL     1       2.564   9.032  18.036  0.00  0.00    +0.000 C 
ATOM     35  C   UNL     1       2.533   7.614  17.498  0.00  0.00    +0.000 C 
ENDBRANCH  20  22
ENDBRANCH  19  20
ENDBRANCH   1  19
TORSDOF 7
ENDMDL
MODEL 4
REMARK VINA RESULT:      -9.1      1.223      3.423
REMARK  Name = 
REMARK  7 active torsions:
REMARK  status: ('A' for Active; 'I' for Inactive)
REMARK    1  A    between atoms: C_2  and  C_3
REMARK    2  A    between atoms: C_4  and  C_5
REMARK    3  A    between atoms: C_6  and  C_7
REMARK    4  A    between atoms: N_16  and  C_17
REMARK    5  A    between atoms: C_17  and  C_18
REMARK    6  A    between atoms: C_18  and  N_19
REMARK    7  A    between atoms: N_19  and  C_20
REMARK                            x       y       z     vdW  Elec       q    Type
REMARK                         _______ _______ _______ _____ _____    ______ ____
ROOT
ATOM      1  C   UNL     1       6.034   4.551  18.153  0.00  0.00    +0.000 C 
ENDROOT
BRANCH   1   4
ATOM      2  O   UNL     1       7.496   6.028  16.139  0.00  0.00    +0.000 OA
ATOM      3  C   UNL     1       7.094   6.562  17.143  0.00  0.00    +0.000 C 
ATOM      4  N   UNL     1       6.355   5.970  18.126  0.00  0.00    +0.000 N 
ATOM      5  H   UNL     1       6.088   6.510  18.934  0.00  0.00    +0.000 HD
BRANCH   3   6
ATOM      6  C   UNL     1       7.341   8.022  17.416  0.00  0.00    +0.000 C 
ATOM      7  C   UNL     1       8.407   8.418  18.137  0.00  0.00    +0.000 C 
BRANCH   7   8
ATOM      8  C   UNL     1       8.653   9.817  18.389  0.00  0.00    +0.000 C 
ATOM      9  C   UNL     1       9.373  10.285  19.423  0.00  0.00    +0.000 C 
BRANCH   9  10
ATOM     10  C   UNL     1       9.584  11.722  19.657  0.00  0.00    +0.000 A 
ATOM     11  C   UNL     1       9.935  12.218  20.937  0.00  0.00    +0.000 A 
ATOM     12  C   UNL     1      10.148  13.581  21.156  0.00  0.00    +0.000 A 
ATOM     13  C   UNL     1      10.013  14.425  20.080  0.00  0.00    +0.000 A 
ATOM     14  C   UNL     1       9.687  13.956  18.829  0.00  0.00    +0.000 A 
ATOM     15  C   UNL     1       9.476  12.614  18.582  0.00  0.00    +0.000 A 
ATOM     16  O   UNL     1       9.608  14.956  17.909  0.00  0.00    +0.000 OA
ATOM     17  C   UNL     1       9.869  16.108  18.737  0.00  0.00    +0.000 C 
ATOM     18  O   UNL     1      10.178  15.774  20.105  0.00  0.00    +0.000 OA
ENDBRANCH   9  10
ENDBRANCH   7   8
ENDBRANCH   3   6
ENDBRANCH   1   4
BRANCH   1  19
ATOM     19  C   UNL     1       4.910   4.175  17.189  0.00  0.00    +0.000 C 
BRANCH  19  20
ATOM     20  N   UNL     1       3.843   5.199  17.117  0.00  0.00    +0.000 N 
ATOM     21  H   UNL     1       3.232   5.092  16.305  0.00  0.00    +0.000 HD
BRANCH  20  22
ATOM     22  C   UNL     1       3.076   5.445  18.294  0.00  0.00    +0.000 A 
ATOM     23  C   UNL     1       2.724   4.428  19.220  0.00  0.00    +0.000 A 
ATOM     24  C   UNL     1       2.054   4.807  20.389  0.00  0.00    +0.000 A 
ATOM     25  N   UNL     1       1.672   6.076  20.650  0.00  0.00    +0.000 NA
ATOM     26  C   UNL     1       1.929   7.029  19.756  0.00  0.00    +0.000 A 
ATOM     27  C   UNL     1       1.496   8.309  20.083  0.00  0.00    +0.000 A 
ATOM     28  C   UNL     1       1.685   9.394  19.234  0.00  0.00    +0.000 A 
ATOM     29  C   UNL     1       2.334   9.192  18.022  0.00  0.00    +0.000 A 
ATOM     30  C   UNL     1       2.792   7.912  17.681  0.00  0.00    +0.000 A 
ATOM     31  C   UNL     1       2.607   6.790  18.538  0.00  0.00    +0.000 A 
ATOM     32  C   UNL     1       1.654   3.814  21.454  0.00  0.00    +0.000 C 
ATOM     33  C   UNL     1       2.279   2.432  21.320  0.00  0.00    +0.000 C 
ATOM     34  C   UNL     1       2.273   2.000  19.874  0.00  0.00    +0.000 C 
ATOM     35  C   UNL     1       3.103   2.976  19.060  0.00  0.00    +0.000 C 
ENDBRANCH  20  22
ENDBRANCH  19  20
ENDBRANCH   1  19
TORSDOF 7
ENDMDL
MODEL 5
REMARK VINA RESULT:      -8.9      1.448      1.944
REMARK  Name = 
REMARK  7 active torsions:
REMARK  status: ('A' for Active; 'I' for Inactive)
REMARK    1  A    between atoms: C_2  and  C_3
REMARK    2  A    between atoms: C_4  and  C_5
REMARK    3  A    between atoms: C_6  and  C_7
REMARK    4  A    between atoms: N_16  and  C_17
REMARK    5  A    between atoms: C_17  and  C_18
REMARK    6  A    between atoms: C_18  and  N_19
REMARK    7  A    between atoms: N_19  and  C_20
REMARK                            x       y       z     vdW  Elec       q    Type
REMARK                         _______ _______ _______ _____ _____    ______ ____
ROOT
ATOM      1  C   UNL     1       5.852   6.301  17.539  0.00  0.00    +0.000 C 
ENDROOT
BRANCH   1   4
ATOM      2  O   UNL     1       8.347   6.989  18.832  0.00  0.00    +0.000 OA
ATOM      3  C   UNL     1       7.795   7.756  18.081  0.00  0.00    +0.000 C 
ATOM      4  N   UNL     1       6.647   7.510  17.385  0.00  0.00    +0.000 N 
ATOM      5  H   UNL     1       6.264   8.233  16.798  0.00  0.00    +0.000 HD
BRANCH   3   6
ATOM      6  C   UNL     1       8.362   9.118  17.784  0.00  0.00    +0.000 C 
ATOM      7  C   UNL     1       9.093   9.778  18.703  0.00  0.00    +0.000 C 
BRANCH   7   8
ATOM      8  C   UNL     1       9.646  11.079  18.416  0.00  0.00    +0.000 C 
ATOM      9  C   UNL     1       8.911  12.182  18.197  0.00  0.00    +0.000 C 
BRANCH   9  10
ATOM     10  C   UNL     1       9.513  13.488  17.886  0.00  0.00    +0.000 A 
ATOM     11  C   UNL     1      10.789  13.587  17.278  0.00  0.00    +0.000 A 
ATOM     12  C   UNL     1      11.355  14.826  16.971  0.00  0.00    +0.000 A 
ATOM     13  C   UNL     1      10.624  15.949  17.273  0.00  0.00    +0.000 A 
ATOM     14  C   UNL     1       9.378  15.869  17.850  0.00  0.00    +0.000 A 
ATOM     15  C   UNL     1       8.791  14.658  18.159  0.00  0.00    +0.000 A 
ATOM     16  O   UNL     1       8.828  17.096  18.061  0.00  0.00    +0.000 OA
ATOM     17  C   UNL     1       9.892  17.953  17.600  0.00  0.00    +0.000 C 
ATOM     18  O   UNL     1      11.013  17.233  17.051  0.00  0.00    +0.000 OA
ENDBRANCH   9  10
ENDBRANCH   7   8
ENDBRANCH   3   6
ENDBRANCH   1   4
BRANCH   1  19
ATOM     19  C   UNL     1       4.742   6.180  16.497  0.00  0.00    +0.000 C 
BRANCH  19  20
ATOM     20  N   UNL     1       3.593   5.372  16.968  0.00  0.00    +0.000 N 
ATOM     21  H   UNL     1       3.746   4.366  16.892  0.00  0.00    +0.000 HD
BRANCH  20  22
ATOM     22  C   UNL     1       3.024   5.700  18.235  0.00  0.00    +0.000 A 
ATOM     23  C   UNL     1       2.507   6.985  18.547  0.00  0.00    +0.000 A 
ATOM     24  C   UNL     1       1.884   7.158  19.788  0.00  0.00    +0.000 A 
ATOM     25  N   UNL     1       1.807   6.188  20.724  0.00  0.00    +0.000 NA
ATOM     26  C   UNL     1       2.354   4.999  20.476  0.00  0.00    +0.000 A 
ATOM     27  C   UNL     1       2.249   4.053  21.489  0.00  0.00    +0.000 A 
ATOM     28  C   UNL     1       2.789   2.777  21.368  0.00  0.00    +0.000 A 
ATOM     29  C   UNL     1       3.449   2.436  20.193  0.00  0.00    +0.000 A 
ATOM     30  C   UNL     1       3.551   3.372  19.155  0.00  0.00    +0.000 A 
ATOM     31  C   UNL     1       3.005   4.682  19.261  0.00  0.00    +0.000 A 
ATOM     32  C   UNL     1       1.277   8.474  20.215  0.00  0.00    +0.000 C 
ATOM     33  C   UNL     1       1.121   9.506  19.107  0.00  0.00    +0.000 C 
ATOM     34  C   UNL     1       2.351   9.514  18.231  0.00  0.00    +0.000 C 
ATOM     35  C   UNL     1       2.513   8.150  17.588  0.00  0.00    +0.000 C 
ENDBRANCH  20  22
ENDBRANCH  19  20
ENDBRANCH   1  19
TORSDOF 7
ENDMDL
MODEL 6
REMARK VINA RESULT:      -8.9      1.095      1.155
REMARK  Name = 
REMARK  7 active torsions:
REMARK  status: ('A' for Active; 'I' for Inactive)
REMARK    1  A    between atoms: C_2  and  C_3
REMARK    2  A    between atoms: C_4  and  C_5
REMARK    3  A    between atoms: C_6  and  C_7
REMARK    4  A    between atoms: N_16  and  C_17
REMARK    5  A    between atoms: C_17  and  C_18
REMARK    6  A    between atoms: C_18  and  N_19
REMARK    7  A    between atoms: N_19  and  C_20
REMARK                            x       y       z     vdW  Elec       q    Type
REMARK                         _______ _______ _______ _____ _____    ______ ____
ROOT
ATOM      1  C   UNL     1       5.555   3.915  17.010  0.00  0.00    +0.000 C 
ENDROOT
BRANCH   1   4
ATOM      2  O   UNL     1       8.219   4.276  18.078  0.00  0.00    +0.000 OA
ATOM      3  C   UNL     1       7.468   5.209  17.934  0.00  0.00    +0.000 C 
ATOM      4  N   UNL     1       6.215   5.153  17.395  0.00  0.00    +0.000 N 
ATOM      5  H   UNL     1       5.666   5.996  17.339  0.00  0.00    +0.000 HD
BRANCH   3   6
ATOM      6  C   UNL     1       7.864   6.610  18.314  0.00  0.00    +0.000 C 
ATOM      7  C   UNL     1       7.615   7.646  17.490  0.00  0.00    +0.000 C 
BRANCH   7   8
ATOM      8  C   UNL     1       7.983   8.991  17.859  0.00  0.00    +0.000 C 
ATOM      9  C   UNL     1       8.875   9.295  18.818  0.00  0.00    +0.000 C 
BRANCH   9  10
ATOM     10  C   UNL     1       9.209  10.682  19.179  0.00  0.00    +0.000 A 
ATOM     11  C   UNL     1       9.624  11.024  20.490  0.00  0.00    +0.000 A 
ATOM     12  C   UNL     1       9.954  12.338  20.829  0.00  0.00    +0.000 A 
ATOM     13  C   UNL     1       9.869  13.288  19.840  0.00  0.00    +0.000 A 
ATOM     14  C   UNL     1       9.482  12.969  18.560  0.00  0.00    +0.000 A 
ATOM     15  C   UNL     1       9.155  11.678  18.195  0.00  0.00    +0.000 A 
ATOM     16  O   UNL     1       9.468  14.055  17.740  0.00  0.00    +0.000 OA
ATOM     17  C   UNL     1       9.840  15.098  18.665  0.00  0.00    +0.000 C 
ATOM     18  O   UNL     1      10.146  14.612  19.987  0.00  0.00    +0.000 OA
ENDBRANCH   9  10
ENDBRANCH   7   8
ENDBRANCH   3   6
ENDBRANCH   1   4
BRANCH   1  19
ATOM     19  C   UNL     1       4.040   4.060  16.882  0.00  0.00    +0.000 C 
BRANCH  19  20
ATOM     20  N   UNL     1       3.572   5.449  17.096  0.00  0.00    +0.000 N 
ATOM     21  H   UNL     1       3.011   5.812  16.324  0.00  0.00    +0.000 HD
BRANCH  20  22
ATOM     22  C   UNL     1       2.965   5.761  18.349  0.00  0.00    +0.000 A 
ATOM     23  C   UNL     1       2.458   7.048  18.669  0.00  0.00    +0.000 A 
ATOM     24  C   UNL     1       1.795   7.206  19.892  0.00  0.00    +0.000 A 
ATOM     25  N   UNL     1       1.670   6.220  20.805  0.00  0.00    +0.000 NA
ATOM     26  C   UNL     1       2.207   5.027  20.551  0.00  0.00    +0.000 A 
ATOM     27  C   UNL     1       2.051   4.062  21.540  0.00  0.00    +0.000 A 
ATOM     28  C   UNL     1       2.575   2.780  21.411  0.00  0.00    +0.000 A 
ATOM     29  C   UNL     1       3.270   2.452  20.254  0.00  0.00    +0.000 A 
ATOM     30  C   UNL     1       3.423   3.407  19.239  0.00  0.00    +0.000 A 
ATOM     31  C   UNL     1       2.894   4.723  19.353  0.00  0.00    +0.000 A 
ATOM     32  C   UNL     1       1.194   8.523  20.324  0.00  0.00    +0.000 C 
ATOM     33  C   UNL     1       1.093   9.580  19.232  0.00  0.00    +0.000 C 
ATOM     34  C   UNL     1       2.352   9.585  18.400  0.00  0.00    +0.000 C 
ATOM     35  C   UNL     1       2.515   8.231  17.735  0.00  0.00    +0.000 C 
ENDBRANCH  20  22
ENDBRANCH  19  20
ENDBRANCH   1  19
TORSDOF 7
ENDMDL
MODEL 7
REMARK VINA RESULT:      -8.9      1.379      1.553
REMARK  Name = 
REMARK  7 active torsions:
REMARK  status: ('A' for Active; 'I' for Inactive)
REMARK    1  A    between atoms: C_2  and  C_3
REMARK    2  A    between atoms: C_4  and  C_5
REMARK    3  A    between atoms: C_6  and  C_7
REMARK    4  A    between atoms: N_16  and  C_17
REMARK    5  A    between atoms: C_17  and  C_18
REMARK    6  A    between atoms: C_18  and  N_19
REMARK    7  A    between atoms: N_19  and  C_20
REMARK                            x       y       z     vdW  Elec       q    Type
REMARK                         _______ _______ _______ _____ _____    ______ ____
ROOT
ATOM      1  C   UNL     1       6.589   4.984  15.922  0.00  0.00    +0.000 C 
ENDROOT
BRANCH   1   4
ATOM      2  O   UNL     1       7.391   5.279  18.687  0.00  0.00    +0.000 OA
ATOM      3  C   UNL     1       7.581   6.155  17.879  0.00  0.00    +0.000 C 
ATOM      4  N   UNL     1       7.287   6.097  16.548  0.00  0.00    +0.000 N 
ATOM      5  H   UNL     1       7.473   6.899  15.968  0.00  0.00    +0.000 HD
BRANCH   3   6
ATOM      6  C   UNL     1       8.230   7.458  18.264  0.00  0.00    +0.000 C 
ATOM      7  C   UNL     1       7.820   8.621  17.722  0.00  0.00    +0.000 C 
BRANCH   7   8
ATOM      8  C   UNL     1       8.433   9.871  18.099  0.00  0.00    +0.000 C 
ATOM      9  C   UNL     1       9.345  10.001  19.079  0.00  0.00    +0.000 C 
BRANCH   9  10
ATOM     10  C   UNL     1       9.932  11.298  19.447  0.00  0.00    +0.000 A 
ATOM     11  C   UNL     1      11.336  11.481  19.514  0.00  0.00    +0.000 A 
ATOM     12  C   UNL     1      11.894  12.717  19.851  0.00  0.00    +0.000 A 
ATOM     13  C   UNL     1      11.030  13.754  20.107  0.00  0.00    +0.000 A 
ATOM     14  C   UNL     1       9.666  13.596  20.032  0.00  0.00    +0.000 A 
ATOM     15  C   UNL     1       9.086  12.388  19.696  0.00  0.00    +0.000 A 
ATOM     16  O   UNL     1       8.997  14.746  20.319  0.00  0.00    +0.000 OA
ATOM     17  C   UNL     1      10.095  15.626  20.634  0.00  0.00    +0.000 C 
ATOM     18  O   UNL     1      11.390  15.019  20.452  0.00  0.00    +0.000 OA
ENDBRANCH   9  10
ENDBRANCH   7   8
ENDBRANCH   3   6
ENDBRANCH   1   4
BRANCH   1  19
ATOM     19  C   UNL     1       5.108   4.923  16.291  0.00  0.00    +0.000 C 
BRANCH  19  20
ATOM     20  N   UNL     1       4.861   4.227  17.575  0.00  0.00    +0.000 N 
ATOM     21  H   UNL     1       5.717   3.959  18.063  0.00  0.00    +0.000 HD
BRANCH  20  22
ATOM     22  C   UNL     1       3.928   4.813  18.481  0.00  0.00    +0.000 A 
ATOM     23  C   UNL     1       3.444   6.141  18.349  0.00  0.00    +0.000 A 
ATOM     24  C   UNL     1       2.455   6.571  19.241  0.00  0.00    +0.000 A 
ATOM     25  N   UNL     1       1.987   5.814  20.256  0.00  0.00    +0.000 NA
ATOM     26  C   UNL     1       2.485   4.592  20.438  0.00  0.00    +0.000 A 
ATOM     27  C   UNL     1       1.967   3.873  21.509  0.00  0.00    +0.000 A 
ATOM     28  C   UNL     1       2.408   2.591  21.823  0.00  0.00    +0.000 A 
ATOM     29  C   UNL     1       3.394   2.011  21.036  0.00  0.00    +0.000 A 
ATOM     30  C   UNL     1       3.918   2.714  19.943  0.00  0.00    +0.000 A 
ATOM     31  C   UNL     1       3.479   4.025  19.607  0.00  0.00    +0.000 A 
ATOM     32  C   UNL     1       1.851   7.954  19.178  0.00  0.00    +0.000 C 
ATOM     33  C   UNL     1       2.164   8.742  17.912  0.00  0.00    +0.000 C 
ATOM     34  C   UNL     1       3.613   8.555  17.533  0.00  0.00    +0.000 C 
ATOM     35  C   UNL     1       3.869   7.086  17.252  0.00  0.00    +0.000 C 
ENDBRANCH  20  22
ENDBRANCH  19  20
ENDBRANCH   1  19
TORSDOF 7
ENDMDL
MODEL 8
REMARK VINA RESULT:      -8.7      1.292      1.627
REMARK  Name = 
REMARK  7 active torsions:
REMARK  status: ('A' for Active; 'I' for Inactive)
REMARK    1  A    between atoms: C_2  and  C_3
REMARK    2  A    between atoms: C_4  and  C_5
REMARK    3  A    between atoms: C_6  and  C_7
REMARK    4  A    between atoms: N_16  and  C_17
REMARK    5  A    between atoms: C_17  and  C_18
REMARK    6  A    between atoms: C_18  and  N_19
REMARK    7  A    between atoms: N_19  and  C_20
REMARK                            x       y       z     vdW  Elec       q    Type
REMARK                         _______ _______ _______ _____ _____    ______ ____
ROOT
ATOM      1  C   UNL     1       6.956   4.839  16.522  0.00  0.00    +0.000 C 
ENDROOT
BRANCH   1   4
ATOM      2  O   UNL     1       7.636   6.357  18.889  0.00  0.00    +0.000 OA
ATOM      3  C   UNL     1       7.518   6.890  17.812  0.00  0.00    +0.000 C 
ATOM      4  N   UNL     1       7.250   6.260  16.632  0.00  0.00    +0.000 N 
ATOM      5  H   UNL     1       7.154   6.809  15.793  0.00  0.00    +0.000 HD
BRANCH   3   6
ATOM      6  C   UNL     1       7.701   8.373  17.639  0.00  0.00    +0.000 C 
ATOM      7  C   UNL     1       8.713   9.021  18.249  0.00  0.00    +0.000 C 
BRANCH   7   8
ATOM      8  C   UNL     1       8.897  10.441  18.073  0.00  0.00    +0.000 C 
ATOM      9  C   UNL     1       9.667  11.207  18.865  0.00  0.00    +0.000 C 
BRANCH   9  10
ATOM     10  C   UNL     1       9.813  12.657  18.665  0.00  0.00    +0.000 A 
ATOM     11  C   UNL     1       8.699  13.476  18.353  0.00  0.00    +0.000 A 
ATOM     12  C   UNL     1       8.836  14.855  18.177  0.00  0.00    +0.000 A 
ATOM     13  C   UNL     1      10.092  15.391  18.326  0.00  0.00    +0.000 A 
ATOM     14  C   UNL     1      11.180  14.612  18.643  0.00  0.00    +0.000 A 
ATOM     15  C   UNL     1      11.074  13.248  18.829  0.00  0.00    +0.000 A 
ATOM     16  O   UNL     1      12.324  15.341  18.746  0.00  0.00    +0.000 OA
ATOM     17  C   UNL     1      11.838  16.656  18.406  0.00  0.00    +0.000 C 
ATOM     18  O   UNL     1      10.415  16.705  18.189  0.00  0.00    +0.000 OA
ENDBRANCH   9  10
ENDBRANCH   7   8
ENDBRANCH   3   6
ENDBRANCH   1   4
BRANCH   1  19
ATOM     19  C   UNL     1       6.259   4.275  17.758  0.00  0.00    +0.000 C 
BRANCH  19  20
ATOM     20  N   UNL     1       4.812   4.035  17.547  0.00  0.00    +0.000 N 
ATOM     21  H   UNL     1       4.576   3.048  17.439  0.00  0.00    +0.000 HD
BRANCH  20  22
ATOM     22  C   UNL     1       3.896   4.678  18.432  0.00  0.00    +0.000 A 
ATOM     23  C   UNL     1       3.453   6.015  18.257  0.00  0.00    +0.000 A 
ATOM     24  C   UNL     1       2.476   6.503  19.132  0.00  0.00    +0.000 A 
ATOM     25  N   UNL     1       1.983   5.793  20.169  0.00  0.00    +0.000 NA
ATOM     26  C   UNL     1       2.444   4.562  20.392  0.00  0.00    +0.000 A 
ATOM     27  C   UNL     1       1.902   3.893  21.483  0.00  0.00    +0.000 A 
ATOM     28  C   UNL     1       2.303   2.610  21.838  0.00  0.00    +0.000 A 
ATOM     29  C   UNL     1       3.273   1.975  21.073  0.00  0.00    +0.000 A 
ATOM     30  C   UNL     1       3.820   2.627  19.959  0.00  0.00    +0.000 A 
ATOM     31  C   UNL     1       3.422   3.940  19.581  0.00  0.00    +0.000 A 
ATOM     32  C   UNL     1       1.915   7.901  19.024  0.00  0.00    +0.000 C 
ATOM     33  C   UNL     1       2.254   8.639  17.735  0.00  0.00    +0.000 C 
ATOM     34  C   UNL     1       3.697   8.396  17.366  0.00  0.00    +0.000 C 
ATOM     35  C   UNL     1       3.909   6.912  17.132  0.00  0.00    +0.000 C 
ENDBRANCH  20  22
ENDBRANCH  19  20
ENDBRANCH   1  19
TORSDOF 7
ENDMDL
MODEL 9
REMARK VINA RESULT:      -8.6      7.118     10.964
REMARK  Name = 
REMARK  7 active torsions:
REMARK  status: ('A' for Active; 'I' for Inactive)
REMARK    1  A    between atoms: C_2  and  C_3
REMARK    2  A    between atoms: C_4  and  C_5
REMARK    3  A    between atoms: C_6  and  C_7
REMARK    4  A    between atoms: N_16  and  C_17
REMARK    5  A    between atoms: C_17  and  C_18
REMARK    6  A    between atoms: C_18  and  N_19
REMARK    7  A    between atoms: N_19  and  C_20
REMARK                            x       y       z     vdW  Elec       q    Type
REMARK                         _______ _______ _______ _____ _____    ______ ____
ROOT
ATOM      1  C   UNL     1      -0.673  12.773  21.165  0.00  0.00    +0.000 C 
ENDROOT
BRANCH   1   4
ATOM      2  O   UNL     1      -0.242  10.719  23.157  0.00  0.00    +0.000 OA
ATOM      3  C   UNL     1      -0.183  10.473  21.977  0.00  0.00    +0.000 C 
ATOM      4  N   UNL     1      -0.418  11.355  20.962  0.00  0.00    +0.000 N 
ATOM      5  H   UNL     1      -0.322  11.044  20.009  0.00  0.00    +0.000 HD
BRANCH   3   6
ATOM      6  C   UNL     1       0.133   9.091  21.471  0.00  0.00    +0.000 C 
ATOM      7  C   UNL     1       1.249   8.857  20.754  0.00  0.00    +0.000 C 
BRANCH   7   8
ATOM      8  C   UNL     1       1.559   7.530  20.279  0.00  0.00    +0.000 C 
ATOM      9  C   UNL     1       1.513   6.424  21.041  0.00  0.00    +0.000 C 
BRANCH   9  10
ATOM     10  C   UNL     1       1.856   5.090  20.524  0.00  0.00    +0.000 A 
ATOM     11  C   UNL     1       0.855   4.137  20.215  0.00  0.00    +0.000 A 
ATOM     12  C   UNL     1       1.181   2.875  19.711  0.00  0.00    +0.000 A 
ATOM     13  C   UNL     1       2.512   2.595  19.519  0.00  0.00    +0.000 A 
ATOM     14  C   UNL     1       3.495   3.514  19.801  0.00  0.00    +0.000 A 
ATOM     15  C   UNL     1       3.202   4.770  20.294  0.00  0.00    +0.000 A 
ATOM     16  O   UNL     1       4.740   3.035  19.536  0.00  0.00    +0.000 OA
ATOM     17  C   UNL     1       4.428   1.694  19.106  0.00  0.00    +0.000 C 
ATOM     18  O   UNL     1       3.014   1.424  19.043  0.00  0.00    +0.000 OA
ENDBRANCH   9  10
ENDBRANCH   7   8
ENDBRANCH   3   6
ENDBRANCH   1   4
BRANCH   1  19
ATOM     19  C   UNL     1      -1.971  13.246  20.515  0.00  0.00    +0.000 C 
BRANCH  19  20
ATOM     20  N   UNL     1      -3.021  12.201  20.491  0.00  0.00    +0.000 N 
ATOM     21  H   UNL     1      -3.555  12.143  21.360  0.00  0.00    +0.000 HD
BRANCH  20  22
ATOM     22  C   UNL     1      -3.890  12.157  19.362  0.00  0.00    +0.000 A 
ATOM     23  C   UNL     1      -5.172  12.767  19.342  0.00  0.00    +0.000 A 
ATOM     24  C   UNL     1      -5.892  12.743  18.142  0.00  0.00    +0.000 A 
ATOM     25  N   UNL     1      -5.461  12.115  17.027  0.00  0.00    +0.000 NA
ATOM     26  C   UNL     1      -4.294  11.473  17.053  0.00  0.00    +0.000 A 
ATOM     27  C   UNL     1      -3.918  10.838  15.874  0.00  0.00    +0.000 A 
ATOM     28  C   UNL     1      -2.732  10.119  15.767  0.00  0.00    +0.000 A 
ATOM     29  C   UNL     1      -1.894  10.039  16.872  0.00  0.00    +0.000 A 
ATOM     30  C   UNL     1      -2.249  10.686  18.064  0.00  0.00    +0.000 A 
ATOM     31  C   UNL     1      -3.458  11.425  18.192  0.00  0.00    +0.000 A 
ATOM     32  C   UNL     1      -7.253  13.382  17.999  0.00  0.00    +0.000 C 
ATOM     33  C   UNL     1      -7.660  14.304  19.141  0.00  0.00    +0.000 C 
ATOM     34  C   UNL     1      -7.272  13.690  20.464  0.00  0.00    +0.000 C 
ATOM     35  C   UNL     1      -5.765  13.516  20.510  0.00  0.00    +0.000 C 
ENDBRANCH  20  22
ENDBRANCH  19  20
ENDBRANCH   1  19
TORSDOF 7
ENDMDL
