MODEL 1
REMARK VINA RESULT:      -8.2      0.000      0.000
REMARK  Name = 
REMARK  9 active torsions:
REMARK  status: ('A' for Active; 'I' for Inactive)
REMARK    1  A    between atoms: C_1  and  C_2
REMARK    2  A    between atoms: C_2  and  O_3
REMARK    3  A    between atoms: O_3  and  C_4
REMARK    4  A    between atoms: C_4  and  C_6
REMARK    5  A    between atoms: C_10  and  C_11
REMARK    6  A    between atoms: C_13  and  C_14
REMARK    7  A    between atoms: N_16  and  C_17
REMARK    8  A    between atoms: C_17  and  C_18
REMARK    9  A    between atoms: C_25  and  C_26
REMARK                            x       y       z     vdW  Elec       q    Type
REMARK                         _______ _______ _______ _____ _____    ______ ____
ROOT
ATOM      1  C   UNL     1       3.309   5.984  19.450  0.00  0.00    +0.000 A 
ATOM      2  N   UNL     1       2.779   7.265  19.475  0.00  0.00    +0.000 NA
ATOM      3  C   UNL     1       1.750   7.229  20.308  0.00  0.00    +0.000 A 
ATOM      4  N   UNL     1       1.621   5.968  20.836  0.00  0.00    +0.000 N 
ATOM      5  C   UNL     1       2.588   5.159  20.300  0.00  0.00    +0.000 A 
ATOM      6  C   UNL     1       2.711   3.728  20.666  0.00  0.00    +0.000 C 
ATOM      7  H   UNL     1       0.954   5.701  21.543  0.00  0.00    +0.000 HD
ENDROOT
BRANCH   1  12
ATOM      8  C   UNL     1       6.673   4.767  14.805  0.00  0.00    +0.000 A 
ATOM      9  C   UNL     1       5.360   5.044  15.146  0.00  0.00    +0.000 A 
ATOM     10  C   UNL     1       5.292   5.157  16.547  0.00  0.00    +0.000 A 
ATOM     11  N   UNL     1       4.229   5.489  17.305  0.00  0.00    +0.000 NA
ATOM     12  C   UNL     1       4.460   5.582  18.634  0.00  0.00    +0.000 A 
ATOM     13  C   UNL     1       5.701   5.338  19.224  0.00  0.00    +0.000 A 
ATOM     14  C   UNL     1       6.799   4.981  18.432  0.00  0.00    +0.000 A 
ATOM     15  C   UNL     1       6.555   4.903  17.062  0.00  0.00    +0.000 A 
ATOM     16  N   UNL     1       7.370   4.621  15.989  0.00  0.00    +0.000 N 
ATOM     17  H   UNL     1       8.359   4.418  16.041  0.00  0.00    +0.000 HD
BRANCH   8  18
ATOM     18  C   UNL     1       7.297   4.710  13.509  0.00  0.00    +0.000 C 
ATOM     19  O   UNL     1       7.974   5.603  13.022  0.00  0.00    +0.000 OA
BRANCH  18  20
ATOM     20  O   UNL     1       6.896   3.576  12.872  0.00  0.00    +0.000 OA
BRANCH  20  22
ATOM     21  C   UNL     1       4.797   3.119  11.824  0.00  0.00    +0.000 C 
ATOM     22  C   UNL     1       6.161   3.767  11.658  0.00  0.00    +0.000 C 
ENDBRANCH  20  22
ENDBRANCH  18  20
ENDBRANCH   8  18
ENDBRANCH   1  12
BRANCH   3  23
ATOM     23  C   UNL     1       0.915   8.370  20.663  0.00  0.00    +0.000 C 
ATOM     24  O   UNL     1       0.141   8.390  21.619  0.00  0.00    +0.000 OA
ATOM     25  N   UNL     1       1.039   9.459  19.809  0.00  0.00    +0.000 N 
ATOM     26  H   UNL     1       1.855   9.524  19.221  0.00  0.00    +0.000 HD
BRANCH  25  27
ATOM     27  C   UNL     1       0.251  10.656  19.987  0.00  0.00    +0.000 C 
BRANCH  27  28
ATOM     28  C   UNL     1      -0.897  10.746  19.018  0.00  0.00    +0.000 A 
ATOM     29  C   UNL     1      -0.926   9.986  17.846  0.00  0.00    +0.000 A 
ATOM     30  C   UNL     1      -2.036  10.083  17.016  0.00  0.00    +0.000 A 
ATOM     31  N   UNL     1      -3.098  10.877  17.269  0.00  0.00    +0.000 NA
ATOM     32  C   UNL     1      -3.044  11.616  18.398  0.00  0.00    +0.000 A 
ATOM     33  C   UNL     1      -1.981  11.587  19.285  0.00  0.00    +0.000 A 
ENDBRANCH  27  28
ENDBRANCH  25  27
ENDBRANCH   3  23
TORSDOF 7
ENDMDL
MODEL 2
REMARK VINA RESULT:      -7.9      3.780     10.037
REMARK  Name = 
REMARK  9 active torsions:
REMARK  status: ('A' for Active; 'I' for Inactive)
REMARK    1  A    between atoms: C_1  and  C_2
REMARK    2  A    between atoms: C_2  and  O_3
REMARK    3  A    between atoms: O_3  and  C_4
REMARK    4  A    between atoms: C_4  and  C_6
REMARK    5  A    between atoms: C_10  and  C_11
REMARK    6  A    between atoms: C_13  and  C_14
REMARK    7  A    between atoms: N_16  and  C_17
REMARK    8  A    between atoms: C_17  and  C_18
REMARK    9  A    between atoms: C_25  and  C_26
REMARK                            x       y       z     vdW  Elec       q    Type
REMARK                         _______ _______ _______ _____ _____    ______ ____
ROOT
ATOM      1  C   UNL     1       1.109   9.298  19.780  0.00  0.00    +0.000 A 
ATOM      2  N   UNL     1       1.730   8.471  18.857  0.00  0.00    +0.000 NA
ATOM      3  C   UNL     1       2.179   7.424  19.532  0.00  0.00    +0.000 A 
ATOM      4  N   UNL     1       1.842   7.544  20.858  0.00  0.00    +0.000 N 
ATOM      5  C   UNL     1       1.176   8.726  21.043  0.00  0.00    +0.000 A 
ATOM      6  C   UNL     1       0.682   9.155  22.374  0.00  0.00    +0.000 C 
ATOM      7  H   UNL     1       2.014   6.847  21.565  0.00  0.00    +0.000 HD
ENDROOT
BRANCH   1  12
ATOM      8  C   UNL     1       0.316  15.057  19.024  0.00  0.00    +0.000 A 
ATOM      9  C   UNL     1       1.200  14.152  19.589  0.00  0.00    +0.000 A 
ATOM     10  C   UNL     1       0.656  12.864  19.434  0.00  0.00    +0.000 A 
ATOM     11  N   UNL     1       1.208  11.681  19.768  0.00  0.00    +0.000 NA
ATOM     12  C   UNL     1       0.485  10.583  19.450  0.00  0.00    +0.000 A 
ATOM     13  C   UNL     1      -0.765  10.630  18.832  0.00  0.00    +0.000 A 
ATOM     14  C   UNL     1      -1.339  11.863  18.498  0.00  0.00    +0.000 A 
ATOM     15  C   UNL     1      -0.581  12.988  18.816  0.00  0.00    +0.000 A 
ATOM     16  N   UNL     1      -0.789  14.334  18.619  0.00  0.00    +0.000 N 
ATOM     17  H   UNL     1      -1.596  14.743  18.164  0.00  0.00    +0.000 HD
BRANCH   8  18
ATOM     18  C   UNL     1       0.469  16.468  18.786  0.00  0.00    +0.000 C 
ATOM     19  O   UNL     1       1.273  17.189  19.358  0.00  0.00    +0.000 OA
BRANCH  18  20
ATOM     20  O   UNL     1      -0.510  16.884  17.936  0.00  0.00    +0.000 OA
BRANCH  20  22
ATOM     21  C   UNL     1       0.372  18.429  16.340  0.00  0.00    +0.000 C 
ATOM     22  C   UNL     1      -0.485  18.272  17.584  0.00  0.00    +0.000 C 
ENDBRANCH  20  22
ENDBRANCH  18  20
ENDBRANCH   8  18
ENDBRANCH   1  12
BRANCH   3  23
ATOM     23  C   UNL     1       2.872   6.281  18.949  0.00  0.00    +0.000 C 
ATOM     24  O   UNL     1       2.513   5.702  17.925  0.00  0.00    +0.000 OA
ATOM     25  N   UNL     1       3.987   5.862  19.664  0.00  0.00    +0.000 N 
ATOM     26  H   UNL     1       4.412   6.500  20.319  0.00  0.00    +0.000 HD
BRANCH  25  27
ATOM     27  C   UNL     1       4.764   4.715  19.254  0.00  0.00    +0.000 C 
BRANCH  27  28
ATOM     28  C   UNL     1       5.693   5.022  18.111  0.00  0.00    +0.000 A 
ATOM     29  C   UNL     1       5.695   4.255  16.943  0.00  0.00    +0.000 A 
ATOM     30  C   UNL     1       6.547   4.618  15.908  0.00  0.00    +0.000 A 
ATOM     31  N   UNL     1       7.387   5.673  15.960  0.00  0.00    +0.000 NA
ATOM     32  C   UNL     1       7.384   6.392  17.103  0.00  0.00    +0.000 A 
ATOM     33  C   UNL     1       6.572   6.107  18.188  0.00  0.00    +0.000 A 
ENDBRANCH  27  28
ENDBRANCH  25  27
ENDBRANCH   3  23
TORSDOF 7
ENDMDL
MODEL 3
REMARK VINA RESULT:      -7.8      1.141      1.224
REMARK  Name = 
REMARK  9 active torsions:
REMARK  status: ('A' for Active; 'I' for Inactive)
REMARK    1  A    between atoms: C_1  and  C_2
REMARK    2  A    between atoms: C_2  and  O_3
REMARK    3  A    between atoms: O_3  and  C_4
REMARK    4  A    between atoms: C_4  and  C_6
REMARK    5  A    between atoms: C_10  and  C_11
REMARK    6  A    between atoms: C_13  and  C_14
REMARK    7  A    between atoms: N_16  and  C_17
REMARK    8  A    between atoms: C_17  and  C_18
REMARK    9  A    between atoms: C_25  and  C_26
REMARK                            x       y       z     vdW  Elec       q    Type
REMARK                         _______ _______ _______ _____ _____    ______ ____
ROOT
ATOM      1  C   UNL     1       2.576   5.996  19.545  0.00  0.00    +0.000 A 
ATOM      2  N   UNL     1       2.266   7.341  19.423  0.00  0.00    +0.000 NA
ATOM      3  C   UNL     1       1.550   7.662  20.490  0.00  0.00    +0.000 A 
ATOM      4  N   UNL     1       1.414   6.565  21.306  0.00  0.00    +0.000 N 
ATOM      5  C   UNL     1       2.043   5.497  20.725  0.00  0.00    +0.000 A 
ATOM      6  C   UNL     1       2.070   4.156  21.358  0.00  0.00    +0.000 C 
ATOM      7  H   UNL     1       0.968   6.567  22.210  0.00  0.00    +0.000 HD
ENDROOT
BRANCH   1  12
ATOM      8  C   UNL     1       6.138   4.703  15.072  0.00  0.00    +0.000 A 
ATOM      9  C   UNL     1       5.484   5.773  15.659  0.00  0.00    +0.000 A 
ATOM     10  C   UNL     1       4.701   5.274  16.716  0.00  0.00    +0.000 A 
ATOM     11  N   UNL     1       3.959   5.966  17.602  0.00  0.00    +0.000 NA
ATOM     12  C   UNL     1       3.349   5.233  18.560  0.00  0.00    +0.000 A 
ATOM     13  C   UNL     1       3.442   3.843  18.649  0.00  0.00    +0.000 A 
ATOM     14  C   UNL     1       4.205   3.128  17.718  0.00  0.00    +0.000 A 
ATOM     15  C   UNL     1       4.842   3.894  16.743  0.00  0.00    +0.000 A 
ATOM     16  N   UNL     1       5.682   3.562  15.705  0.00  0.00    +0.000 N 
ATOM     17  H   UNL     1       5.997   2.627  15.480  0.00  0.00    +0.000 HD
BRANCH   8  18
ATOM     18  C   UNL     1       7.163   4.690  14.062  0.00  0.00    +0.000 C 
ATOM     19  O   UNL     1       7.939   5.609  13.845  0.00  0.00    +0.000 OA
BRANCH  18  20
ATOM     20  O   UNL     1       7.034   3.563  13.311  0.00  0.00    +0.000 OA
BRANCH  20  22
ATOM     21  C   UNL     1       5.111   3.291  11.918  0.00  0.00    +0.000 C 
ATOM     22  C   UNL     1       6.556   3.753  11.975  0.00  0.00    +0.000 C 
ENDBRANCH  20  22
ENDBRANCH  18  20
ENDBRANCH   8  18
ENDBRANCH   1  12
BRANCH   3  23
ATOM     23  C   UNL     1       1.036   8.993  20.791  0.00  0.00    +0.000 C 
ATOM     24  O   UNL     1       0.604   9.335  21.890  0.00  0.00    +0.000 OA
ATOM     25  N   UNL     1       1.047   9.867  19.712  0.00  0.00    +0.000 N 
ATOM     26  H   UNL     1       1.643   9.663  18.926  0.00  0.00    +0.000 HD
BRANCH  25  27
ATOM     27  C   UNL     1       0.530  11.212  19.822  0.00  0.00    +0.000 C 
BRANCH  27  28
ATOM     28  C   UNL     1      -0.897  11.326  19.360  0.00  0.00    +0.000 A 
ATOM     29  C   UNL     1      -1.404  10.516  18.340  0.00  0.00    +0.000 A 
ATOM     30  C   UNL     1      -2.742  10.641  17.991  0.00  0.00    +0.000 A 
ATOM     31  N   UNL     1      -3.594  11.508  18.577  0.00  0.00    +0.000 NA
ATOM     32  C   UNL     1      -3.084  12.294  19.548  0.00  0.00    +0.000 A 
ATOM     33  C   UNL     1      -1.763  12.243  19.963  0.00  0.00    +0.000 A 
ENDBRANCH  27  28
ENDBRANCH  25  27
ENDBRANCH   3  23
TORSDOF 7
ENDMDL
MODEL 4
REMARK VINA RESULT:      -7.8      2.749      3.985
REMARK  Name = 
REMARK  9 active torsions:
REMARK  status: ('A' for Active; 'I' for Inactive)
REMARK    1  A    between atoms: C_1  and  C_2
REMARK    2  A    between atoms: C_2  and  O_3
REMARK    3  A    between atoms: O_3  and  C_4
REMARK    4  A    between atoms: C_4  and  C_6
REMARK    5  A    between atoms: C_10  and  C_11
REMARK    6  A    between atoms: C_13  and  C_14
REMARK    7  A    between atoms: N_16  and  C_17
REMARK    8  A    between atoms: C_17  and  C_18
REMARK    9  A    between atoms: C_25  and  C_26
REMARK                            x       y       z     vdW  Elec       q    Type
REMARK                         _______ _______ _______ _____ _____    ______ ____
ROOT
ATOM      1  C   UNL     1       1.567   8.378  19.911  0.00  0.00    +0.000 A 
ATOM      2  N   UNL     1       1.281   8.652  21.239  0.00  0.00    +0.000 NA
ATOM      3  C   UNL     1       0.533   9.745  21.246  0.00  0.00    +0.000 A 
ATOM      4  N   UNL     1       0.309  10.164  19.957  0.00  0.00    +0.000 N 
ATOM      5  C   UNL     1       0.962   9.324  19.096  0.00  0.00    +0.000 A 
ATOM      6  C   UNL     1       0.922   9.514  17.625  0.00  0.00    +0.000 C 
ATOM      7  H   UNL     1      -0.285  10.935  19.694  0.00  0.00    +0.000 HD
ENDROOT
BRANCH   1  12
ATOM      8  C   UNL     1       5.618   5.261  17.040  0.00  0.00    +0.000 A 
ATOM      9  C   UNL     1       5.012   6.506  17.040  0.00  0.00    +0.000 A 
ATOM     10  C   UNL     1       4.016   6.501  18.034  0.00  0.00    +0.000 A 
ATOM     11  N   UNL     1       3.229   7.521  18.430  0.00  0.00    +0.000 NA
ATOM     12  C   UNL     1       2.391   7.253  19.457  0.00  0.00    +0.000 A 
ATOM     13  C   UNL     1       2.302   6.008  20.081  0.00  0.00    +0.000 A 
ATOM     14  C   UNL     1       3.113   4.949  19.657  0.00  0.00    +0.000 A 
ATOM     15  C   UNL     1       3.985   5.238  18.608  0.00  0.00    +0.000 A 
ATOM     16  N   UNL     1       4.935   4.485  17.956  0.00  0.00    +0.000 N 
ATOM     17  H   UNL     1       5.168   3.524  18.168  0.00  0.00    +0.000 HD
BRANCH   8  18
ATOM     18  C   UNL     1       6.783   4.803  16.329  0.00  0.00    +0.000 C 
ATOM     19  O   UNL     1       7.804   4.390  16.859  0.00  0.00    +0.000 OA
BRANCH  18  20
ATOM     20  O   UNL     1       6.613   5.036  14.999  0.00  0.00    +0.000 OA
BRANCH  20  22
ATOM     21  C   UNL     1       6.267   3.723  13.033  0.00  0.00    +0.000 C 
ATOM     22  C   UNL     1       5.654   4.206  14.336  0.00  0.00    +0.000 C 
ENDBRANCH  20  22
ENDBRANCH  18  20
ENDBRANCH   8  18
ENDBRANCH   1  12
BRANCH   3  23
ATOM     23  C   UNL     1      -0.027  10.375  22.436  0.00  0.00    +0.000 C 
ATOM     24  O   UNL     1       0.053   9.905  23.570  0.00  0.00    +0.000 OA
ATOM     25  N   UNL     1      -0.697  11.566  22.191  0.00  0.00    +0.000 N 
ATOM     26  H   UNL     1      -0.514  12.059  21.331  0.00  0.00    +0.000 HD
BRANCH  25  27
ATOM     27  C   UNL     1      -1.351  12.299  23.250  0.00  0.00    +0.000 C 
BRANCH  27  28
ATOM     28  C   UNL     1      -2.834  12.435  23.033  0.00  0.00    +0.000 A 
ATOM     29  C   UNL     1      -3.732  12.463  24.104  0.00  0.00    +0.000 A 
ATOM     30  C   UNL     1      -5.084  12.634  23.836  0.00  0.00    +0.000 A 
ATOM     31  N   UNL     1      -5.593  12.772  22.594  0.00  0.00    +0.000 NA
ATOM     32  C   UNL     1      -4.714  12.725  21.571  0.00  0.00    +0.000 A 
ATOM     33  C   UNL     1      -3.349  12.557  21.739  0.00  0.00    +0.000 A 
ENDBRANCH  27  28
ENDBRANCH  25  27
ENDBRANCH   3  23
TORSDOF 7
ENDMDL
MODEL 5
REMARK VINA RESULT:      -7.8      3.637      9.667
REMARK  Name = 
REMARK  9 active torsions:
REMARK  status: ('A' for Active; 'I' for Inactive)
REMARK    1  A    between atoms: C_1  and  C_2
REMARK    2  A    between atoms: C_2  and  O_3
REMARK    3  A    between atoms: O_3  and  C_4
REMARK    4  A    between atoms: C_4  and  C_6
REMARK    5  A    between atoms: C_10  and  C_11
REMARK    6  A    between atoms: C_13  and  C_14
REMARK    7  A    between atoms: N_16  and  C_17
REMARK    8  A    between atoms: C_17  and  C_18
REMARK    9  A    between atoms: C_25  and  C_26
REMARK                            x       y       z     vdW  Elec       q    Type
REMARK                         _______ _______ _______ _____ _____    ______ ____
ROOT
ATOM      1  C   UNL     1       1.053   9.201  20.032  0.00  0.00    +0.000 A 
ATOM      2  N   UNL     1       1.664   8.287  19.189  0.00  0.00    +0.000 NA
ATOM      3  C   UNL     1       2.082   7.290  19.955  0.00  0.00    +0.000 A 
ATOM      4  N   UNL     1       1.733   7.529  21.262  0.00  0.00    +0.000 N 
ATOM      5  C   UNL     1       1.092   8.736  21.339  0.00  0.00    +0.000 A 
ATOM      6  C   UNL     1       0.593   9.285  22.623  0.00  0.00    +0.000 C 
ATOM      7  H   UNL     1       1.881   6.889  22.027  0.00  0.00    +0.000 HD
ENDROOT
BRANCH   1  12
ATOM      8  C   UNL     1       0.314  14.923  18.990  0.00  0.00    +0.000 A 
ATOM      9  C   UNL     1       1.133  14.047  19.684  0.00  0.00    +0.000 A 
ATOM     10  C   UNL     1       0.619  12.749  19.512  0.00  0.00    +0.000 A 
ATOM     11  N   UNL     1       1.136  11.584  19.949  0.00  0.00    +0.000 NA
ATOM     12  C   UNL     1       0.462  10.468  19.588  0.00  0.00    +0.000 A 
ATOM     13  C   UNL     1      -0.709  10.481  18.829  0.00  0.00    +0.000 A 
ATOM     14  C   UNL     1      -1.248  11.696  18.389  0.00  0.00    +0.000 A 
ATOM     15  C   UNL     1      -0.539  12.839  18.752  0.00  0.00    +0.000 A 
ATOM     16  N   UNL     1      -0.733  14.175  18.486  0.00  0.00    +0.000 N 
ATOM     17  H   UNL     1      -1.484  14.560  17.928  0.00  0.00    +0.000 HD
BRANCH   8  18
ATOM     18  C   UNL     1       0.484  16.327  18.722  0.00  0.00    +0.000 C 
ATOM     19  O   UNL     1      -0.402  17.073  18.330  0.00  0.00    +0.000 OA
BRANCH  18  20
ATOM     20  O   UNL     1       1.801  16.647  18.838  0.00  0.00    +0.000 OA
BRANCH  20  22
ATOM     21  C   UNL     1       3.520  15.824  17.395  0.00  0.00    +0.000 C 
ATOM     22  C   UNL     1       2.490  16.919  17.613  0.00  0.00    +0.000 C 
ENDBRANCH  20  22
ENDBRANCH  18  20
ENDBRANCH   8  18
ENDBRANCH   1  12
BRANCH   3  23
ATOM     23  C   UNL     1       2.755   6.087  19.479  0.00  0.00    +0.000 C 
ATOM     24  O   UNL     1       3.249   5.234  20.214  0.00  0.00    +0.000 OA
ATOM     25  N   UNL     1       2.822   5.979  18.095  0.00  0.00    +0.000 N 
ATOM     26  H   UNL     1       2.187   6.524  17.534  0.00  0.00    +0.000 HD
BRANCH  25  27
ATOM     27  C   UNL     1       3.494   4.873  17.454  0.00  0.00    +0.000 C 
BRANCH  27  28
ATOM     28  C   UNL     1       4.862   5.241  16.945  0.00  0.00    +0.000 A 
ATOM     29  C   UNL     1       5.618   6.253  17.543  0.00  0.00    +0.000 A 
ATOM     30  C   UNL     1       6.891   6.513  17.053  0.00  0.00    +0.000 A 
ATOM     31  N   UNL     1       7.450   5.847  16.020  0.00  0.00    +0.000 NA
ATOM     32  C   UNL     1       6.699   4.884  15.445  0.00  0.00    +0.000 A 
ATOM     33  C   UNL     1       5.420   4.555  15.862  0.00  0.00    +0.000 A 
ENDBRANCH  27  28
ENDBRANCH  25  27
ENDBRANCH   3  23
TORSDOF 7
ENDMDL
MODEL 6
REMARK VINA RESULT:      -7.7      1.577      2.207
REMARK  Name = 
REMARK  9 active torsions:
REMARK  status: ('A' for Active; 'I' for Inactive)
REMARK    1  A    between atoms: C_1  and  C_2
REMARK    2  A    between atoms: C_2  and  O_3
REMARK    3  A    between atoms: O_3  and  C_4
REMARK    4  A    between atoms: C_4  and  C_6
REMARK    5  A    between atoms: C_10  and  C_11
REMARK    6  A    between atoms: C_13  and  C_14
REMARK    7  A    between atoms: N_16  and  C_17
REMARK    8  A    between atoms: C_17  and  C_18
REMARK    9  A    between atoms: C_25  and  C_26
REMARK                            x       y       z     vdW  Elec       q    Type
REMARK                         _______ _______ _______ _____ _____    ______ ____
ROOT
ATOM      1  C   UNL     1       3.473   5.913  19.340  0.00  0.00    +0.000 A 
ATOM      2  N   UNL     1       2.976   7.205  19.416  0.00  0.00    +0.000 NA
ATOM      3  C   UNL     1       1.954   7.166  20.257  0.00  0.00    +0.000 A 
ATOM      4  N   UNL     1       1.798   5.890  20.742  0.00  0.00    +0.000 N 
ATOM      5  C   UNL     1       2.738   5.077  20.168  0.00  0.00    +0.000 A 
ATOM      6  C   UNL     1       2.828   3.631  20.481  0.00  0.00    +0.000 C 
ATOM      7  H   UNL     1       1.130   5.616  21.445  0.00  0.00    +0.000 HD
ENDROOT
BRANCH   1  12
ATOM      8  C   UNL     1       6.763   4.779  14.622  0.00  0.00    +0.000 A 
ATOM      9  C   UNL     1       5.461   5.078  14.985  0.00  0.00    +0.000 A 
ATOM     10  C   UNL     1       5.408   5.141  16.390  0.00  0.00    +0.000 A 
ATOM     11  N   UNL     1       4.361   5.473  17.170  0.00  0.00    +0.000 NA
ATOM     12  C   UNL     1       4.606   5.511  18.499  0.00  0.00    +0.000 A 
ATOM     13  C   UNL     1       5.845   5.213  19.068  0.00  0.00    +0.000 A 
ATOM     14  C   UNL     1       6.926   4.856  18.253  0.00  0.00    +0.000 A 
ATOM     15  C   UNL     1       6.668   4.835  16.884  0.00  0.00    +0.000 A 
ATOM     16  N   UNL     1       7.466   4.571  15.793  0.00  0.00    +0.000 N 
ATOM     17  H   UNL     1       8.450   4.340  15.828  0.00  0.00    +0.000 HD
BRANCH   8  18
ATOM     18  C   UNL     1       7.374   4.753  13.319  0.00  0.00    +0.000 C 
ATOM     19  O   UNL     1       7.974   5.689  12.812  0.00  0.00    +0.000 OA
BRANCH  18  20
ATOM     20  O   UNL     1       7.055   3.583  12.701  0.00  0.00    +0.000 OA
BRANCH  20  22
ATOM     21  C   UNL     1       5.574   2.147  11.495  0.00  0.00    +0.000 C 
ATOM     22  C   UNL     1       5.719   3.486  12.197  0.00  0.00    +0.000 C 
ENDBRANCH  20  22
ENDBRANCH  18  20
ENDBRANCH   8  18
ENDBRANCH   1  12
BRANCH   3  23
ATOM     23  C   UNL     1       1.152   8.315  20.661  0.00  0.00    +0.000 C 
ATOM     24  O   UNL     1       0.519   8.381  21.713  0.00  0.00    +0.000 OA
ATOM     25  N   UNL     1       1.133   9.352  19.737  0.00  0.00    +0.000 N 
ATOM     26  H   UNL     1       1.857   9.394  19.038  0.00  0.00    +0.000 HD
BRANCH  25  27
ATOM     27  C   UNL     1       0.351  10.547  19.956  0.00  0.00    +0.000 C 
BRANCH  27  28
ATOM     28  C   UNL     1       1.133  11.808  19.704  0.00  0.00    +0.000 A 
ATOM     29  C   UNL     1       1.925  11.962  18.563  0.00  0.00    +0.000 A 
ATOM     30  C   UNL     1       2.586  13.168  18.369  0.00  0.00    +0.000 A 
ATOM     31  N   UNL     1       2.517  14.210  19.223  0.00  0.00    +0.000 NA
ATOM     32  C   UNL     1       1.761  14.037  20.328  0.00  0.00    +0.000 A 
ATOM     33  C   UNL     1       1.067  12.872  20.609  0.00  0.00    +0.000 A 
ENDBRANCH  27  28
ENDBRANCH  25  27
ENDBRANCH   3  23
TORSDOF 7
ENDMDL
MODEL 7
REMARK VINA RESULT:      -7.6      3.617      9.980
REMARK  Name = 
REMARK  9 active torsions:
REMARK  status: ('A' for Active; 'I' for Inactive)
REMARK    1  A    between atoms: C_1  and  C_2
REMARK    2  A    between atoms: C_2  and  O_3
REMARK    3  A    between atoms: O_3  and  C_4
REMARK    4  A    between atoms: C_4  and  C_6
REMARK    5  A    between atoms: C_10  and  C_11
REMARK    6  A    between atoms: C_13  and  C_14
REMARK    7  A    between atoms: N_16  and  C_17
REMARK    8  A    between atoms: C_17  and  C_18
REMARK    9  A    between atoms: C_25  and  C_26
REMARK                            x       y       z     vdW  Elec       q    Type
REMARK                         _______ _______ _______ _____ _____    ______ ____
ROOT
ATOM      1  C   UNL     1       1.081   9.212  20.009  0.00  0.00    +0.000 A 
ATOM      2  N   UNL     1       1.691   8.296  19.165  0.00  0.00    +0.000 NA
ATOM      3  C   UNL     1       2.107   7.298  19.930  0.00  0.00    +0.000 A 
ATOM      4  N   UNL     1       1.758   7.537  21.238  0.00  0.00    +0.000 N 
ATOM      5  C   UNL     1       1.120   8.746  21.315  0.00  0.00    +0.000 A 
ATOM      6  C   UNL     1       0.622   9.296  22.599  0.00  0.00    +0.000 C 
ATOM      7  H   UNL     1       1.905   6.897  22.002  0.00  0.00    +0.000 HD
ENDROOT
BRANCH   1  12
ATOM      8  C   UNL     1       0.339  14.938  18.996  0.00  0.00    +0.000 A 
ATOM      9  C   UNL     1       1.150  14.060  19.695  0.00  0.00    +0.000 A 
ATOM     10  C   UNL     1       0.643  12.761  19.507  0.00  0.00    +0.000 A 
ATOM     11  N   UNL     1       1.158  11.595  19.943  0.00  0.00    +0.000 NA
ATOM     12  C   UNL     1       0.493  10.480  19.565  0.00  0.00    +0.000 A 
ATOM     13  C   UNL     1      -0.667  10.494  18.790  0.00  0.00    +0.000 A 
ATOM     14  C   UNL     1      -1.205  11.710  18.350  0.00  0.00    +0.000 A 
ATOM     15  C   UNL     1      -0.504  12.853  18.731  0.00  0.00    +0.000 A 
ATOM     16  N   UNL     1      -0.699  14.191  18.471  0.00  0.00    +0.000 N 
ATOM     17  H   UNL     1      -1.443  14.576  17.905  0.00  0.00    +0.000 HD
BRANCH   8  18
ATOM     18  C   UNL     1       0.507  16.344  18.740  0.00  0.00    +0.000 C 
ATOM     19  O   UNL     1       1.308  17.066  19.315  0.00  0.00    +0.000 OA
BRANCH  18  20
ATOM     20  O   UNL     1      -0.453  16.756  17.868  0.00  0.00    +0.000 OA
BRANCH  20  22
ATOM     21  C   UNL     1      -2.234  17.961  18.913  0.00  0.00    +0.000 C 
ATOM     22  C   UNL     1      -0.968  18.075  18.082  0.00  0.00    +0.000 C 
ENDBRANCH  20  22
ENDBRANCH  18  20
ENDBRANCH   8  18
ENDBRANCH   1  12
BRANCH   3  23
ATOM     23  C   UNL     1       2.777   6.095  19.454  0.00  0.00    +0.000 C 
ATOM     24  O   UNL     1       3.311   5.264  20.187  0.00  0.00    +0.000 OA
ATOM     25  N   UNL     1       2.793   5.958  18.071  0.00  0.00    +0.000 N 
ATOM     26  H   UNL     1       2.130   6.483  17.524  0.00  0.00    +0.000 HD
BRANCH  25  27
ATOM     27  C   UNL     1       3.456   4.847  17.427  0.00  0.00    +0.000 C 
BRANCH  27  28
ATOM     28  C   UNL     1       4.849   5.187  16.973  0.00  0.00    +0.000 A 
ATOM     29  C   UNL     1       5.573   4.336  16.133  0.00  0.00    +0.000 A 
ATOM     30  C   UNL     1       6.837   4.729  15.715  0.00  0.00    +0.000 A 
ATOM     31  N   UNL     1       7.422   5.891  16.075  0.00  0.00    +0.000 NA
ATOM     32  C   UNL     1       6.714   6.693  16.900  0.00  0.00    +0.000 A 
ATOM     33  C   UNL     1       5.449   6.385  17.370  0.00  0.00    +0.000 A 
ENDBRANCH  27  28
ENDBRANCH  25  27
ENDBRANCH   3  23
TORSDOF 7
ENDMDL
MODEL 8
REMARK VINA RESULT:      -7.6      3.695     10.231
REMARK  Name = 
REMARK  9 active torsions:
REMARK  status: ('A' for Active; 'I' for Inactive)
REMARK    1  A    between atoms: C_1  and  C_2
REMARK    2  A    between atoms: C_2  and  O_3
REMARK    3  A    between atoms: O_3  and  C_4
REMARK    4  A    between atoms: C_4  and  C_6
REMARK    5  A    between atoms: C_10  and  C_11
REMARK    6  A    between atoms: C_13  and  C_14
REMARK    7  A    between atoms: N_16  and  C_17
REMARK    8  A    between atoms: C_17  and  C_18
REMARK    9  A    between atoms: C_25  and  C_26
REMARK                            x       y       z     vdW  Elec       q    Type
REMARK                         _______ _______ _______ _____ _____    ______ ____
ROOT
ATOM      1  C   UNL     1       0.981   9.432  20.057  0.00  0.00    +0.000 A 
ATOM      2  N   UNL     1       1.529   8.592  19.101  0.00  0.00    +0.000 NA
ATOM      3  C   UNL     1       1.995   7.536  19.750  0.00  0.00    +0.000 A 
ATOM      4  N   UNL     1       1.739   7.665  21.094  0.00  0.00    +0.000 N 
ATOM      5  C   UNL     1       1.110   8.861  21.315  0.00  0.00    +0.000 A 
ATOM      6  C   UNL     1       0.705   9.301  22.671  0.00  0.00    +0.000 C 
ATOM      7  H   UNL     1       1.938   6.965  21.791  0.00  0.00    +0.000 HD
ENDROOT
BRANCH   1  12
ATOM      8  C   UNL     1       0.335  15.162  18.998  0.00  0.00    +0.000 A 
ATOM      9  C   UNL     1       1.275  14.242  19.432  0.00  0.00    +0.000 A 
ATOM     10  C   UNL     1       0.645  12.986  19.511  0.00  0.00    +0.000 A 
ATOM     11  N   UNL     1       1.196  11.796  19.818  0.00  0.00    +0.000 NA
ATOM     12  C   UNL     1       0.366  10.730  19.762  0.00  0.00    +0.000 A 
ATOM     13  C   UNL     1      -0.987  10.819  19.430  0.00  0.00    +0.000 A 
ATOM     14  C   UNL     1      -1.557  12.060  19.124  0.00  0.00    +0.000 A 
ATOM     15  C   UNL     1      -0.690  13.151  19.170  0.00  0.00    +0.000 A 
ATOM     16  N   UNL     1      -0.868  14.490  18.908  0.00  0.00    +0.000 N 
ATOM     17  H   UNL     1      -1.734  14.919  18.607  0.00  0.00    +0.000 HD
BRANCH   8  18
ATOM     18  C   UNL     1       0.503  16.538  18.611  0.00  0.00    +0.000 C 
ATOM     19  O   UNL     1       1.349  17.293  19.067  0.00  0.00    +0.000 OA
BRANCH  18  20
ATOM     20  O   UNL     1      -0.510  16.891  17.773  0.00  0.00    +0.000 OA
BRANCH  20  22
ATOM     21  C   UNL     1      -2.228  17.945  19.057  0.00  0.00    +0.000 C 
ATOM     22  C   UNL     1      -1.126  18.157  18.034  0.00  0.00    +0.000 C 
ENDBRANCH  20  22
ENDBRANCH  18  20
ENDBRANCH   8  18
ENDBRANCH   1  12
BRANCH   3  23
ATOM     23  C   UNL     1       2.629   6.378  19.130  0.00  0.00    +0.000 C 
ATOM     24  O   UNL     1       2.440   6.027  17.967  0.00  0.00    +0.000 OA
ATOM     25  N   UNL     1       3.467   5.664  19.976  0.00  0.00    +0.000 N 
ATOM     26  H   UNL     1       3.815   6.113  20.809  0.00  0.00    +0.000 HD
BRANCH  25  27
ATOM     27  C   UNL     1       4.140   4.462  19.539  0.00  0.00    +0.000 C 
BRANCH  27  28
ATOM     28  C   UNL     1       5.368   4.749  18.719  0.00  0.00    +0.000 A 
ATOM     29  C   UNL     1       6.461   5.439  19.253  0.00  0.00    +0.000 A 
ATOM     30  C   UNL     1       7.581   5.632  18.456  0.00  0.00    +0.000 A 
ATOM     31  N   UNL     1       7.683   5.198  17.183  0.00  0.00    +0.000 NA
ATOM     32  C   UNL     1       6.612   4.549  16.678  0.00  0.00    +0.000 A 
ATOM     33  C   UNL     1       5.451   4.310  17.394  0.00  0.00    +0.000 A 
ENDBRANCH  27  28
ENDBRANCH  25  27
ENDBRANCH   3  23
TORSDOF 7
ENDMDL
MODEL 9
REMARK VINA RESULT:      -7.6      2.162      3.702
REMARK  Name = 
REMARK  9 active torsions:
REMARK  status: ('A' for Active; 'I' for Inactive)
REMARK    1  A    between atoms: C_1  and  C_2
REMARK    2  A    between atoms: C_2  and  O_3
REMARK    3  A    between atoms: O_3  and  C_4
REMARK    4  A    between atoms: C_4  and  C_6
REMARK    5  A    between atoms: C_10  and  C_11
REMARK    6  A    between atoms: C_13  and  C_14
REMARK    7  A    between atoms: N_16  and  C_17
REMARK    8  A    between atoms: C_17  and  C_18
REMARK    9  A    between atoms: C_25  and  C_26
REMARK                            x       y       z     vdW  Elec       q    Type
REMARK                         _______ _______ _______ _____ _____    ______ ____
ROOT
ATOM      1  C   UNL     1       1.283   8.777  19.328  0.00  0.00    +0.000 A 
ATOM      2  N   UNL     1       0.530   9.464  18.388  0.00  0.00    +0.000 NA
ATOM      3  C   UNL     1      -0.221  10.321  19.061  0.00  0.00    +0.000 A 
ATOM      4  N   UNL     1       0.047  10.221  20.405  0.00  0.00    +0.000 N 
ATOM      5  C   UNL     1       0.985   9.244  20.600  0.00  0.00    +0.000 A 
ATOM      6  C   UNL     1       1.485   8.887  21.950  0.00  0.00    +0.000 C 
ATOM      7  H   UNL     1      -0.349  10.811  21.120  0.00  0.00    +0.000 HD
ENDROOT
BRANCH   1  12
ATOM      8  C   UNL     1       5.555   5.774  16.664  0.00  0.00    +0.000 A 
ATOM      9  C   UNL     1       4.756   6.893  16.500  0.00  0.00    +0.000 A 
ATOM     10  C   UNL     1       3.853   6.941  17.578  0.00  0.00    +0.000 A 
ATOM     11  N   UNL     1       2.944   7.893  17.862  0.00  0.00    +0.000 NA
ATOM     12  C   UNL     1       2.242   7.716  19.004  0.00  0.00    +0.000 A 
ATOM     13  C   UNL     1       2.406   6.620  19.852  0.00  0.00    +0.000 A 
ATOM     14  C   UNL     1       3.344   5.627  19.545  0.00  0.00    +0.000 A 
ATOM     15  C   UNL     1       4.073   5.825  18.375  0.00  0.00    +0.000 A 
ATOM     16  N   UNL     1       5.080   5.104  17.775  0.00  0.00    +0.000 N 
ATOM     17  H   UNL     1       5.482   4.248  18.133  0.00  0.00    +0.000 HD
BRANCH   8  18
ATOM     18  C   UNL     1       6.721   5.358  15.929  0.00  0.00    +0.000 C 
ATOM     19  O   UNL     1       7.706   6.054  15.733  0.00  0.00    +0.000 OA
BRANCH  18  20
ATOM     20  O   UNL     1       6.487   4.136  15.378  0.00  0.00    +0.000 OA
BRANCH  20  22
ATOM     21  C   UNL     1       6.384   3.734  13.024  0.00  0.00    +0.000 C 
ATOM     22  C   UNL     1       5.591   4.113  14.263  0.00  0.00    +0.000 C 
ENDBRANCH  20  22
ENDBRANCH  18  20
ENDBRANCH   8  18
ENDBRANCH   1  12
BRANCH   3  23
ATOM     23  C   UNL     1      -1.149  11.276  18.466  0.00  0.00    +0.000 C 
ATOM     24  O   UNL     1      -0.922  12.478  18.346  0.00  0.00    +0.000 OA
ATOM     25  N   UNL     1      -2.354  10.721  18.053  0.00  0.00    +0.000 N 
ATOM     26  H   UNL     1      -2.405   9.725  17.907  0.00  0.00    +0.000 HD
BRANCH  25  27
ATOM     27  C   UNL     1      -3.405  11.532  17.483  0.00  0.00    +0.000 C 
BRANCH  27  28
ATOM     28  C   UNL     1      -4.627  11.597  18.359  0.00  0.00    +0.000 A 
ATOM     29  C   UNL     1      -5.791  10.889  18.045  0.00  0.00    +0.000 A 
ATOM     30  C   UNL     1      -6.869  10.957  18.919  0.00  0.00    +0.000 A 
ATOM     31  N   UNL     1      -6.867  11.675  20.062  0.00  0.00    +0.000 NA
ATOM     32  C   UNL     1      -5.740  12.366  20.339  0.00  0.00    +0.000 A 
ATOM     33  C   UNL     1      -4.617  12.361  19.530  0.00  0.00    +0.000 A 
ENDBRANCH  27  28
ENDBRANCH  25  27
ENDBRANCH   3  23
TORSDOF 7
ENDMDL
