MODEL 1
REMARK VINA RESULT:      -7.6      0.000      0.000
REMARK  Name = 
REMARK  5 active torsions:
REMARK  status: ('A' for Active; 'I' for Inactive)
REMARK    1  A    between atoms: C_1  and  C_2
REMARK    2  A    between atoms: N_4  and  C_5
REMARK    3  A    between atoms: C_12  and  C_13
REMARK    4  A    between atoms: C_16  and  C_17
REMARK    5  A    between atoms: C_23  and  C_24
REMARK                            x       y       z     vdW  Elec       q    Type
REMARK                         _______ _______ _______ _____ _____    ______ ____
ROOT
ATOM      1  C   UNL     1       1.748   4.253  19.326  0.00  0.00    +0.000 C 
ATOM      2  C   UNL     1       1.681   5.020  17.996  0.00  0.00    +0.000 C 
ATOM      3  C   UNL     1       2.456   6.334  18.053  0.00  0.00    +0.000 C 
ATOM      4  N   UNL     1       1.967   7.101  19.188  0.00  0.00    +0.000 N 
ATOM      5  C   UNL     1       1.743   8.458  19.128  0.00  0.00    +0.000 A 
ATOM      6  C   UNL     1       2.403   9.300  18.241  0.00  0.00    +0.000 A 
ATOM      7  N   UNL     1       2.210  10.635  18.174  0.00  0.00    +0.000 NA
ATOM      8  C   UNL     1       1.301  11.163  19.048  0.00  0.00    +0.000 A 
ATOM      9  C   UNL     1       0.583  10.330  19.940  0.00  0.00    +0.000 A 
ATOM     10  N   UNL     1       0.818   8.987  19.960  0.00  0.00    +0.000 NA
ATOM     11  C   UNL     1       2.062   6.470  20.497  0.00  0.00    +0.000 C 
ATOM     12  C   UNL     1       1.285   5.157  20.479  0.00  0.00    +0.000 C 
ENDROOT
BRANCH   9  13
ATOM     13  C   UNL     1      -0.453  10.787  20.912  0.00  0.00    +0.000 A 
ATOM     14  C   UNL     1      -1.496  11.645  20.498  0.00  0.00    +0.000 A 
ATOM     15  C   UNL     1      -2.317  12.259  21.436  0.00  0.00    +0.000 A 
ATOM     16  N   UNL     1      -2.261  12.000  22.752  0.00  0.00    +0.000 NA
ATOM     17  C   UNL     1      -1.347  11.084  23.138  0.00  0.00    +0.000 A 
ATOM     18  C   UNL     1      -0.431  10.469  22.285  0.00  0.00    +0.000 A 
ATOM     19 CL   UNL     1       0.705   9.410  23.040  0.00  0.00    +0.000 Cl
ENDBRANCH   9  13
BRANCH   8  20
ATOM     20  C   UNL     1       1.224  12.639  18.949  0.00  0.00    +0.000 A 
ATOM     21  C   UNL     1       0.090  13.260  18.386  0.00  0.00    +0.000 A 
ATOM     22  C   UNL     1      -0.015  14.655  18.293  0.00  0.00    +0.000 A 
ATOM     23  C   UNL     1       1.006  15.471  18.788  0.00  0.00    +0.000 A 
ATOM     24  C   UNL     1       2.136  14.870  19.354  0.00  0.00    +0.000 A 
ATOM     25  C   UNL     1       2.260  13.480  19.392  0.00  0.00    +0.000 A 
BRANCH  23  26
ATOM     26  C   UNL     1       0.935  16.976  18.697  0.00  0.00    +0.000 C 
ATOM     27  F   UNL     1       2.067  17.548  18.206  0.00  0.00    +0.000 F 
ATOM     28  F   UNL     1      -0.080  17.397  17.894  0.00  0.00    +0.000 F 
ATOM     29  F   UNL     1       0.716  17.554  19.910  0.00  0.00    +0.000 F 
ENDBRANCH  23  26
ENDBRANCH   8  20
BRANCH   1  33
ATOM     30  C   UNL     1       4.795   2.041  19.878  0.00  0.00    +0.000 C 
ATOM     31  C   UNL     1       3.414   2.392  19.386  0.00  0.00    +0.000 C 
ATOM     32  O   UNL     1       2.671   1.577  18.862  0.00  0.00    +0.000 OA
ATOM     33  N   UNL     1       3.077   3.711  19.606  0.00  0.00    +0.000 N 
ATOM     34  H   UNL     1       3.659   4.222  20.267  0.00  0.00    +0.000 HD
ENDBRANCH   1  33
TORSDOF 4
ENDMDL
MODEL 2
REMARK VINA RESULT:      -7.5      3.022      4.761
REMARK  Name = 
REMARK  5 active torsions:
REMARK  status: ('A' for Active; 'I' for Inactive)
REMARK    1  A    between atoms: C_1  and  C_2
REMARK    2  A    between atoms: N_4  and  C_5
REMARK    3  A    between atoms: C_12  and  C_13
REMARK    4  A    between atoms: C_16  and  C_17
REMARK    5  A    between atoms: C_23  and  C_24
REMARK                            x       y       z     vdW  Elec       q    Type
REMARK                         _______ _______ _______ _____ _____    ______ ____
ROOT
ATOM      1  C   UNL     1       3.653   6.164  18.295  0.00  0.00    +0.000 C 
ATOM      2  C   UNL     1       3.592   6.237  19.829  0.00  0.00    +0.000 C 
ATOM      3  C   UNL     1       2.198   6.610  20.329  0.00  0.00    +0.000 C 
ATOM      4  N   UNL     1       1.797   7.847  19.675  0.00  0.00    +0.000 N 
ATOM      5  C   UNL     1       1.158   8.867  20.341  0.00  0.00    +0.000 A 
ATOM      6  C   UNL     1       0.389   8.668  21.482  0.00  0.00    +0.000 A 
ATOM      7  N   UNL     1      -0.259   9.651  22.143  0.00  0.00    +0.000 NA
ATOM      8  C   UNL     1      -0.132  10.913  21.634  0.00  0.00    +0.000 A 
ATOM      9  C   UNL     1       0.674  11.159  20.496  0.00  0.00    +0.000 A 
ATOM     10  N   UNL     1       1.309  10.126  19.871  0.00  0.00    +0.000 NA
ATOM     11  C   UNL     1       1.761   7.837  18.219  0.00  0.00    +0.000 C 
ATOM     12  C   UNL     1       3.144   7.479  17.684  0.00  0.00    +0.000 C 
ENDROOT
BRANCH   9  13
ATOM     13  C   UNL     1       0.915  12.494  19.873  0.00  0.00    +0.000 A 
ATOM     14  C   UNL     1       2.093  13.218  20.160  0.00  0.00    +0.000 A 
ATOM     15  C   UNL     1       2.213  14.549  19.777  0.00  0.00    +0.000 A 
ATOM     16  N   UNL     1       1.302  15.189  19.028  0.00  0.00    +0.000 NA
ATOM     17  C   UNL     1       0.231  14.460  18.644  0.00  0.00    +0.000 A 
ATOM     18  C   UNL     1      -0.015  13.145  19.036  0.00  0.00    +0.000 A 
ATOM     19 CL   UNL     1      -1.508  12.467  18.495  0.00  0.00    +0.000 Cl
ENDBRANCH   9  13
BRANCH   8  20
ATOM     20  C   UNL     1      -0.943  11.901  22.382  0.00  0.00    +0.000 A 
ATOM     21  C   UNL     1      -0.466  13.213  22.584  0.00  0.00    +0.000 A 
ATOM     22  C   UNL     1      -1.218  14.171  23.276  0.00  0.00    +0.000 A 
ATOM     23  C   UNL     1      -2.488  13.850  23.763  0.00  0.00    +0.000 A 
ATOM     24  C   UNL     1      -2.978  12.554  23.566  0.00  0.00    +0.000 A 
ATOM     25  C   UNL     1      -2.201  11.587  22.926  0.00  0.00    +0.000 A 
BRANCH  23  26
ATOM     26  C   UNL     1      -3.326  14.851  24.522  0.00  0.00    +0.000 C 
ATOM     27  F   UNL     1      -4.664  14.704  24.328  0.00  0.00    +0.000 F 
ATOM     28  F   UNL     1      -3.128  14.775  25.867  0.00  0.00    +0.000 F 
ATOM     29  F   UNL     1      -3.034  16.134  24.174  0.00  0.00    +0.000 F 
ENDBRANCH  23  26
ENDBRANCH   8  20
BRANCH   1  33
ATOM     30  C   UNL     1       2.483   2.745  17.101  0.00  0.00    +0.000 C 
ATOM     31  C   UNL     1       3.341   3.723  17.862  0.00  0.00    +0.000 C 
ATOM     32  O   UNL     1       4.328   3.383  18.497  0.00  0.00    +0.000 OA
ATOM     33  N   UNL     1       2.912   5.029  17.748  0.00  0.00    +0.000 N 
ATOM     34  H   UNL     1       2.248   5.222  17.001  0.00  0.00    +0.000 HD
ENDBRANCH   1  33
TORSDOF 4
ENDMDL
MODEL 3
REMARK VINA RESULT:      -7.5      3.021      4.682
REMARK  Name = 
REMARK  5 active torsions:
REMARK  status: ('A' for Active; 'I' for Inactive)
REMARK    1  A    between atoms: C_1  and  C_2
REMARK    2  A    between atoms: N_4  and  C_5
REMARK    3  A    between atoms: C_12  and  C_13
REMARK    4  A    between atoms: C_16  and  C_17
REMARK    5  A    between atoms: C_23  and  C_24
REMARK                            x       y       z     vdW  Elec       q    Type
REMARK                         _______ _______ _______ _____ _____    ______ ____
ROOT
ATOM      1  C   UNL     1       3.713   6.081  18.339  0.00  0.00    +0.000 C 
ATOM      2  C   UNL     1       3.634   6.167  19.872  0.00  0.00    +0.000 C 
ATOM      3  C   UNL     1       2.234   6.539  20.353  0.00  0.00    +0.000 C 
ATOM      4  N   UNL     1       1.835   7.768  19.684  0.00  0.00    +0.000 N 
ATOM      5  C   UNL     1       1.185   8.793  20.334  0.00  0.00    +0.000 A 
ATOM      6  C   UNL     1       0.404   8.600  21.467  0.00  0.00    +0.000 A 
ATOM      7  N   UNL     1      -0.255   9.586  22.112  0.00  0.00    +0.000 NA
ATOM      8  C   UNL     1      -0.126  10.844  21.595  0.00  0.00    +0.000 A 
ATOM      9  C   UNL     1       0.692  11.084  20.465  0.00  0.00    +0.000 A 
ATOM     10  N   UNL     1       1.337  10.047  19.855  0.00  0.00    +0.000 NA
ATOM     11  C   UNL     1       1.817   7.747  18.228  0.00  0.00    +0.000 C 
ATOM     12  C   UNL     1       3.207   7.389  17.712  0.00  0.00    +0.000 C 
ENDROOT
BRANCH   9  13
ATOM     13  C   UNL     1       0.936  12.415  19.833  0.00  0.00    +0.000 A 
ATOM     14  C   UNL     1       2.104  13.148  20.134  0.00  0.00    +0.000 A 
ATOM     15  C   UNL     1       2.223  14.476  19.741  0.00  0.00    +0.000 A 
ATOM     16  N   UNL     1       1.321  15.104  18.970  0.00  0.00    +0.000 NA
ATOM     17  C   UNL     1       0.262  14.365  18.574  0.00  0.00    +0.000 A 
ATOM     18  C   UNL     1       0.017  13.051  18.975  0.00  0.00    +0.000 A 
ATOM     19 CL   UNL     1      -1.463  12.360  18.414  0.00  0.00    +0.000 Cl
ENDBRANCH   9  13
BRANCH   8  20
ATOM     20  C   UNL     1      -0.949  11.836  22.325  0.00  0.00    +0.000 A 
ATOM     21  C   UNL     1      -2.255  11.510  22.746  0.00  0.00    +0.000 A 
ATOM     22  C   UNL     1      -3.050  12.425  23.451  0.00  0.00    +0.000 A 
ATOM     23  C   UNL     1      -2.547  13.687  23.779  0.00  0.00    +0.000 A 
ATOM     24  C   UNL     1      -1.251  14.022  23.373  0.00  0.00    +0.000 A 
ATOM     25  C   UNL     1      -0.485  13.129  22.622  0.00  0.00    +0.000 A 
BRANCH  23  26
ATOM     26  C   UNL     1      -3.376  14.703  24.528  0.00  0.00    +0.000 C 
ATOM     27  F   UNL     1      -3.265  15.967  24.038  0.00  0.00    +0.000 F 
ATOM     28  F   UNL     1      -4.703  14.403  24.507  0.00  0.00    +0.000 F 
ATOM     29  F   UNL     1      -3.031  14.777  25.843  0.00  0.00    +0.000 F 
ENDBRANCH  23  26
ENDBRANCH   8  20
BRANCH   1  33
ATOM     30  C   UNL     1       2.584   2.656  17.123  0.00  0.00    +0.000 C 
ATOM     31  C   UNL     1       3.441   3.641  17.877  0.00  0.00    +0.000 C 
ATOM     32  O   UNL     1       4.449   3.312  18.484  0.00  0.00    +0.000 OA
ATOM     33  N   UNL     1       2.982   4.939  17.793  0.00  0.00    +0.000 N 
ATOM     34  H   UNL     1       2.297   5.129  17.064  0.00  0.00    +0.000 HD
ENDBRANCH   1  33
TORSDOF 4
ENDMDL
MODEL 4
REMARK VINA RESULT:      -7.5      5.679      9.613
REMARK  Name = 
REMARK  5 active torsions:
REMARK  status: ('A' for Active; 'I' for Inactive)
REMARK    1  A    between atoms: C_1  and  C_2
REMARK    2  A    between atoms: N_4  and  C_5
REMARK    3  A    between atoms: C_12  and  C_13
REMARK    4  A    between atoms: C_16  and  C_17
REMARK    5  A    between atoms: C_23  and  C_24
REMARK                            x       y       z     vdW  Elec       q    Type
REMARK                         _______ _______ _______ _____ _____    ______ ____
ROOT
ATOM      1  C   UNL     1      -4.736  14.753  24.080  0.00  0.00    +0.000 C 
ATOM      2  C   UNL     1      -4.265  13.423  24.690  0.00  0.00    +0.000 C 
ATOM      3  C   UNL     1      -2.805  13.126  24.356  0.00  0.00    +0.000 C 
ATOM      4  N   UNL     1      -2.648  13.187  22.911  0.00  0.00    +0.000 N 
ATOM      5  C   UNL     1      -1.896  12.275  22.205  0.00  0.00    +0.000 A 
ATOM      6  C   UNL     1      -0.839  11.566  22.763  0.00  0.00    +0.000 A 
ATOM      7  N   UNL     1      -0.078  10.679  22.087  0.00  0.00    +0.000 NA
ATOM      8  C   UNL     1      -0.391  10.488  20.770  0.00  0.00    +0.000 A 
ATOM      9  C   UNL     1      -1.485  11.165  20.179  0.00  0.00    +0.000 A 
ATOM     10  N   UNL     1      -2.221  12.048  20.913  0.00  0.00    +0.000 NA
ATOM     11  C   UNL     1      -3.007  14.441  22.264  0.00  0.00    +0.000 C 
ATOM     12  C   UNL     1      -4.467  14.763  22.567  0.00  0.00    +0.000 C 
ENDROOT
BRANCH   9  13
ATOM     13  C   UNL     1      -1.941  11.012  18.765  0.00  0.00    +0.000 A 
ATOM     14  C   UNL     1      -2.723   9.901  18.380  0.00  0.00    +0.000 A 
ATOM     15  C   UNL     1      -2.948   9.629  17.036  0.00  0.00    +0.000 A 
ATOM     16  N   UNL     1      -2.554  10.439  16.041  0.00  0.00    +0.000 NA
ATOM     17  C   UNL     1      -1.914  11.569  16.413  0.00  0.00    +0.000 A 
ATOM     18  C   UNL     1      -1.578  11.894  17.728  0.00  0.00    +0.000 A 
ATOM     19 CL   UNL     1      -0.667  13.346  17.932  0.00  0.00    +0.000 Cl
ENDBRANCH   9  13
BRANCH   8  20
ATOM     20  C   UNL     1       0.550   9.560  20.101  0.00  0.00    +0.000 A 
ATOM     21  C   UNL     1       0.956   8.369  20.739  0.00  0.00    +0.000 A 
ATOM     22  C   UNL     1       1.835   7.468  20.123  0.00  0.00    +0.000 A 
ATOM     23  C   UNL     1       2.312   7.721  18.834  0.00  0.00    +0.000 A 
ATOM     24  C   UNL     1       1.914   8.895  18.186  0.00  0.00    +0.000 A 
ATOM     25  C   UNL     1       1.084   9.817  18.826  0.00  0.00    +0.000 A 
BRANCH  23  26
ATOM     26  C   UNL     1       3.268   6.779  18.141  0.00  0.00    +0.000 C 
ATOM     27  F   UNL     1       3.925   7.342  17.091  0.00  0.00    +0.000 F 
ATOM     28  F   UNL     1       4.229   6.309  18.981  0.00  0.00    +0.000 F 
ATOM     29  F   UNL     1       2.636   5.680  17.645  0.00  0.00    +0.000 F 
ENDBRANCH  23  26
ENDBRANCH   8  20
BRANCH   1  33
ATOM     30  C   UNL     1      -3.892  18.217  25.412  0.00  0.00    +0.000 C 
ATOM     31  C   UNL     1      -4.773  17.129  24.854  0.00  0.00    +0.000 C 
ATOM     32  O   UNL     1      -5.940  17.315  24.544  0.00  0.00    +0.000 OA
ATOM     33  N   UNL     1      -4.124  15.920  24.714  0.00  0.00    +0.000 N 
ATOM     34  H   UNL     1      -3.107  15.946  24.759  0.00  0.00    +0.000 HD
ENDBRANCH   1  33
TORSDOF 4
ENDMDL
MODEL 5
REMARK VINA RESULT:      -7.3      5.319      8.259
REMARK  Name = 
REMARK  5 active torsions:
REMARK  status: ('A' for Active; 'I' for Inactive)
REMARK    1  A    between atoms: C_1  and  C_2
REMARK    2  A    between atoms: N_4  and  C_5
REMARK    3  A    between atoms: C_12  and  C_13
REMARK    4  A    between atoms: C_16  and  C_17
REMARK    5  A    between atoms: C_23  and  C_24
REMARK                            x       y       z     vdW  Elec       q    Type
REMARK                         _______ _______ _______ _____ _____    ______ ____
ROOT
ATOM      1  C   UNL     1       6.026  15.246  20.665  0.00  0.00    +0.000 C 
ATOM      2  C   UNL     1       5.417  15.120  19.259  0.00  0.00    +0.000 C 
ATOM      3  C   UNL     1       3.943  15.518  19.235  0.00  0.00    +0.000 C 
ATOM      4  N   UNL     1       3.244  14.731  20.240  0.00  0.00    +0.000 N 
ATOM      5  C   UNL     1       2.007  14.169  20.018  0.00  0.00    +0.000 A 
ATOM      6  C   UNL     1       1.095  14.676  19.100  0.00  0.00    +0.000 A 
ATOM      7  N   UNL     1      -0.128  14.151  18.876  0.00  0.00    +0.000 NA
ATOM      8  C   UNL     1      -0.464  13.051  19.615  0.00  0.00    +0.000 A 
ATOM      9  C   UNL     1       0.455  12.485  20.531  0.00  0.00    +0.000 A 
ATOM     10  N   UNL     1       1.680  13.057  20.713  0.00  0.00    +0.000 NA
ATOM     11  C   UNL     1       3.717  14.850  21.613  0.00  0.00    +0.000 C 
ATOM     12  C   UNL     1       5.187  14.447  21.675  0.00  0.00    +0.000 C 
ENDROOT
BRANCH   9  13
ATOM     13  C   UNL     1       0.215  11.270  21.365  0.00  0.00    +0.000 A 
ATOM     14  C   UNL     1       0.725  10.015  20.967  0.00  0.00    +0.000 A 
ATOM     15  C   UNL     1       0.310   8.852  21.604  0.00  0.00    +0.000 A 
ATOM     16  N   UNL     1      -0.487   8.843  22.684  0.00  0.00    +0.000 NA
ATOM     17  C   UNL     1      -0.876  10.052  23.145  0.00  0.00    +0.000 A 
ATOM     18  C   UNL     1      -0.573  11.268  22.534  0.00  0.00    +0.000 A 
ATOM     19 CL   UNL     1      -1.276  12.668  23.260  0.00  0.00    +0.000 Cl
ENDBRANCH   9  13
BRANCH   8  20
ATOM     20  C   UNL     1      -1.851  12.604  19.352  0.00  0.00    +0.000 A 
ATOM     21  C   UNL     1      -2.908  13.022  20.188  0.00  0.00    +0.000 A 
ATOM     22  C   UNL     1      -4.231  12.625  19.954  0.00  0.00    +0.000 A 
ATOM     23  C   UNL     1      -4.539  11.816  18.857  0.00  0.00    +0.000 A 
ATOM     24  C   UNL     1      -3.502  11.398  18.015  0.00  0.00    +0.000 A 
ATOM     25  C   UNL     1      -2.179  11.749  18.285  0.00  0.00    +0.000 A 
BRANCH  23  26
ATOM     26  C   UNL     1      -5.951  11.359  18.577  0.00  0.00    +0.000 C 
ATOM     27  F   UNL     1      -6.429  11.767  17.370  0.00  0.00    +0.000 F 
ATOM     28  F   UNL     1      -6.067  10.003  18.591  0.00  0.00    +0.000 F 
ATOM     29  F   UNL     1      -6.833  11.818  19.507  0.00  0.00    +0.000 F 
ENDBRANCH  23  26
ENDBRANCH   8  20
BRANCH   1  33
ATOM     30  C   UNL     1       7.262  18.608  21.948  0.00  0.00    +0.000 C 
ATOM     31  C   UNL     1       7.384  17.216  21.383  0.00  0.00    +0.000 C 
ATOM     32  O   UNL     1       8.459  16.663  21.210  0.00  0.00    +0.000 OA
ATOM     33  N   UNL     1       6.165  16.634  21.104  0.00  0.00    +0.000 N 
ATOM     34  H   UNL     1       5.348  17.075  21.519  0.00  0.00    +0.000 HD
ENDBRANCH   1  33
TORSDOF 4
ENDMDL
MODEL 6
REMARK VINA RESULT:      -7.3      5.792      9.398
REMARK  Name = 
REMARK  5 active torsions:
REMARK  status: ('A' for Active; 'I' for Inactive)
REMARK    1  A    between atoms: C_1  and  C_2
REMARK    2  A    between atoms: N_4  and  C_5
REMARK    3  A    between atoms: C_12  and  C_13
REMARK    4  A    between atoms: C_16  and  C_17
REMARK    5  A    between atoms: C_23  and  C_24
REMARK                            x       y       z     vdW  Elec       q    Type
REMARK                         _______ _______ _______ _____ _____    ______ ____
ROOT
ATOM      1  C   UNL     1      -0.451  10.467  22.912  0.00  0.00    +0.000 C 
ATOM      2  C   UNL     1       0.790  11.038  22.207  0.00  0.00    +0.000 C 
ATOM      3  C   UNL     1       0.851  10.631  20.736  0.00  0.00    +0.000 C 
ATOM      4  N   UNL     1       0.760   9.181  20.662  0.00  0.00    +0.000 N 
ATOM      5  C   UNL     1       1.538   8.430  19.811  0.00  0.00    +0.000 A 
ATOM      6  C   UNL     1       2.073   8.928  18.629  0.00  0.00    +0.000 A 
ATOM      7  N   UNL     1       2.826   8.206  17.772  0.00  0.00    +0.000 NA
ATOM      8  C   UNL     1       3.060   6.904  18.115  0.00  0.00    +0.000 A 
ATOM      9  C   UNL     1       2.562   6.373  19.329  0.00  0.00    +0.000 A 
ATOM     10  N   UNL     1       1.809   7.152  20.159  0.00  0.00    +0.000 NA
ATOM     11  C   UNL     1      -0.424   8.566  21.246  0.00  0.00    +0.000 C 
ATOM     12  C   UNL     1      -0.510   8.943  22.722  0.00  0.00    +0.000 C 
ENDROOT
BRANCH   9  13
ATOM     13  C   UNL     1       2.779   4.981  19.824  0.00  0.00    +0.000 A 
ATOM     14  C   UNL     1       1.682   4.174  20.200  0.00  0.00    +0.000 A 
ATOM     15  C   UNL     1       1.888   2.979  20.878  0.00  0.00    +0.000 A 
ATOM     16  N   UNL     1       3.103   2.460  21.113  0.00  0.00    +0.000 NA
ATOM     17  C   UNL     1       4.152   3.168  20.642  0.00  0.00    +0.000 A 
ATOM     18  C   UNL     1       4.053   4.411  20.016  0.00  0.00    +0.000 A 
ATOM     19 CL   UNL     1       5.551   5.162  19.599  0.00  0.00    +0.000 Cl
ENDBRANCH   9  13
BRANCH   8  20
ATOM     20  C   UNL     1       3.824   6.180  17.073  0.00  0.00    +0.000 A 
ATOM     21  C   UNL     1       4.720   6.872  16.232  0.00  0.00    +0.000 A 
ATOM     22  C   UNL     1       5.466   6.210  15.248  0.00  0.00    +0.000 A 
ATOM     23  C   UNL     1       5.355   4.825  15.095  0.00  0.00    +0.000 A 
ATOM     24  C   UNL     1       4.474   4.123  15.925  0.00  0.00    +0.000 A 
ATOM     25  C   UNL     1       3.692   4.796  16.865  0.00  0.00    +0.000 A 
BRANCH  23  26
ATOM     26  C   UNL     1       6.134   4.077  14.039  0.00  0.00    +0.000 C 
ATOM     27  F   UNL     1       6.517   2.830  14.424  0.00  0.00    +0.000 F 
ATOM     28  F   UNL     1       5.423   3.917  12.890  0.00  0.00    +0.000 F 
ATOM     29  F   UNL     1       7.275   4.729  13.684  0.00  0.00    +0.000 F 
ENDBRANCH  23  26
ENDBRANCH   8  20
BRANCH   1  33
ATOM     30  C   UNL     1      -3.476  12.711  22.362  0.00  0.00    +0.000 C 
ATOM     31  C   UNL     1      -2.094  12.349  22.843  0.00  0.00    +0.000 C 
ATOM     32  O   UNL     1      -1.409  13.101  23.519  0.00  0.00    +0.000 OA
ATOM     33  N   UNL     1      -1.698  11.084  22.461  0.00  0.00    +0.000 N 
ATOM     34  H   UNL     1      -2.432  10.462  22.129  0.00  0.00    +0.000 HD
ENDBRANCH   1  33
TORSDOF 4
ENDMDL
MODEL 7
REMARK VINA RESULT:      -7.2      5.493      8.515
REMARK  Name = 
REMARK  5 active torsions:
REMARK  status: ('A' for Active; 'I' for Inactive)
REMARK    1  A    between atoms: C_1  and  C_2
REMARK    2  A    between atoms: N_4  and  C_5
REMARK    3  A    between atoms: C_12  and  C_13
REMARK    4  A    between atoms: C_16  and  C_17
REMARK    5  A    between atoms: C_23  and  C_24
REMARK                            x       y       z     vdW  Elec       q    Type
REMARK                         _______ _______ _______ _____ _____    ______ ____
ROOT
ATOM      1  C   UNL     1       4.462  15.356  18.171  0.00  0.00    +0.000 C 
ATOM      2  C   UNL     1       3.150  15.747  17.471  0.00  0.00    +0.000 C 
ATOM      3  C   UNL     1       2.079  16.185  18.467  0.00  0.00    +0.000 C 
ATOM      4  N   UNL     1       1.915  15.127  19.452  0.00  0.00    +0.000 N 
ATOM      5  C   UNL     1       0.682  14.724  19.913  0.00  0.00    +0.000 A 
ATOM      6  C   UNL     1      -0.434  15.552  19.923  0.00  0.00    +0.000 A 
ATOM      7  N   UNL     1      -1.649  15.183  20.384  0.00  0.00    +0.000 NA
ATOM      8  C   UNL     1      -1.756  13.909  20.868  0.00  0.00    +0.000 A 
ATOM      9  C   UNL     1      -0.649  13.027  20.839  0.00  0.00    +0.000 A 
ATOM     10  N   UNL     1       0.554  13.454  20.357  0.00  0.00    +0.000 NA
ATOM     11  C   UNL     1       3.099  14.745  20.209  0.00  0.00    +0.000 C 
ATOM     12  C   UNL     1       4.188  14.290  19.243  0.00  0.00    +0.000 C 
ENDROOT
BRANCH   9  13
ATOM     13  C   UNL     1      -0.656  11.609  21.306  0.00  0.00    +0.000 A 
ATOM     14  C   UNL     1      -0.829  11.306  22.675  0.00  0.00    +0.000 A 
ATOM     15  C   UNL     1      -0.601  10.018  23.145  0.00  0.00    +0.000 A 
ATOM     16  N   UNL     1      -0.324   8.976  22.346  0.00  0.00    +0.000 NA
ATOM     17  C   UNL     1      -0.282   9.238  21.021  0.00  0.00    +0.000 A 
ATOM     18  C   UNL     1      -0.425  10.507  20.459  0.00  0.00    +0.000 A 
ATOM     19 CL   UNL     1      -0.225  10.595  18.746  0.00  0.00    +0.000 Cl
ENDBRANCH   9  13
BRANCH   8  20
ATOM     20  C   UNL     1      -3.101  13.634  21.422  0.00  0.00    +0.000 A 
ATOM     21  C   UNL     1      -4.050  12.908  20.672  0.00  0.00    +0.000 A 
ATOM     22  C   UNL     1      -5.325  12.621  21.177  0.00  0.00    +0.000 A 
ATOM     23  C   UNL     1      -5.679  13.032  22.465  0.00  0.00    +0.000 A 
ATOM     24  C   UNL     1      -4.747  13.749  23.225  0.00  0.00    +0.000 A 
ATOM     25  C   UNL     1      -3.499  14.081  22.695  0.00  0.00    +0.000 A 
BRANCH  23  26
ATOM     26  C   UNL     1      -7.046  12.752  23.042  0.00  0.00    +0.000 C 
ATOM     27  F   UNL     1      -7.870  12.079  22.194  0.00  0.00    +0.000 F 
ATOM     28  F   UNL     1      -6.983  12.006  24.179  0.00  0.00    +0.000 F 
ATOM     29  F   UNL     1      -7.704  13.894  23.381  0.00  0.00    +0.000 F 
ENDBRANCH  23  26
ENDBRANCH   8  20
BRANCH   1  33
ATOM     30  C   UNL     1       7.010  17.785  19.616  0.00  0.00    +0.000 C 
ATOM     31  C   UNL     1       6.534  16.575  18.853  0.00  0.00    +0.000 C 
ATOM     32  O   UNL     1       7.296  15.742  18.388  0.00  0.00    +0.000 OA
ATOM     33  N   UNL     1       5.160  16.500  18.756  0.00  0.00    +0.000 N 
ATOM     34  H   UNL     1       4.629  17.096  19.388  0.00  0.00    +0.000 HD
ENDBRANCH   1  33
TORSDOF 4
ENDMDL
MODEL 8
REMARK VINA RESULT:      -7.2      5.761      9.383
REMARK  Name = 
REMARK  5 active torsions:
REMARK  status: ('A' for Active; 'I' for Inactive)
REMARK    1  A    between atoms: C_1  and  C_2
REMARK    2  A    between atoms: N_4  and  C_5
REMARK    3  A    between atoms: C_12  and  C_13
REMARK    4  A    between atoms: C_16  and  C_17
REMARK    5  A    between atoms: C_23  and  C_24
REMARK                            x       y       z     vdW  Elec       q    Type
REMARK                         _______ _______ _______ _____ _____    ______ ____
ROOT
ATOM      1  C   UNL     1      -0.497  10.522  22.877  0.00  0.00    +0.000 C 
ATOM      2  C   UNL     1       0.762  11.088  22.199  0.00  0.00    +0.000 C 
ATOM      3  C   UNL     1       0.849  10.688  20.729  0.00  0.00    +0.000 C 
ATOM      4  N   UNL     1       0.751   9.239  20.645  0.00  0.00    +0.000 N 
ATOM      5  C   UNL     1       1.541   8.486  19.806  0.00  0.00    +0.000 A 
ATOM      6  C   UNL     1       2.102   8.987  18.638  0.00  0.00    +0.000 A 
ATOM      7  N   UNL     1       2.868   8.264  17.792  0.00  0.00    +0.000 NA
ATOM      8  C   UNL     1       3.086   6.958  18.134  0.00  0.00    +0.000 A 
ATOM      9  C   UNL     1       2.561   6.425  19.336  0.00  0.00    +0.000 A 
ATOM     10  N   UNL     1       1.797   7.205  20.154  0.00  0.00    +0.000 NA
ATOM     11  C   UNL     1      -0.448   8.629  21.203  0.00  0.00    +0.000 C 
ATOM     12  C   UNL     1      -0.561   9.000  22.678  0.00  0.00    +0.000 C 
ENDROOT
BRANCH   9  13
ATOM     13  C   UNL     1       2.759   5.030  19.828  0.00  0.00    +0.000 A 
ATOM     14  C   UNL     1       1.653   4.240  20.211  0.00  0.00    +0.000 A 
ATOM     15  C   UNL     1       1.844   3.041  20.887  0.00  0.00    +0.000 A 
ATOM     16  N   UNL     1       3.052   2.503  21.113  0.00  0.00    +0.000 NA
ATOM     17  C   UNL     1       4.109   3.195  20.636  0.00  0.00    +0.000 A 
ATOM     18  C   UNL     1       4.026   4.439  20.011  0.00  0.00    +0.000 A 
ATOM     19 CL   UNL     1       5.532   5.167  19.584  0.00  0.00    +0.000 Cl
ENDBRANCH   9  13
BRANCH   8  20
ATOM     20  C   UNL     1       3.866   6.235  17.104  0.00  0.00    +0.000 A 
ATOM     21  C   UNL     1       3.654   4.858  16.881  0.00  0.00    +0.000 A 
ATOM     22  C   UNL     1       4.368   4.152  15.904  0.00  0.00    +0.000 A 
ATOM     23  C   UNL     1       5.300   4.814  15.099  0.00  0.00    +0.000 A 
ATOM     24  C   UNL     1       5.517   6.181  15.303  0.00  0.00    +0.000 A 
ATOM     25  C   UNL     1       4.845   6.867  16.316  0.00  0.00    +0.000 A 
BRANCH  23  26
ATOM     26  C   UNL     1       6.096   4.087  14.042  0.00  0.00    +0.000 C 
ATOM     27  F   UNL     1       7.104   4.829  13.509  0.00  0.00    +0.000 F 
ATOM     28  F   UNL     1       6.675   2.952  14.522  0.00  0.00    +0.000 F 
ATOM     29  F   UNL     1       5.321   3.695  12.993  0.00  0.00    +0.000 F 
ENDBRANCH  23  26
ENDBRANCH   8  20
BRANCH   1  33
ATOM     30  C   UNL     1      -3.501  12.782  22.286  0.00  0.00    +0.000 C 
ATOM     31  C   UNL     1      -2.133  12.409  22.797  0.00  0.00    +0.000 C 
ATOM     32  O   UNL     1      -1.464  13.149  23.502  0.00  0.00    +0.000 OA
ATOM     33  N   UNL     1      -1.730  11.149  22.404  0.00  0.00    +0.000 N 
ATOM     34  H   UNL     1      -2.457  10.535  22.044  0.00  0.00    +0.000 HD
ENDBRANCH   1  33
TORSDOF 4
ENDMDL
MODEL 9
REMARK VINA RESULT:      -7.2      1.162      1.394
REMARK  Name = 
REMARK  5 active torsions:
REMARK  status: ('A' for Active; 'I' for Inactive)
REMARK    1  A    between atoms: C_1  and  C_2
REMARK    2  A    between atoms: N_4  and  C_5
REMARK    3  A    between atoms: C_12  and  C_13
REMARK    4  A    between atoms: C_16  and  C_17
REMARK    5  A    between atoms: C_23  and  C_24
REMARK                            x       y       z     vdW  Elec       q    Type
REMARK                         _______ _______ _______ _____ _____    ______ ____
ROOT
ATOM      1  C   UNL     1       1.656   4.497  19.389  0.00  0.00    +0.000 C 
ATOM      2  C   UNL     1       1.654   5.200  18.022  0.00  0.00    +0.000 C 
ATOM      3  C   UNL     1       2.490   6.477  18.034  0.00  0.00    +0.000 C 
ATOM      4  N   UNL     1       2.014   7.322  19.120  0.00  0.00    +0.000 N 
ATOM      5  C   UNL     1       1.856   8.683  18.989  0.00  0.00    +0.000 A 
ATOM      6  C   UNL     1       2.574   9.448  18.078  0.00  0.00    +0.000 A 
ATOM      7  N   UNL     1       2.446  10.786  17.943  0.00  0.00    +0.000 NA
ATOM      8  C   UNL     1       1.545  11.398  18.769  0.00  0.00    +0.000 A 
ATOM      9  C   UNL     1       0.769  10.644  19.682  0.00  0.00    +0.000 A 
ATOM     10  N   UNL     1       0.939   9.294  19.772  0.00  0.00    +0.000 NA
ATOM     11  C   UNL     1       2.050   6.752  20.459  0.00  0.00    +0.000 C 
ATOM     12  C   UNL     1       1.213   5.477  20.486  0.00  0.00    +0.000 C 
ENDROOT
BRANCH   9  13
ATOM     13  C   UNL     1      -0.265  11.196  20.607  0.00  0.00    +0.000 A 
ATOM     14  C   UNL     1       0.025  11.384  21.977  0.00  0.00    +0.000 A 
ATOM     15  C   UNL     1      -0.992  11.669  22.879  0.00  0.00    +0.000 A 
ATOM     16  N   UNL     1      -2.264  11.897  22.514  0.00  0.00    +0.000 NA
ATOM     17  C   UNL     1      -2.520  11.842  21.189  0.00  0.00    +0.000 A 
ATOM     18  C   UNL     1      -1.585  11.493  20.214  0.00  0.00    +0.000 A 
ATOM     19 CL   UNL     1      -2.187  11.393  18.599  0.00  0.00    +0.000 Cl
ENDBRANCH   9  13
BRANCH   8  20
ATOM     20  C   UNL     1       1.540  12.869  18.597  0.00  0.00    +0.000 A 
ATOM     21  C   UNL     1       0.327  13.587  18.609  0.00  0.00    +0.000 A 
ATOM     22  C   UNL     1       0.295  14.981  18.462  0.00  0.00    +0.000 A 
ATOM     23  C   UNL     1       1.485  15.701  18.327  0.00  0.00    +0.000 A 
ATOM     24  C   UNL     1       2.698  15.003  18.319  0.00  0.00    +0.000 A 
ATOM     25  C   UNL     1       2.720  13.610  18.408  0.00  0.00    +0.000 A 
BRANCH  23  26
ATOM     26  C   UNL     1       1.492  17.201  18.157  0.00  0.00    +0.000 C 
ATOM     27  F   UNL     1       2.046  17.616  16.986  0.00  0.00    +0.000 F 
ATOM     28  F   UNL     1       0.238  17.730  18.191  0.00  0.00    +0.000 F 
ATOM     29  F   UNL     1       2.188  17.827  19.145  0.00  0.00    +0.000 F 
ENDBRANCH  23  26
ENDBRANCH   8  20
BRANCH   1  33
ATOM     30  C   UNL     1       4.606   2.181  20.040  0.00  0.00    +0.000 C 
ATOM     31  C   UNL     1       3.266   2.587  19.482  0.00  0.00    +0.000 C 
ATOM     32  O   UNL     1       2.532   1.811  18.890  0.00  0.00    +0.000 OA
ATOM     33  N   UNL     1       2.952   3.908  19.726  0.00  0.00    +0.000 N 
ATOM     34  H   UNL     1       3.508   4.381  20.436  0.00  0.00    +0.000 HD
ENDBRANCH   1  33
TORSDOF 4
ENDMDL
