MODEL 1
REMARK VINA RESULT:      -9.6      0.000      0.000
REMARK  Name = 
REMARK  8 active torsions:
REMARK  status: ('A' for Active; 'I' for Inactive)
REMARK    1  A    between atoms: C_1  and  C_2
REMARK    2  A    between atoms: C_2  and  C_3
REMARK    3  A    between atoms: C_3  and  S_4
REMARK    4  A    between atoms: S_4  and  N_7
REMARK    5  A    between atoms: N_7  and  C_8
REMARK    6  A    between atoms: C_13  and  C_14
REMARK    7  A    between atoms: N_16  and  C_17
REMARK    8  A    between atoms: C_22  and  C_23
REMARK                            x       y       z     vdW  Elec       q    Type
REMARK                         _______ _______ _______ _____ _____    ______ ____
ROOT
ATOM      1  C   UNL     1       2.257   7.121  19.337  0.00  0.00    +0.000 C 
ATOM      2  O   UNL     1       2.026   7.644  18.254  0.00  0.00    +0.000 OA
ATOM      3  N   UNL     1       1.895   7.692  20.553  0.00  0.00    +0.000 N 
ATOM      4  H   UNL     1       2.144   7.193  21.403  0.00  0.00    +0.000 HD
ENDROOT
BRANCH   3   5
ATOM      5  C   UNL     1       1.209   8.885  20.716  0.00  0.00    +0.000 A 
ATOM      6  C   UNL     1       1.039   9.806  19.535  0.00  0.00    +0.000 A 
ATOM      7  N   UNL     1       0.442  10.964  19.522  0.00  0.00    +0.000 NA
ATOM      8  C   UNL     1      -0.078  11.369  20.719  0.00  0.00    +0.000 A 
ATOM      9  C   UNL     1      -0.749  12.509  21.092  0.00  0.00    +0.000 A 
ATOM     10  C   UNL     1      -1.041  12.364  22.472  0.00  0.00    +0.000 A 
ATOM     11  N   UNL     1      -0.592  11.187  22.931  0.00  0.00    +0.000 NA
ATOM     12  N   UNL     1       0.008  10.589  21.872  0.00  0.00    +0.000 N 
ATOM     13  C   UNL     1       0.653   9.358  21.843  0.00  0.00    +0.000 A 
BRANCH  10  14
ATOM     14  C   UNL     1      -1.757  13.314  23.332  0.00  0.00    +0.000 A 
ATOM     15  C   UNL     1      -3.092  13.082  23.705  0.00  0.00    +0.000 A 
ATOM     16  C   UNL     1      -3.793  14.028  24.462  0.00  0.00    +0.000 A 
ATOM     17  C   UNL     1      -3.157  15.198  24.857  0.00  0.00    +0.000 A 
ATOM     18  F   UNL     1      -3.833  16.115  25.562  0.00  0.00    +0.000 F 
ATOM     19  C   UNL     1      -1.829  15.434  24.528  0.00  0.00    +0.000 A 
ATOM     20  C   UNL     1      -1.128  14.492  23.769  0.00  0.00    +0.000 A 
ENDBRANCH  10  14
ENDBRANCH   3   5
BRANCH   1  26
ATOM     21  C   UNL     1       4.845   4.446  18.546  0.00  0.00    +0.000 A 
ATOM     22  C   UNL     1       4.400   3.368  19.305  0.00  0.00    +0.000 A 
ATOM     23  C   UNL     1       3.261   3.514  20.104  0.00  0.00    +0.000 A 
ATOM     24  C   UNL     1       2.562   4.727  20.124  0.00  0.00    +0.000 A 
ATOM     25  F   UNL     1       1.488   4.821  20.926  0.00  0.00    +0.000 F 
ATOM     26  C   UNL     1       2.973   5.811  19.347  0.00  0.00    +0.000 A 
ATOM     27  C   UNL     1       4.121   5.647  18.552  0.00  0.00    +0.000 A 
ATOM     28  F   UNL     1       4.596   6.649  17.796  0.00  0.00    +0.000 F 
BRANCH  21  29
ATOM     29  N   UNL     1       6.022   4.307  17.728  0.00  0.00    +0.000 N 
ATOM     30  H   UNL     1       6.236   3.317  17.547  0.00  0.00    +0.000 HD
BRANCH  29  31
ATOM     31  S   UNL     1       7.463   4.962  18.367  0.00  0.00    +0.000 S 
ATOM     32  O   UNL     1       8.519   4.106  17.877  0.00  0.00    +0.000 OA
ATOM     33  O   UNL     1       7.281   5.236  19.777  0.00  0.00    +0.000 OA
BRANCH  31  34
ATOM     34  C   UNL     1       7.554   6.524  17.489  0.00  0.00    +0.000 C 
BRANCH  34  36
ATOM     35  C   UNL     1       8.039   8.994  17.775  0.00  0.00    +0.000 C 
ATOM     36  C   UNL     1       8.189   7.601  18.366  0.00  0.00    +0.000 C 
ENDBRANCH  34  36
ENDBRANCH  31  34
ENDBRANCH  29  31
ENDBRANCH  21  29
ENDBRANCH   1  26
TORSDOF 7
ENDMDL
MODEL 2
REMARK VINA RESULT:      -9.4      2.438      2.958
REMARK  Name = 
REMARK  8 active torsions:
REMARK  status: ('A' for Active; 'I' for Inactive)
REMARK    1  A    between atoms: C_1  and  C_2
REMARK    2  A    between atoms: C_2  and  C_3
REMARK    3  A    between atoms: C_3  and  S_4
REMARK    4  A    between atoms: S_4  and  N_7
REMARK    5  A    between atoms: N_7  and  C_8
REMARK    6  A    between atoms: C_13  and  C_14
REMARK    7  A    between atoms: N_16  and  C_17
REMARK    8  A    between atoms: C_22  and  C_23
REMARK                            x       y       z     vdW  Elec       q    Type
REMARK                         _______ _______ _______ _____ _____    ______ ____
ROOT
ATOM      1  C   UNL     1       2.413   6.731  19.065  0.00  0.00    +0.000 C 
ATOM      2  O   UNL     1       2.217   6.643  20.270  0.00  0.00    +0.000 OA
ATOM      3  N   UNL     1       2.134   7.877  18.327  0.00  0.00    +0.000 N 
ATOM      4  H   UNL     1       2.314   7.853  17.327  0.00  0.00    +0.000 HD
ENDROOT
BRANCH   3   5
ATOM      5  C   UNL     1       1.637   9.067  18.836  0.00  0.00    +0.000 A 
ATOM      6  C   UNL     1       2.028  10.368  18.183  0.00  0.00    +0.000 A 
ATOM      7  N   UNL     1       1.667  11.567  18.545  0.00  0.00    +0.000 NA
ATOM      8  C   UNL     1       0.848  11.629  19.637  0.00  0.00    +0.000 A 
ATOM      9  C   UNL     1       0.286  12.689  20.307  0.00  0.00    +0.000 A 
ATOM     10  C   UNL     1      -0.472  12.131  21.367  0.00  0.00    +0.000 A 
ATOM     11  N   UNL     1      -0.403  10.793  21.348  0.00  0.00    +0.000 NA
ATOM     12  N   UNL     1       0.413  10.487  20.308  0.00  0.00    +0.000 N 
ATOM     13  C   UNL     1       0.820   9.225  19.889  0.00  0.00    +0.000 A 
BRANCH  10  14
ATOM     14  C   UNL     1      -1.271  12.856  22.363  0.00  0.00    +0.000 A 
ATOM     15  C   UNL     1      -0.794  14.045  22.943  0.00  0.00    +0.000 A 
ATOM     16  C   UNL     1      -1.525  14.689  23.946  0.00  0.00    +0.000 A 
ATOM     17  C   UNL     1      -2.738  14.155  24.362  0.00  0.00    +0.000 A 
ATOM     18  F   UNL     1      -3.429  14.758  25.339  0.00  0.00    +0.000 F 
ATOM     19  C   UNL     1      -3.245  12.999  23.782  0.00  0.00    +0.000 A 
ATOM     20  C   UNL     1      -2.514  12.352  22.782  0.00  0.00    +0.000 A 
ENDBRANCH  10  14
ENDBRANCH   3   5
BRANCH   1  26
ATOM     21  C   UNL     1       4.864   4.497  17.199  0.00  0.00    +0.000 A 
ATOM     22  C   UNL     1       4.120   3.338  17.002  0.00  0.00    +0.000 A 
ATOM     23  C   UNL     1       2.815   3.267  17.501  0.00  0.00    +0.000 A 
ATOM     24  C   UNL     1       2.254   4.359  18.174  0.00  0.00    +0.000 A 
ATOM     25  F   UNL     1       1.005   4.229  18.653  0.00  0.00    +0.000 F 
ATOM     26  C   UNL     1       2.971   5.542  18.355  0.00  0.00    +0.000 A 
ATOM     27  C   UNL     1       4.282   5.596  17.849  0.00  0.00    +0.000 A 
ATOM     28  F   UNL     1       5.048   6.688  18.004  0.00  0.00    +0.000 F 
BRANCH  21  29
ATOM     29  N   UNL     1       6.212   4.576  16.697  0.00  0.00    +0.000 N 
ATOM     30  H   UNL     1       6.784   5.217  17.263  0.00  0.00    +0.000 HD
BRANCH  29  31
ATOM     31  S   UNL     1       6.384   5.132  15.092  0.00  0.00    +0.000 S 
ATOM     32  O   UNL     1       7.797   5.392  14.930  0.00  0.00    +0.000 OA
ATOM     33  O   UNL     1       5.377   6.135  14.821  0.00  0.00    +0.000 OA
BRANCH  31  34
ATOM     34  C   UNL     1       5.978   3.650  14.166  0.00  0.00    +0.000 C 
BRANCH  34  36
ATOM     35  C   UNL     1       5.503   2.965  11.773  0.00  0.00    +0.000 C 
ATOM     36  C   UNL     1       6.370   3.805  12.698  0.00  0.00    +0.000 C 
ENDBRANCH  34  36
ENDBRANCH  31  34
ENDBRANCH  29  31
ENDBRANCH  21  29
ENDBRANCH   1  26
TORSDOF 7
ENDMDL
MODEL 3
REMARK VINA RESULT:      -9.3      1.715      2.076
REMARK  Name = 
REMARK  8 active torsions:
REMARK  status: ('A' for Active; 'I' for Inactive)
REMARK    1  A    between atoms: C_1  and  C_2
REMARK    2  A    between atoms: C_2  and  C_3
REMARK    3  A    between atoms: C_3  and  S_4
REMARK    4  A    between atoms: S_4  and  N_7
REMARK    5  A    between atoms: N_7  and  C_8
REMARK    6  A    between atoms: C_13  and  C_14
REMARK    7  A    between atoms: N_16  and  C_17
REMARK    8  A    between atoms: C_22  and  C_23
REMARK                            x       y       z     vdW  Elec       q    Type
REMARK                         _______ _______ _______ _____ _____    ______ ____
ROOT
ATOM      1  C   UNL     1       2.254   6.659  19.286  0.00  0.00    +0.000 C 
ATOM      2  O   UNL     1       1.838   6.531  20.431  0.00  0.00    +0.000 OA
ATOM      3  N   UNL     1       2.146   7.841  18.561  0.00  0.00    +0.000 N 
ATOM      4  H   UNL     1       2.506   7.849  17.611  0.00  0.00    +0.000 HD
ENDROOT
BRANCH   3   5
ATOM      5  C   UNL     1       1.596   9.027  19.023  0.00  0.00    +0.000 A 
ATOM      6  C   UNL     1       1.848  10.303  18.261  0.00  0.00    +0.000 A 
ATOM      7  N   UNL     1       1.423  11.496  18.566  0.00  0.00    +0.000 NA
ATOM      8  C   UNL     1       0.671  11.578  19.705  0.00  0.00    +0.000 A 
ATOM      9  C   UNL     1       0.076  12.641  20.340  0.00  0.00    +0.000 A 
ATOM     10  C   UNL     1      -0.573  12.108  21.482  0.00  0.00    +0.000 A 
ATOM     11  N   UNL     1      -0.406  10.780  21.547  0.00  0.00    +0.000 NA
ATOM     12  N   UNL     1       0.363  10.458  20.477  0.00  0.00    +0.000 N 
ATOM     13  C   UNL     1       0.835   9.202  20.116  0.00  0.00    +0.000 A 
BRANCH  10  14
ATOM     14  C   UNL     1      -1.359  12.844  22.480  0.00  0.00    +0.000 A 
ATOM     15  C   UNL     1      -0.866  14.028  23.056  0.00  0.00    +0.000 A 
ATOM     16  C   UNL     1      -1.586  14.683  24.061  0.00  0.00    +0.000 A 
ATOM     17  C   UNL     1      -2.804  14.164  24.481  0.00  0.00    +0.000 A 
ATOM     18  F   UNL     1      -3.484  14.778  25.459  0.00  0.00    +0.000 F 
ATOM     19  C   UNL     1      -3.327  13.014  23.904  0.00  0.00    +0.000 A 
ATOM     20  C   UNL     1      -2.607  12.356  22.903  0.00  0.00    +0.000 A 
ENDBRANCH  10  14
ENDBRANCH   3   5
BRANCH   1  26
ATOM     21  C   UNL     1       4.905   4.097  18.343  0.00  0.00    +0.000 A 
ATOM     22  C   UNL     1       4.216   3.265  17.466  0.00  0.00    +0.000 A 
ATOM     23  C   UNL     1       2.869   3.521  17.193  0.00  0.00    +0.000 A 
ATOM     24  C   UNL     1       2.223   4.615  17.781  0.00  0.00    +0.000 A 
ATOM     25  F   UNL     1       0.921   4.801  17.503  0.00  0.00    +0.000 F 
ATOM     26  C   UNL     1       2.903   5.480  18.639  0.00  0.00    +0.000 A 
ATOM     27  C   UNL     1       4.257   5.207  18.904  0.00  0.00    +0.000 A 
ATOM     28  F   UNL     1       4.975   5.976  19.738  0.00  0.00    +0.000 F 
BRANCH  21  29
ATOM     29  N   UNL     1       6.291   3.837  18.636  0.00  0.00    +0.000 N 
ATOM     30  H   UNL     1       6.516   4.070  19.613  0.00  0.00    +0.000 HD
BRANCH  29  31
ATOM     31  S   UNL     1       7.431   4.698  17.703  0.00  0.00    +0.000 S 
ATOM     32  O   UNL     1       8.668   3.962  17.840  0.00  0.00    +0.000 OA
ATOM     33  O   UNL     1       7.334   6.110  18.009  0.00  0.00    +0.000 OA
BRANCH  31  34
ATOM     34  C   UNL     1       6.799   4.428  16.046  0.00  0.00    +0.000 C 
BRANCH  34  36
ATOM     35  C   UNL     1       5.122   6.208  15.384  0.00  0.00    +0.000 C 
ATOM     36  C   UNL     1       6.573   5.758  15.329  0.00  0.00    +0.000 C 
ENDBRANCH  34  36
ENDBRANCH  31  34
ENDBRANCH  29  31
ENDBRANCH  21  29
ENDBRANCH   1  26
TORSDOF 7
ENDMDL
MODEL 4
REMARK VINA RESULT:      -9.2      1.668      1.941
REMARK  Name = 
REMARK  8 active torsions:
REMARK  status: ('A' for Active; 'I' for Inactive)
REMARK    1  A    between atoms: C_1  and  C_2
REMARK    2  A    between atoms: C_2  and  C_3
REMARK    3  A    between atoms: C_3  and  S_4
REMARK    4  A    between atoms: S_4  and  N_7
REMARK    5  A    between atoms: N_7  and  C_8
REMARK    6  A    between atoms: C_13  and  C_14
REMARK    7  A    between atoms: N_16  and  C_17
REMARK    8  A    between atoms: C_22  and  C_23
REMARK                            x       y       z     vdW  Elec       q    Type
REMARK                         _______ _______ _______ _____ _____    ______ ____
ROOT
ATOM      1  C   UNL     1       2.155   6.463  19.527  0.00  0.00    +0.000 C 
ATOM      2  O   UNL     1       1.636   6.327  20.628  0.00  0.00    +0.000 OA
ATOM      3  N   UNL     1       2.121   7.655  18.809  0.00  0.00    +0.000 N 
ATOM      4  H   UNL     1       2.565   7.670  17.895  0.00  0.00    +0.000 HD
ENDROOT
BRANCH   3   5
ATOM      5  C   UNL     1       1.542   8.840  19.234  0.00  0.00    +0.000 A 
ATOM      6  C   UNL     1       1.661  10.070  18.371  0.00  0.00    +0.000 A 
ATOM      7  N   UNL     1       1.194  11.259  18.630  0.00  0.00    +0.000 NA
ATOM      8  C   UNL     1       0.528  11.382  19.817  0.00  0.00    +0.000 A 
ATOM      9  C   UNL     1      -0.076  12.455  20.426  0.00  0.00    +0.000 A 
ATOM     10  C   UNL     1      -0.602  11.972  21.651  0.00  0.00    +0.000 A 
ATOM     11  N   UNL     1      -0.355  10.662  21.790  0.00  0.00    +0.000 NA
ATOM     12  N   UNL     1       0.346  10.305  20.685  0.00  0.00    +0.000 N 
ATOM     13  C   UNL     1       0.860   9.053  20.371  0.00  0.00    +0.000 A 
BRANCH  10  14
ATOM     14  C   UNL     1      -1.349  12.735  22.658  0.00  0.00    +0.000 A 
ATOM     15  C   UNL     1      -2.600  12.288  23.119  0.00  0.00    +0.000 A 
ATOM     16  C   UNL     1      -3.342  13.058  24.021  0.00  0.00    +0.000 A 
ATOM     17  C   UNL     1      -2.829  14.268  24.474  0.00  0.00    +0.000 A 
ATOM     18  F   UNL     1      -3.548  15.017  25.321  0.00  0.00    +0.000 F 
ATOM     19  C   UNL     1      -1.582  14.714  24.058  0.00  0.00    +0.000 A 
ATOM     20  C   UNL     1      -0.841  13.948  23.153  0.00  0.00    +0.000 A 
ENDBRANCH  10  14
ENDBRANCH   3   5
BRANCH   1  26
ATOM     21  C   UNL     1       4.944   4.082  18.512  0.00  0.00    +0.000 A 
ATOM     22  C   UNL     1       4.252   3.088  17.827  0.00  0.00    +0.000 A 
ATOM     23  C   UNL     1       2.861   3.175  17.711  0.00  0.00    +0.000 A 
ATOM     24  C   UNL     1       2.172   4.262  18.261  0.00  0.00    +0.000 A 
ATOM     25  F   UNL     1       0.834   4.285  18.142  0.00  0.00    +0.000 F 
ATOM     26  C   UNL     1       2.849   5.286  18.926  0.00  0.00    +0.000 A 
ATOM     27  C   UNL     1       4.247   5.181  19.035  0.00  0.00    +0.000 A 
ATOM     28  F   UNL     1       4.969   6.110  19.682  0.00  0.00    +0.000 F 
BRANCH  21  29
ATOM     29  N   UNL     1       6.376   3.996  18.645  0.00  0.00    +0.000 N 
ATOM     30  H   UNL     1       6.683   4.295  19.580  0.00  0.00    +0.000 HD
BRANCH  29  31
ATOM     31  S   UNL     1       7.288   4.942  17.556  0.00  0.00    +0.000 S 
ATOM     32  O   UNL     1       8.340   4.070  17.084  0.00  0.00    +0.000 OA
ATOM     33  O   UNL     1       7.564   6.231  18.155  0.00  0.00    +0.000 OA
BRANCH  31  34
ATOM     34  C   UNL     1       6.110   5.172  16.223  0.00  0.00    +0.000 C 
BRANCH  34  36
ATOM     35  C   UNL     1       7.143   4.893  13.926  0.00  0.00    +0.000 C 
ATOM     36  C   UNL     1       6.406   4.214  15.069  0.00  0.00    +0.000 C 
ENDBRANCH  34  36
ENDBRANCH  31  34
ENDBRANCH  29  31
ENDBRANCH  21  29
ENDBRANCH   1  26
TORSDOF 7
ENDMDL
MODEL 5
REMARK VINA RESULT:      -9.1      1.055      1.116
REMARK  Name = 
REMARK  8 active torsions:
REMARK  status: ('A' for Active; 'I' for Inactive)
REMARK    1  A    between atoms: C_1  and  C_2
REMARK    2  A    between atoms: C_2  and  C_3
REMARK    3  A    between atoms: C_3  and  S_4
REMARK    4  A    between atoms: S_4  and  N_7
REMARK    5  A    between atoms: N_7  and  C_8
REMARK    6  A    between atoms: C_13  and  C_14
REMARK    7  A    between atoms: N_16  and  C_17
REMARK    8  A    between atoms: C_22  and  C_23
REMARK                            x       y       z     vdW  Elec       q    Type
REMARK                         _______ _______ _______ _____ _____    ______ ____
ROOT
ATOM      1  C   UNL     1       2.032   6.589  19.620  0.00  0.00    +0.000 C 
ATOM      2  O   UNL     1       1.656   6.502  20.782  0.00  0.00    +0.000 OA
ATOM      3  N   UNL     1       1.888   7.743  18.856  0.00  0.00    +0.000 N 
ATOM      4  H   UNL     1       2.216   7.718  17.894  0.00  0.00    +0.000 HD
ENDROOT
BRANCH   3   5
ATOM      5  C   UNL     1       1.345   8.942  19.292  0.00  0.00    +0.000 A 
ATOM      6  C   UNL     1       1.529  10.183  18.456  0.00  0.00    +0.000 A 
ATOM      7  N   UNL     1       1.102  11.383  18.729  0.00  0.00    +0.000 NA
ATOM      8  C   UNL     1       0.416  11.508  19.905  0.00  0.00    +0.000 A 
ATOM      9  C   UNL     1      -0.160  12.592  20.522  0.00  0.00    +0.000 A 
ATOM     10  C   UNL     1      -0.730  12.106  21.726  0.00  0.00    +0.000 A 
ATOM     11  N   UNL     1      -0.536  10.785  21.844  0.00  0.00    +0.000 NA
ATOM     12  N   UNL     1       0.175  10.423  20.747  0.00  0.00    +0.000 N 
ATOM     13  C   UNL     1       0.647   9.158  20.418  0.00  0.00    +0.000 A 
BRANCH  10  14
ATOM     14  C   UNL     1      -1.470  12.877  22.732  0.00  0.00    +0.000 A 
ATOM     15  C   UNL     1      -2.718  12.436  23.205  0.00  0.00    +0.000 A 
ATOM     16  C   UNL     1      -3.452  13.214  24.107  0.00  0.00    +0.000 A 
ATOM     17  C   UNL     1      -2.935  14.425  24.547  0.00  0.00    +0.000 A 
ATOM     18  F   UNL     1      -3.647  15.182  25.393  0.00  0.00    +0.000 F 
ATOM     19  C   UNL     1      -1.690  14.867  24.120  0.00  0.00    +0.000 A 
ATOM     20  C   UNL     1      -0.957  14.093  23.216  0.00  0.00    +0.000 A 
ENDBRANCH  10  14
ENDBRANCH   3   5
BRANCH   1  26
ATOM     21  C   UNL     1       4.473   4.461  17.622  0.00  0.00    +0.000 A 
ATOM     22  C   UNL     1       3.946   3.183  17.774  0.00  0.00    +0.000 A 
ATOM     23  C   UNL     1       2.799   3.001  18.553  0.00  0.00    +0.000 A 
ATOM     24  C   UNL     1       2.173   4.097  19.158  0.00  0.00    +0.000 A 
ATOM     25  F   UNL     1       1.088   3.863  19.915  0.00  0.00    +0.000 F 
ATOM     26  C   UNL     1       2.667   5.392  18.994  0.00  0.00    +0.000 A 
ATOM     27  C   UNL     1       3.822   5.556  18.209  0.00  0.00    +0.000 A 
ATOM     28  F   UNL     1       4.375   6.765  18.023  0.00  0.00    +0.000 F 
BRANCH  21  29
ATOM     29  N   UNL     1       5.659   4.657  16.829  0.00  0.00    +0.000 N 
ATOM     30  H   UNL     1       5.878   3.820  16.273  0.00  0.00    +0.000 HD
BRANCH  29  31
ATOM     31  S   UNL     1       7.091   5.003  17.691  0.00  0.00    +0.000 S 
ATOM     32  O   UNL     1       8.114   4.195  17.068  0.00  0.00    +0.000 OA
ATOM     33  O   UNL     1       6.820   4.947  19.112  0.00  0.00    +0.000 OA
BRANCH  31  34
ATOM     34  C   UNL     1       7.369   6.714  17.230  0.00  0.00    +0.000 C 
BRANCH  34  36
ATOM     35  C   UNL     1       8.288   8.938  18.024  0.00  0.00    +0.000 C 
ATOM     36  C   UNL     1       8.086   7.467  18.350  0.00  0.00    +0.000 C 
ENDBRANCH  34  36
ENDBRANCH  31  34
ENDBRANCH  29  31
ENDBRANCH  21  29
ENDBRANCH   1  26
TORSDOF 7
ENDMDL
MODEL 6
REMARK VINA RESULT:      -9.1      2.124      2.585
REMARK  Name = 
REMARK  8 active torsions:
REMARK  status: ('A' for Active; 'I' for Inactive)
REMARK    1  A    between atoms: C_1  and  C_2
REMARK    2  A    between atoms: C_2  and  C_3
REMARK    3  A    between atoms: C_3  and  S_4
REMARK    4  A    between atoms: S_4  and  N_7
REMARK    5  A    between atoms: N_7  and  C_8
REMARK    6  A    between atoms: C_13  and  C_14
REMARK    7  A    between atoms: N_16  and  C_17
REMARK    8  A    between atoms: C_22  and  C_23
REMARK                            x       y       z     vdW  Elec       q    Type
REMARK                         _______ _______ _______ _____ _____    ______ ____
ROOT
ATOM      1  C   UNL     1       1.913   5.991  19.756  0.00  0.00    +0.000 C 
ATOM      2  O   UNL     1       1.194   5.519  20.628  0.00  0.00    +0.000 OA
ATOM      3  N   UNL     1       2.032   7.357  19.520  0.00  0.00    +0.000 N 
ATOM      4  H   UNL     1       2.641   7.655  18.763  0.00  0.00    +0.000 HD
ENDROOT
BRANCH   3   5
ATOM      5  C   UNL     1       1.399   8.361  20.236  0.00  0.00    +0.000 A 
ATOM      6  C   UNL     1       1.681   8.506  21.710  0.00  0.00    +0.000 A 
ATOM      7  N   UNL     1       1.160   9.377  22.526  0.00  0.00    +0.000 NA
ATOM      8  C   UNL     1       0.264  10.244  21.966  0.00  0.00    +0.000 A 
ATOM      9  C   UNL     1      -0.484  11.266  22.498  0.00  0.00    +0.000 A 
ATOM     10  C   UNL     1      -1.235  11.810  21.425  0.00  0.00    +0.000 A 
ATOM     11  N   UNL     1      -0.956  11.172  20.280  0.00  0.00    +0.000 NA
ATOM     12  N   UNL     1      -0.059  10.209  20.610  0.00  0.00    +0.000 N 
ATOM     13  C   UNL     1       0.520   9.263  19.772  0.00  0.00    +0.000 A 
BRANCH  10  14
ATOM     14  C   UNL     1      -2.179  12.932  21.482  0.00  0.00    +0.000 A 
ATOM     15  C   UNL     1      -3.372  12.908  20.740  0.00  0.00    +0.000 A 
ATOM     16  C   UNL     1      -4.231  14.013  20.739  0.00  0.00    +0.000 A 
ATOM     17  C   UNL     1      -3.906  15.135  21.489  0.00  0.00    +0.000 A 
ATOM     18  F   UNL     1      -4.716  16.202  21.472  0.00  0.00    +0.000 F 
ATOM     19  C   UNL     1      -2.749  15.169  22.256  0.00  0.00    +0.000 A 
ATOM     20  C   UNL     1      -1.888  14.069  22.255  0.00  0.00    +0.000 A 
ENDBRANCH  10  14
ENDBRANCH   3   5
BRANCH   1  26
ATOM     21  C   UNL     1       4.854   4.044  18.328  0.00  0.00    +0.000 A 
ATOM     22  C   UNL     1       4.251   3.280  17.334  0.00  0.00    +0.000 A 
ATOM     23  C   UNL     1       2.870   3.377  17.137  0.00  0.00    +0.000 A 
ATOM     24  C   UNL     1       2.103   4.249  17.919  0.00  0.00    +0.000 A 
ATOM     25  F   UNL     1       0.777   4.285  17.704  0.00  0.00    +0.000 F 
ATOM     26  C   UNL     1       2.692   5.047  18.900  0.00  0.00    +0.000 A 
ATOM     27  C   UNL     1       4.081   4.936  19.087  0.00  0.00    +0.000 A 
ATOM     28  F   UNL     1       4.720   5.649  20.027  0.00  0.00    +0.000 F 
BRANCH  21  29
ATOM     29  N   UNL     1       6.275   3.945  18.544  0.00  0.00    +0.000 N 
ATOM     30  H   UNL     1       6.516   4.122  19.529  0.00  0.00    +0.000 HD
BRANCH  29  31
ATOM     31  S   UNL     1       7.248   5.024  17.649  0.00  0.00    +0.000 S 
ATOM     32  O   UNL     1       8.312   4.212  17.103  0.00  0.00    +0.000 OA
ATOM     33  O   UNL     1       7.508   6.207  18.443  0.00  0.00    +0.000 OA
BRANCH  31  34
ATOM     34  C   UNL     1       6.137   5.466  16.312  0.00  0.00    +0.000 C 
BRANCH  34  36
ATOM     35  C   UNL     1       6.138   3.919  14.305  0.00  0.00    +0.000 C 
ATOM     36  C   UNL     1       6.765   5.141  14.957  0.00  0.00    +0.000 C 
ENDBRANCH  34  36
ENDBRANCH  31  34
ENDBRANCH  29  31
ENDBRANCH  21  29
ENDBRANCH   1  26
TORSDOF 7
ENDMDL
MODEL 7
REMARK VINA RESULT:      -9.1      1.269      1.707
REMARK  Name = 
REMARK  8 active torsions:
REMARK  status: ('A' for Active; 'I' for Inactive)
REMARK    1  A    between atoms: C_1  and  C_2
REMARK    2  A    between atoms: C_2  and  C_3
REMARK    3  A    between atoms: C_3  and  S_4
REMARK    4  A    between atoms: S_4  and  N_7
REMARK    5  A    between atoms: N_7  and  C_8
REMARK    6  A    between atoms: C_13  and  C_14
REMARK    7  A    between atoms: N_16  and  C_17
REMARK    8  A    between atoms: C_22  and  C_23
REMARK                            x       y       z     vdW  Elec       q    Type
REMARK                         _______ _______ _______ _____ _____    ______ ____
ROOT
ATOM      1  C   UNL     1       1.854   5.813  20.320  0.00  0.00    +0.000 C 
ATOM      2  O   UNL     1       0.674   5.532  20.487  0.00  0.00    +0.000 OA
ATOM      3  N   UNL     1       2.320   7.120  20.215  0.00  0.00    +0.000 N 
ATOM      4  H   UNL     1       3.316   7.257  20.060  0.00  0.00    +0.000 HD
ENDROOT
BRANCH   3   5
ATOM      5  C   UNL     1       1.547   8.267  20.314  0.00  0.00    +0.000 A 
ATOM      6  C   UNL     1       1.372   9.146  19.102  0.00  0.00    +0.000 A 
ATOM      7  N   UNL     1       0.699  10.259  19.032  0.00  0.00    +0.000 NA
ATOM      8  C   UNL     1       0.095  10.654  20.192  0.00  0.00    +0.000 A 
ATOM      9  C   UNL     1      -0.669  11.753  20.504  0.00  0.00    +0.000 A 
ATOM     10  C   UNL     1      -1.016  11.621  21.872  0.00  0.00    +0.000 A 
ATOM     11  N   UNL     1      -0.511  10.489  22.382  0.00  0.00    +0.000 NA
ATOM     12  N   UNL     1       0.179   9.910  21.368  0.00  0.00    +0.000 N 
ATOM     13  C   UNL     1       0.907   8.726  21.402  0.00  0.00    +0.000 A 
BRANCH  10  14
ATOM     14  C   UNL     1      -1.836  12.538  22.672  0.00  0.00    +0.000 A 
ATOM     15  C   UNL     1      -1.659  13.930  22.579  0.00  0.00    +0.000 A 
ATOM     16  C   UNL     1      -2.391  14.796  23.400  0.00  0.00    +0.000 A 
ATOM     17  C   UNL     1      -3.307  14.273  24.303  0.00  0.00    +0.000 A 
ATOM     18  F   UNL     1      -3.992  15.099  25.106  0.00  0.00    +0.000 F 
ATOM     19  C   UNL     1      -3.523  12.904  24.390  0.00  0.00    +0.000 A 
ATOM     20  C   UNL     1      -2.790  12.038  23.574  0.00  0.00    +0.000 A 
ENDBRANCH  10  14
ENDBRANCH   3   5
BRANCH   1  26
ATOM     21  C   UNL     1       4.797   3.732  19.101  0.00  0.00    +0.000 A 
ATOM     22  C   UNL     1       4.747   2.625  19.942  0.00  0.00    +0.000 A 
ATOM     23  C   UNL     1       3.763   2.560  20.934  0.00  0.00    +0.000 A 
ATOM     24  C   UNL     1       2.824   3.589  21.067  0.00  0.00    +0.000 A 
ATOM     25  F   UNL     1       1.914   3.488  22.051  0.00  0.00    +0.000 F 
ATOM     26  C   UNL     1       2.836   4.694  20.214  0.00  0.00    +0.000 A 
ATOM     27  C   UNL     1       3.834   4.744  19.224  0.00  0.00    +0.000 A 
ATOM     28  F   UNL     1       3.931   5.784  18.382  0.00  0.00    +0.000 F 
BRANCH  21  29
ATOM     29  N   UNL     1       5.812   3.811  18.082  0.00  0.00    +0.000 N 
ATOM     30  H   UNL     1       6.202   2.883  17.870  0.00  0.00    +0.000 HD
BRANCH  29  31
ATOM     31  S   UNL     1       7.165   4.786  18.445  0.00  0.00    +0.000 S 
ATOM     32  O   UNL     1       8.304   4.067  17.919  0.00  0.00    +0.000 OA
ATOM     33  O   UNL     1       7.092   5.213  19.826  0.00  0.00    +0.000 OA
BRANCH  31  34
ATOM     34  C   UNL     1       6.863   6.206  17.391  0.00  0.00    +0.000 C 
BRANCH  34  36
ATOM     35  C   UNL     1       5.326   6.165  15.377  0.00  0.00    +0.000 C 
ATOM     36  C   UNL     1       6.684   5.772  15.937  0.00  0.00    +0.000 C 
ENDBRANCH  34  36
ENDBRANCH  31  34
ENDBRANCH  29  31
ENDBRANCH  21  29
ENDBRANCH   1  26
TORSDOF 7
ENDMDL
MODEL 8
REMARK VINA RESULT:      -9.0      1.070      1.407
REMARK  Name = 
REMARK  8 active torsions:
REMARK  status: ('A' for Active; 'I' for Inactive)
REMARK    1  A    between atoms: C_1  and  C_2
REMARK    2  A    between atoms: C_2  and  C_3
REMARK    3  A    between atoms: C_3  and  S_4
REMARK    4  A    between atoms: S_4  and  N_7
REMARK    5  A    between atoms: N_7  and  C_8
REMARK    6  A    between atoms: C_13  and  C_14
REMARK    7  A    between atoms: N_16  and  C_17
REMARK    8  A    between atoms: C_22  and  C_23
REMARK                            x       y       z     vdW  Elec       q    Type
REMARK                         _______ _______ _______ _____ _____    ______ ____
ROOT
ATOM      1  C   UNL     1       2.082   6.190  20.028  0.00  0.00    +0.000 C 
ATOM      2  O   UNL     1       1.189   5.967  20.835  0.00  0.00    +0.000 OA
ATOM      3  N   UNL     1       2.291   7.437  19.445  0.00  0.00    +0.000 N 
ATOM      4  H   UNL     1       3.048   7.525  18.772  0.00  0.00    +0.000 HD
ENDROOT
BRANCH   3   5
ATOM      5  C   UNL     1       1.561   8.586  19.707  0.00  0.00    +0.000 A 
ATOM      6  C   UNL     1       1.324   9.578  18.597  0.00  0.00    +0.000 A 
ATOM      7  N   UNL     1       0.680  10.708  18.680  0.00  0.00    +0.000 NA
ATOM      8  C   UNL     1       0.175  11.007  19.914  0.00  0.00    +0.000 A 
ATOM      9  C   UNL     1      -0.532  12.089  20.381  0.00  0.00    +0.000 A 
ATOM     10  C   UNL     1      -0.781  11.837  21.754  0.00  0.00    +0.000 A 
ATOM     11  N   UNL     1      -0.273  10.651  22.119  0.00  0.00    +0.000 NA
ATOM     12  N   UNL     1       0.322  10.154  21.007  0.00  0.00    +0.000 N 
ATOM     13  C   UNL     1       1.016   8.956  20.877  0.00  0.00    +0.000 A 
BRANCH  10  14
ATOM     14  C   UNL     1      -1.513  12.694  22.695  0.00  0.00    +0.000 A 
ATOM     15  C   UNL     1      -0.946  13.889  23.171  0.00  0.00    +0.000 A 
ATOM     16  C   UNL     1      -1.616  14.663  24.125  0.00  0.00    +0.000 A 
ATOM     17  C   UNL     1      -2.857  14.251  24.594  0.00  0.00    +0.000 A 
ATOM     18  F   UNL     1      -3.490  14.978  25.524  0.00  0.00    +0.000 F 
ATOM     19  C   UNL     1      -3.452  13.091  24.113  0.00  0.00    +0.000 A 
ATOM     20  C   UNL     1      -2.782  12.316  23.163  0.00  0.00    +0.000 A 
ENDBRANCH  10  14
ENDBRANCH   3   5
BRANCH   1  26
ATOM     21  C   UNL     1       4.693   4.176  18.130  0.00  0.00    +0.000 A 
ATOM     22  C   UNL     1       4.733   2.987  18.851  0.00  0.00    +0.000 A 
ATOM     23  C   UNL     1       3.923   2.842  19.982  0.00  0.00    +0.000 A 
ATOM     24  C   UNL     1       3.064   3.875  20.374  0.00  0.00    +0.000 A 
ATOM     25  F   UNL     1       2.324   3.693  21.481  0.00  0.00    +0.000 F 
ATOM     26  C   UNL     1       2.984   5.063  19.647  0.00  0.00    +0.000 A 
ATOM     27  C   UNL     1       3.808   5.193  18.514  0.00  0.00    +0.000 A 
ATOM     28  F   UNL     1       3.811   6.315  17.777  0.00  0.00    +0.000 F 
BRANCH  21  29
ATOM     29  N   UNL     1       5.531   4.337  16.969  0.00  0.00    +0.000 N 
ATOM     30  H   UNL     1       5.631   3.451  16.455  0.00  0.00    +0.000 HD
BRANCH  29  31
ATOM     31  S   UNL     1       7.128   4.862  17.263  0.00  0.00    +0.000 S 
ATOM     32  O   UNL     1       7.880   4.458  16.096  0.00  0.00    +0.000 OA
ATOM     33  O   UNL     1       7.519   4.483  18.604  0.00  0.00    +0.000 OA
BRANCH  31  34
ATOM     34  C   UNL     1       6.924   6.643  17.209  0.00  0.00    +0.000 C 
BRANCH  34  36
ATOM     35  C   UNL     1       8.130   8.783  17.833  0.00  0.00    +0.000 C 
ATOM     36  C   UNL     1       7.875   7.327  18.190  0.00  0.00    +0.000 C 
ENDBRANCH  34  36
ENDBRANCH  31  34
ENDBRANCH  29  31
ENDBRANCH  21  29
ENDBRANCH   1  26
TORSDOF 7
ENDMDL
MODEL 9
REMARK VINA RESULT:      -8.9      2.155      2.798
REMARK  Name = 
REMARK  8 active torsions:
REMARK  status: ('A' for Active; 'I' for Inactive)
REMARK    1  A    between atoms: C_1  and  C_2
REMARK    2  A    between atoms: C_2  and  C_3
REMARK    3  A    between atoms: C_3  and  S_4
REMARK    4  A    between atoms: S_4  and  N_7
REMARK    5  A    between atoms: N_7  and  C_8
REMARK    6  A    between atoms: C_13  and  C_14
REMARK    7  A    between atoms: N_16  and  C_17
REMARK    8  A    between atoms: C_22  and  C_23
REMARK                            x       y       z     vdW  Elec       q    Type
REMARK                         _______ _______ _______ _____ _____    ______ ____
ROOT
ATOM      1  C   UNL     1       2.118   7.470  19.134  0.00  0.00    +0.000 C 
ATOM      2  O   UNL     1       1.840   8.090  18.116  0.00  0.00    +0.000 OA
ATOM      3  N   UNL     1       1.883   7.960  20.415  0.00  0.00    +0.000 N 
ATOM      4  H   UNL     1       2.163   7.382  21.203  0.00  0.00    +0.000 HD
ENDROOT
BRANCH   3   5
ATOM      5  C   UNL     1       1.287   9.174  20.721  0.00  0.00    +0.000 A 
ATOM      6  C   UNL     1       0.738   9.397  22.107  0.00  0.00    +0.000 A 
ATOM      7  N   UNL     1       0.135  10.464  22.550  0.00  0.00    +0.000 NA
ATOM      8  C   UNL     1      -0.003  11.478  21.644  0.00  0.00    +0.000 A 
ATOM      9  C   UNL     1      -0.583  12.720  21.736  0.00  0.00    +0.000 A 
ATOM     10  C   UNL     1      -0.420  13.329  20.465  0.00  0.00    +0.000 A 
ATOM     11  N   UNL     1       0.243  12.516  19.631  0.00  0.00    +0.000 NA
ATOM     12  N   UNL     1       0.482  11.385  20.340  0.00  0.00    +0.000 N 
ATOM     13  C   UNL     1       1.120  10.228  19.907  0.00  0.00    +0.000 A 
BRANCH  10  14
ATOM     14  C   UNL     1      -0.862  14.669  20.061  0.00  0.00    +0.000 A 
ATOM     15  C   UNL     1      -0.215  15.357  19.019  0.00  0.00    +0.000 A 
ATOM     16  C   UNL     1      -0.591  16.664  18.689  0.00  0.00    +0.000 A 
ATOM     17  C   UNL     1      -1.622  17.278  19.389  0.00  0.00    +0.000 A 
ATOM     18  F   UNL     1      -1.968  18.537  19.089  0.00  0.00    +0.000 F 
ATOM     19  C   UNL     1      -2.297  16.607  20.399  0.00  0.00    +0.000 A 
ATOM     20  C   UNL     1      -1.920  15.303  20.733  0.00  0.00    +0.000 A 
ENDBRANCH  10  14
ENDBRANCH   3   5
BRANCH   1  26
ATOM     21  C   UNL     1       4.531   4.746  18.025  0.00  0.00    +0.000 A 
ATOM     22  C   UNL     1       4.018   3.618  18.657  0.00  0.00    +0.000 A 
ATOM     23  C   UNL     1       2.890   3.742  19.474  0.00  0.00    +0.000 A 
ATOM     24  C   UNL     1       2.269   4.986  19.638  0.00  0.00    +0.000 A 
ATOM     25  F   UNL     1       1.203   5.055  20.453  0.00  0.00    +0.000 F 
ATOM     26  C   UNL     1       2.749   6.124  18.989  0.00  0.00    +0.000 A 
ATOM     27  C   UNL     1       3.885   5.982  18.173  0.00  0.00    +0.000 A 
ATOM     28  F   UNL     1       4.424   7.032  17.535  0.00  0.00    +0.000 F 
BRANCH  21  29
ATOM     29  N   UNL     1       5.699   4.628  17.188  0.00  0.00    +0.000 N 
ATOM     30  H   UNL     1       5.830   3.660  16.865  0.00  0.00    +0.000 HD
BRANCH  29  31
ATOM     31  S   UNL     1       7.184   5.060  17.908  0.00  0.00    +0.000 S 
ATOM     32  O   UNL     1       8.168   4.194  17.297  0.00  0.00    +0.000 OA
ATOM     33  O   UNL     1       7.015   5.147  19.343  0.00  0.00    +0.000 OA
BRANCH  31  34
ATOM     34  C   UNL     1       7.417   6.716  17.259  0.00  0.00    +0.000 C 
BRANCH  34  36
ATOM     35  C   UNL     1       8.148   9.070  17.846  0.00  0.00    +0.000 C 
ATOM     36  C   UNL     1       8.055   7.625  18.309  0.00  0.00    +0.000 C 
ENDBRANCH  34  36
ENDBRANCH  31  34
ENDBRANCH  29  31
ENDBRANCH  21  29
ENDBRANCH   1  26
TORSDOF 7
ENDMDL
