MODEL 1
REMARK VINA RESULT:      -7.1      0.000      0.000
REMARK  Name = 
REMARK  15 active torsions:
REMARK  status: ('A' for Active; 'I' for Inactive)
REMARK    1  A    between atoms: C_1  and  C_2
REMARK    2  A    between atoms: C_2  and  C_3
REMARK    3  A    between atoms: C_3  and  C_4
REMARK    4  A    between atoms: C_4  and  C_5
REMARK    5  A    between atoms: C_5  and  C_6
REMARK    6  A    between atoms: C_6  and  C_7
REMARK    7  A    between atoms: C_7  and  S_8
REMARK    8  A    between atoms: C_7  and  C_26
REMARK    9  A    between atoms: S_8  and  C_9
REMARK   10  A    between atoms: C_14  and  N_15
REMARK   11  A    between atoms: N_15  and  C_16
REMARK   12  A    between atoms: C_16  and  C_17
REMARK   13  A    between atoms: C_17  and  O_18
REMARK   14  A    between atoms: O_18  and  C_19
REMARK   15  A    between atoms: C_26  and  O_28
REMARK                            x       y       z     vdW  Elec       q    Type
REMARK                         _______ _______ _______ _____ _____    ______ ____
ROOT
ATOM      1  C   UNL     1       3.933   6.592  17.626  0.00  0.00    +0.000 A 
ATOM      2  N   UNL     1       3.366   7.759  17.328  0.00  0.00    +0.000 NA
ATOM      3  C   UNL     1       2.459   8.180  18.215  0.00  0.00    +0.000 A 
ATOM      4 CL   UNL     1       1.795   9.726  17.877  0.00  0.00    +0.000 Cl
ATOM      5  C   UNL     1       2.089   7.497  19.343  0.00  0.00    +0.000 A 
ATOM      6  C   UNL     1       2.753   6.313  19.575  0.00  0.00    +0.000 A 
ATOM      7  N   UNL     1       3.684   5.859  18.723  0.00  0.00    +0.000 NA
ENDROOT
BRANCH   6   8
ATOM      8  N   UNL     1       2.490   5.661  20.782  0.00  0.00    +0.000 N 
ATOM      9  H   UNL     1       2.528   6.307  21.566  0.00  0.00    +0.000 HD
BRANCH   8  10
ATOM     10  C   UNL     1       1.350   4.745  20.849  0.00  0.00    +0.000 C 
BRANCH  10  11
ATOM     11  C   UNL     1       1.772   3.494  21.638  0.00  0.00    +0.000 C 
BRANCH  11  12
ATOM     12  O   UNL     1       1.700   2.342  20.800  0.00  0.00    +0.000 OA
BRANCH  12  13
ATOM     13  C   UNL     1       2.396   2.412  19.623  0.00  0.00    +0.000 A 
ATOM     14  C   UNL     1       3.782   2.513  19.766  0.00  0.00    +0.000 A 
ATOM     15  C   UNL     1       4.612   2.571  18.645  0.00  0.00    +0.000 A 
ATOM     16  C   UNL     1       4.059   2.509  17.367  0.00  0.00    +0.000 A 
ATOM     17  C   UNL     1       2.679   2.388  17.215  0.00  0.00    +0.000 A 
ATOM     18  C   UNL     1       1.848   2.338  18.340  0.00  0.00    +0.000 A 
ENDBRANCH  12  13
ENDBRANCH  11  12
ENDBRANCH  10  11
ENDBRANCH   8  10
ENDBRANCH   6   8
BRANCH   1  19
ATOM     19  S   UNL     1       5.236   6.039  16.558  0.00  0.00    +0.000 S 
BRANCH  19  20
ATOM     20  C   UNL     1       6.702   6.312  17.633  0.00  0.00    +0.000 C 
BRANCH  20  21
ATOM     21  C   UNL     1       7.534   5.041  17.810  0.00  0.00    +0.000 C 
ATOM     22  O   UNL     1       7.906   4.339  16.877  0.00  0.00    +0.000 OA
BRANCH  21  23
ATOM     23  O   UNL     1       7.940   4.788  19.074  0.00  0.00    +0.000 OA
ATOM     24  H   UNL     1       7.185   4.790  19.704  0.00  0.00    +0.000 HD
ENDBRANCH  21  23
ENDBRANCH  20  21
BRANCH  20  25
ATOM     25  C   UNL     1       7.576   7.525  17.242  0.00  0.00    +0.000 C 
BRANCH  25  26
ATOM     26  C   UNL     1       8.259   8.204  18.434  0.00  0.00    +0.000 C 
BRANCH  26  27
ATOM     27  C   UNL     1       8.612   9.671  18.158  0.00  0.00    +0.000 C 
BRANCH  27  28
ATOM     28  C   UNL     1       9.341  10.271  19.364  0.00  0.00    +0.000 C 
BRANCH  28  30
ATOM     29  C   UNL     1      10.830  12.207  18.783  0.00  0.00    +0.000 C 
ATOM     30  C   UNL     1       9.455  11.792  19.290  0.00  0.00    +0.000 C 
ENDBRANCH  28  30
ENDBRANCH  27  28
ENDBRANCH  26  27
ENDBRANCH  25  26
ENDBRANCH  20  25
ENDBRANCH  19  20
ENDBRANCH   1  19
TORSDOF 14
ENDMDL
MODEL 2
REMARK VINA RESULT:      -6.9      3.805      5.950
REMARK  Name = 
REMARK  15 active torsions:
REMARK  status: ('A' for Active; 'I' for Inactive)
REMARK    1  A    between atoms: C_1  and  C_2
REMARK    2  A    between atoms: C_2  and  C_3
REMARK    3  A    between atoms: C_3  and  C_4
REMARK    4  A    between atoms: C_4  and  C_5
REMARK    5  A    between atoms: C_5  and  C_6
REMARK    6  A    between atoms: C_6  and  C_7
REMARK    7  A    between atoms: C_7  and  S_8
REMARK    8  A    between atoms: C_7  and  C_26
REMARK    9  A    between atoms: S_8  and  C_9
REMARK   10  A    between atoms: C_14  and  N_15
REMARK   11  A    between atoms: N_15  and  C_16
REMARK   12  A    between atoms: C_16  and  C_17
REMARK   13  A    between atoms: C_17  and  O_18
REMARK   14  A    between atoms: O_18  and  C_19
REMARK   15  A    between atoms: C_26  and  O_28
REMARK                            x       y       z     vdW  Elec       q    Type
REMARK                         _______ _______ _______ _____ _____    ______ ____
ROOT
ATOM      1  C   UNL     1       4.100   6.203  18.111  0.00  0.00    +0.000 A 
ATOM      2  N   UNL     1       3.650   5.394  19.069  0.00  0.00    +0.000 NA
ATOM      3  C   UNL     1       2.626   5.884  19.775  0.00  0.00    +0.000 A 
ATOM      4 CL   UNL     1       1.989   4.806  20.948  0.00  0.00    +0.000 Cl
ATOM      5  C   UNL     1       2.060   7.117  19.585  0.00  0.00    +0.000 A 
ATOM      6  C   UNL     1       2.579   7.866  18.553  0.00  0.00    +0.000 A 
ATOM      7  N   UNL     1       3.596   7.409  17.805  0.00  0.00    +0.000 NA
ENDROOT
BRANCH   6   8
ATOM      8  N   UNL     1       1.938   9.069  18.253  0.00  0.00    +0.000 N 
ATOM      9  H   UNL     1       1.646   9.100  17.280  0.00  0.00    +0.000 HD
BRANCH   8  10
ATOM     10  C   UNL     1       0.913   9.564  19.174  0.00  0.00    +0.000 C 
BRANCH  10  11
ATOM     11  C   UNL     1       0.006  10.548  18.415  0.00  0.00    +0.000 C 
BRANCH  11  12
ATOM     12  O   UNL     1      -0.866   9.833  17.542  0.00  0.00    +0.000 OA
BRANCH  12  13
ATOM     13  C   UNL     1      -2.092  10.403  17.320  0.00  0.00    +0.000 A 
ATOM     14  C   UNL     1      -2.575  10.266  16.017  0.00  0.00    +0.000 A 
ATOM     15  C   UNL     1      -3.822  10.783  15.661  0.00  0.00    +0.000 A 
ATOM     16  C   UNL     1      -4.606  11.426  16.617  0.00  0.00    +0.000 A 
ATOM     17  C   UNL     1      -4.141  11.549  17.925  0.00  0.00    +0.000 A 
ATOM     18  C   UNL     1      -2.887  11.038  18.278  0.00  0.00    +0.000 A 
ENDBRANCH  12  13
ENDBRANCH  11  12
ENDBRANCH  10  11
ENDBRANCH   8  10
ENDBRANCH   6   8
BRANCH   1  19
ATOM     19  S   UNL     1       5.373   5.563  17.056  0.00  0.00    +0.000 S 
BRANCH  19  20
ATOM     20  C   UNL     1       6.877   6.156  17.931  0.00  0.00    +0.000 C 
BRANCH  20  21
ATOM     21  C   UNL     1       7.868   5.025  18.209  0.00  0.00    +0.000 C 
ATOM     22  O   UNL     1       8.410   4.850  19.294  0.00  0.00    +0.000 OA
BRANCH  21  23
ATOM     23  O   UNL     1       8.033   4.140  17.201  0.00  0.00    +0.000 OA
ATOM     24  H   UNL     1       8.222   4.593  16.349  0.00  0.00    +0.000 HD
ENDBRANCH  21  23
ENDBRANCH  20  21
BRANCH  20  25
ATOM     25  C   UNL     1       7.563   7.380  17.285  0.00  0.00    +0.000 C 
BRANCH  25  26
ATOM     26  C   UNL     1       8.357   8.238  18.276  0.00  0.00    +0.000 C 
BRANCH  26  27
ATOM     27  C   UNL     1       8.203   9.742  18.015  0.00  0.00    +0.000 C 
BRANCH  27  28
ATOM     28  C   UNL     1       9.260  10.522  18.802  0.00  0.00    +0.000 C 
BRANCH  28  30
ATOM     29  C   UNL     1       9.639  12.790  17.795  0.00  0.00    +0.000 C 
ATOM     30  C   UNL     1      10.164  11.365  17.905  0.00  0.00    +0.000 C 
ENDBRANCH  28  30
ENDBRANCH  27  28
ENDBRANCH  26  27
ENDBRANCH  25  26
ENDBRANCH  20  25
ENDBRANCH  19  20
ENDBRANCH   1  19
TORSDOF 14
ENDMDL
MODEL 3
REMARK VINA RESULT:      -6.7      3.969      6.983
REMARK  Name = 
REMARK  15 active torsions:
REMARK  status: ('A' for Active; 'I' for Inactive)
REMARK    1  A    between atoms: C_1  and  C_2
REMARK    2  A    between atoms: C_2  and  C_3
REMARK    3  A    between atoms: C_3  and  C_4
REMARK    4  A    between atoms: C_4  and  C_5
REMARK    5  A    between atoms: C_5  and  C_6
REMARK    6  A    between atoms: C_6  and  C_7
REMARK    7  A    between atoms: C_7  and  S_8
REMARK    8  A    between atoms: C_7  and  C_26
REMARK    9  A    between atoms: S_8  and  C_9
REMARK   10  A    between atoms: C_14  and  N_15
REMARK   11  A    between atoms: N_15  and  C_16
REMARK   12  A    between atoms: C_16  and  C_17
REMARK   13  A    between atoms: C_17  and  O_18
REMARK   14  A    between atoms: O_18  and  C_19
REMARK   15  A    between atoms: C_26  and  O_28
REMARK                            x       y       z     vdW  Elec       q    Type
REMARK                         _______ _______ _______ _____ _____    ______ ____
ROOT
ATOM      1  C   UNL     1       3.408   5.908  18.302  0.00  0.00    +0.000 A 
ATOM      2  N   UNL     1       2.774   4.762  18.060  0.00  0.00    +0.000 NA
ATOM      3  C   UNL     1       1.821   4.455  18.945  0.00  0.00    +0.000 A 
ATOM      4 CL   UNL     1       0.945   3.025  18.582  0.00  0.00    +0.000 Cl
ATOM      5  C   UNL     1       1.496   5.210  20.041  0.00  0.00    +0.000 A 
ATOM      6  C   UNL     1       2.191   6.389  20.189  0.00  0.00    +0.000 A 
ATOM      7  N   UNL     1       3.145   6.748  19.315  0.00  0.00    +0.000 NA
ENDROOT
BRANCH   6   8
ATOM      8  N   UNL     1       1.792   7.240  21.222  0.00  0.00    +0.000 N 
ATOM      9  H   UNL     1       2.574   7.783  21.576  0.00  0.00    +0.000 HD
BRANCH   8  10
ATOM     10  C   UNL     1       0.576   8.036  21.042  0.00  0.00    +0.000 C 
BRANCH  10  11
ATOM     11  C   UNL     1       0.979   9.444  20.570  0.00  0.00    +0.000 C 
BRANCH  11  12
ATOM     12  O   UNL     1       0.691   9.595  19.182  0.00  0.00    +0.000 OA
BRANCH  12  13
ATOM     13  C   UNL     1      -0.449  10.290  18.877  0.00  0.00    +0.000 A 
ATOM     14  C   UNL     1      -1.069   9.906  17.687  0.00  0.00    +0.000 A 
ATOM     15  C   UNL     1      -2.252  10.521  17.269  0.00  0.00    +0.000 A 
ATOM     16  C   UNL     1      -2.834  11.513  18.054  0.00  0.00    +0.000 A 
ATOM     17  C   UNL     1      -2.233  11.889  19.254  0.00  0.00    +0.000 A 
ATOM     18  C   UNL     1      -1.043  11.278  19.667  0.00  0.00    +0.000 A 
ENDBRANCH  12  13
ENDBRANCH  11  12
ENDBRANCH  10  11
ENDBRANCH   8  10
ENDBRANCH   6   8
BRANCH   1  19
ATOM     19  S   UNL     1       4.596   6.437  17.096  0.00  0.00    +0.000 S 
BRANCH  19  20
ATOM     20  C   UNL     1       5.926   5.195  17.355  0.00  0.00    +0.000 C 
BRANCH  20  21
ATOM     21  C   UNL     1       5.979   4.697  18.800  0.00  0.00    +0.000 C 
ATOM     22  O   UNL     1       5.539   3.611  19.159  0.00  0.00    +0.000 OA
BRANCH  21  23
ATOM     23  O   UNL     1       6.654   5.492  19.660  0.00  0.00    +0.000 OA
ATOM     24  H   UNL     1       7.430   5.915  19.229  0.00  0.00    +0.000 HD
ENDBRANCH  21  23
ENDBRANCH  20  21
BRANCH  20  25
ATOM     25  C   UNL     1       5.931   4.029  16.341  0.00  0.00    +0.000 C 
BRANCH  25  26
ATOM     26  C   UNL     1       6.527   4.398  14.978  0.00  0.00    +0.000 C 
BRANCH  26  27
ATOM     27  C   UNL     1       5.571   4.105  13.814  0.00  0.00    +0.000 C 
BRANCH  27  28
ATOM     28  C   UNL     1       6.348   3.519  12.632  0.00  0.00    +0.000 C 
BRANCH  28  30
ATOM     29  C   UNL     1       6.374   1.479  11.170  0.00  0.00    +0.000 C 
ATOM     30  C   UNL     1       5.506   2.569  11.783  0.00  0.00    +0.000 C 
ENDBRANCH  28  30
ENDBRANCH  27  28
ENDBRANCH  26  27
ENDBRANCH  25  26
ENDBRANCH  20  25
ENDBRANCH  19  20
ENDBRANCH   1  19
TORSDOF 14
ENDMDL
MODEL 4
REMARK VINA RESULT:      -6.7      3.580      5.804
REMARK  Name = 
REMARK  15 active torsions:
REMARK  status: ('A' for Active; 'I' for Inactive)
REMARK    1  A    between atoms: C_1  and  C_2
REMARK    2  A    between atoms: C_2  and  C_3
REMARK    3  A    between atoms: C_3  and  C_4
REMARK    4  A    between atoms: C_4  and  C_5
REMARK    5  A    between atoms: C_5  and  C_6
REMARK    6  A    between atoms: C_6  and  C_7
REMARK    7  A    between atoms: C_7  and  S_8
REMARK    8  A    between atoms: C_7  and  C_26
REMARK    9  A    between atoms: S_8  and  C_9
REMARK   10  A    between atoms: C_14  and  N_15
REMARK   11  A    between atoms: N_15  and  C_16
REMARK   12  A    between atoms: C_16  and  C_17
REMARK   13  A    between atoms: C_17  and  O_18
REMARK   14  A    between atoms: O_18  and  C_19
REMARK   15  A    between atoms: C_26  and  O_28
REMARK                            x       y       z     vdW  Elec       q    Type
REMARK                         _______ _______ _______ _____ _____    ______ ____
ROOT
ATOM      1  C   UNL     1       3.438   4.951  18.194  0.00  0.00    +0.000 A 
ATOM      2  N   UNL     1       3.194   4.204  19.270  0.00  0.00    +0.000 NA
ATOM      3  C   UNL     1       2.575   4.848  20.265  0.00  0.00    +0.000 A 
ATOM      4 CL   UNL     1       2.181   3.862  21.615  0.00  0.00    +0.000 Cl
ATOM      5  C   UNL     1       2.217   6.169  20.243  0.00  0.00    +0.000 A 
ATOM      6  C   UNL     1       2.489   6.847  19.076  0.00  0.00    +0.000 A 
ATOM      7  N   UNL     1       3.093   6.239  18.042  0.00  0.00    +0.000 NA
ENDROOT
BRANCH   6   8
ATOM      8  N   UNL     1       2.019   8.158  18.975  0.00  0.00    +0.000 N 
ATOM      9  H   UNL     1       1.570   8.322  18.079  0.00  0.00    +0.000 HD
BRANCH   8  10
ATOM     10  C   UNL     1       1.272   8.721  20.102  0.00  0.00    +0.000 C 
BRANCH  10  11
ATOM     11  C   UNL     1       0.840  10.152  19.737  0.00  0.00    +0.000 C 
BRANCH  11  12
ATOM     12  O   UNL     1       0.398  10.199  18.382  0.00  0.00    +0.000 OA
BRANCH  12  13
ATOM     13  C   UNL     1      -0.923  10.507  18.192  0.00  0.00    +0.000 A 
ATOM     14  C   UNL     1      -1.557   9.774  17.187  0.00  0.00    +0.000 A 
ATOM     15  C   UNL     1      -2.910   9.975  16.905  0.00  0.00    +0.000 A 
ATOM     16  C   UNL     1      -3.644  10.900  17.643  0.00  0.00    +0.000 A 
ATOM     17  C   UNL     1      -3.024  11.622  18.662  0.00  0.00    +0.000 A 
ATOM     18  C   UNL     1      -1.666  11.426  18.938  0.00  0.00    +0.000 A 
ENDBRANCH  12  13
ENDBRANCH  11  12
ENDBRANCH  10  11
ENDBRANCH   8  10
ENDBRANCH   6   8
BRANCH   1  19
ATOM     19  S   UNL     1       4.141   4.127  16.791  0.00  0.00    +0.000 S 
BRANCH  19  20
ATOM     20  C   UNL     1       5.919   4.539  17.004  0.00  0.00    +0.000 C 
BRANCH  20  21
ATOM     21  C   UNL     1       6.719   4.333  15.717  0.00  0.00    +0.000 C 
ATOM     22  O   UNL     1       7.788   4.886  15.487  0.00  0.00    +0.000 OA
BRANCH  21  23
ATOM     23  O   UNL     1       6.226   3.398  14.874  0.00  0.00    +0.000 OA
ATOM     24  H   UNL     1       6.650   3.449  13.989  0.00  0.00    +0.000 HD
ENDBRANCH  21  23
ENDBRANCH  20  21
BRANCH  20  25
ATOM     25  C   UNL     1       6.192   5.920  17.639  0.00  0.00    +0.000 C 
BRANCH  25  26
ATOM     26  C   UNL     1       7.292   5.903  18.707  0.00  0.00    +0.000 C 
BRANCH  26  27
ATOM     27  C   UNL     1       8.203   7.136  18.641  0.00  0.00    +0.000 C 
BRANCH  27  28
ATOM     28  C   UNL     1       7.582   8.197  17.728  0.00  0.00    +0.000 C 
BRANCH  28  30
ATOM     29  C   UNL     1       8.989   9.824  19.022  0.00  0.00    +0.000 C 
ATOM     30  C   UNL     1       8.416   9.475  17.655  0.00  0.00    +0.000 C 
ENDBRANCH  28  30
ENDBRANCH  27  28
ENDBRANCH  26  27
ENDBRANCH  25  26
ENDBRANCH  20  25
ENDBRANCH  19  20
ENDBRANCH   1  19
TORSDOF 14
ENDMDL
MODEL 5
REMARK VINA RESULT:      -6.7      3.964      6.956
REMARK  Name = 
REMARK  15 active torsions:
REMARK  status: ('A' for Active; 'I' for Inactive)
REMARK    1  A    between atoms: C_1  and  C_2
REMARK    2  A    between atoms: C_2  and  C_3
REMARK    3  A    between atoms: C_3  and  C_4
REMARK    4  A    between atoms: C_4  and  C_5
REMARK    5  A    between atoms: C_5  and  C_6
REMARK    6  A    between atoms: C_6  and  C_7
REMARK    7  A    between atoms: C_7  and  S_8
REMARK    8  A    between atoms: C_7  and  C_26
REMARK    9  A    between atoms: S_8  and  C_9
REMARK   10  A    between atoms: C_14  and  N_15
REMARK   11  A    between atoms: N_15  and  C_16
REMARK   12  A    between atoms: C_16  and  C_17
REMARK   13  A    between atoms: C_17  and  O_18
REMARK   14  A    between atoms: O_18  and  C_19
REMARK   15  A    between atoms: C_26  and  O_28
REMARK                            x       y       z     vdW  Elec       q    Type
REMARK                         _______ _______ _______ _____ _____    ______ ____
ROOT
ATOM      1  C   UNL     1       3.209   4.528  18.667  0.00  0.00    +0.000 A 
ATOM      2  N   UNL     1       2.683   3.573  19.432  0.00  0.00    +0.000 NA
ATOM      3  C   UNL     1       1.953   4.022  20.458  0.00  0.00    +0.000 A 
ATOM      4 CL   UNL     1       1.201   2.792  21.389  0.00  0.00    +0.000 Cl
ATOM      5  C   UNL     1       1.748   5.343  20.757  0.00  0.00    +0.000 A 
ATOM      6  C   UNL     1       2.312   6.251  19.891  0.00  0.00    +0.000 A 
ATOM      7  N   UNL     1       3.039   5.849  18.836  0.00  0.00    +0.000 NA
ENDROOT
BRANCH   6   8
ATOM      8  N   UNL     1       2.012   7.600  20.096  0.00  0.00    +0.000 N 
ATOM      9  H   UNL     1       1.525   7.995  19.297  0.00  0.00    +0.000 HD
BRANCH   8  10
ATOM     10  C   UNL     1       1.427   7.999  21.378  0.00  0.00    +0.000 C 
BRANCH  10  11
ATOM     11  C   UNL     1       0.890   9.434  21.246  0.00  0.00    +0.000 C 
BRANCH  11  12
ATOM     12  O   UNL     1      -0.342   9.431  20.527  0.00  0.00    +0.000 OA
BRANCH  12  13
ATOM     13  C   UNL     1      -0.577  10.523  19.735  0.00  0.00    +0.000 A 
ATOM     14  C   UNL     1       0.214  11.637  20.024  0.00  0.00    +0.000 A 
ATOM     15  C   UNL     1       0.091  12.811  19.278  0.00  0.00    +0.000 A 
ATOM     16  C   UNL     1      -0.815  12.871  18.221  0.00  0.00    +0.000 A 
ATOM     17  C   UNL     1      -1.594  11.757  17.913  0.00  0.00    +0.000 A 
ATOM     18  C   UNL     1      -1.475  10.584  18.667  0.00  0.00    +0.000 A 
ENDBRANCH  12  13
ENDBRANCH  11  12
ENDBRANCH  10  11
ENDBRANCH   8  10
ENDBRANCH   6   8
BRANCH   1  19
ATOM     19  S   UNL     1       4.082   4.001  17.216  0.00  0.00    +0.000 S 
BRANCH  19  20
ATOM     20  C   UNL     1       5.196   5.437  16.944  0.00  0.00    +0.000 C 
BRANCH  20  21
ATOM     21  C   UNL     1       6.499   5.317  17.735  0.00  0.00    +0.000 C 
ATOM     22  O   UNL     1       7.223   6.270  17.999  0.00  0.00    +0.000 OA
BRANCH  21  23
ATOM     23  O   UNL     1       6.759   4.089  18.236  0.00  0.00    +0.000 OA
ATOM     24  H   UNL     1       7.100   4.137  19.157  0.00  0.00    +0.000 HD
ENDBRANCH  21  23
ENDBRANCH  20  21
BRANCH  20  25
ATOM     25  C   UNL     1       5.451   5.788  15.461  0.00  0.00    +0.000 C 
BRANCH  25  26
ATOM     26  C   UNL     1       6.651   5.055  14.850  0.00  0.00    +0.000 C 
BRANCH  26  27
ATOM     27  C   UNL     1       6.266   3.712  14.216  0.00  0.00    +0.000 C 
BRANCH  27  28
ATOM     28  C   UNL     1       5.342   3.944  13.018  0.00  0.00    +0.000 C 
BRANCH  28  30
ATOM     29  C   UNL     1       6.913   2.694  11.511  0.00  0.00    +0.000 C 
ATOM     30  C   UNL     1       5.465   2.853  11.956  0.00  0.00    +0.000 C 
ENDBRANCH  28  30
ENDBRANCH  27  28
ENDBRANCH  26  27
ENDBRANCH  25  26
ENDBRANCH  20  25
ENDBRANCH  19  20
ENDBRANCH   1  19
TORSDOF 14
ENDMDL
MODEL 6
REMARK VINA RESULT:      -6.6      2.743      8.216
REMARK  Name = 
REMARK  15 active torsions:
REMARK  status: ('A' for Active; 'I' for Inactive)
REMARK    1  A    between atoms: C_1  and  C_2
REMARK    2  A    between atoms: C_2  and  C_3
REMARK    3  A    between atoms: C_3  and  C_4
REMARK    4  A    between atoms: C_4  and  C_5
REMARK    5  A    between atoms: C_5  and  C_6
REMARK    6  A    between atoms: C_6  and  C_7
REMARK    7  A    between atoms: C_7  and  S_8
REMARK    8  A    between atoms: C_7  and  C_26
REMARK    9  A    between atoms: S_8  and  C_9
REMARK   10  A    between atoms: C_14  and  N_15
REMARK   11  A    between atoms: N_15  and  C_16
REMARK   12  A    between atoms: C_16  and  C_17
REMARK   13  A    between atoms: C_17  and  O_18
REMARK   14  A    between atoms: O_18  and  C_19
REMARK   15  A    between atoms: C_26  and  O_28
REMARK                            x       y       z     vdW  Elec       q    Type
REMARK                         _______ _______ _______ _____ _____    ______ ____
ROOT
ATOM      1  C   UNL     1       5.231   4.504  17.656  0.00  0.00    +0.000 A 
ATOM      2  N   UNL     1       4.999   3.923  16.480  0.00  0.00    +0.000 NA
ATOM      3  C   UNL     1       5.472   4.594  15.425  0.00  0.00    +0.000 A 
ATOM      4 CL   UNL     1       5.252   3.801  13.919  0.00  0.00    +0.000 Cl
ATOM      5  C   UNL     1       6.129   5.795  15.489  0.00  0.00    +0.000 A 
ATOM      6  C   UNL     1       6.341   6.299  16.752  0.00  0.00    +0.000 A 
ATOM      7  N   UNL     1       5.901   5.652  17.843  0.00  0.00    +0.000 NA
ENDROOT
BRANCH   6   8
ATOM      8  N   UNL     1       7.121   7.453  16.855  0.00  0.00    +0.000 N 
ATOM      9  H   UNL     1       6.613   8.271  16.532  0.00  0.00    +0.000 HD
BRANCH   8  10
ATOM     10  C   UNL     1       7.859   7.690  18.097  0.00  0.00    +0.000 C 
BRANCH  10  11
ATOM     11  C   UNL     1       8.283   9.168  18.141  0.00  0.00    +0.000 C 
BRANCH  11  12
ATOM     12  O   UNL     1       9.238   9.372  19.180  0.00  0.00    +0.000 OA
BRANCH  12  13
ATOM     13  C   UNL     1       9.595  10.672  19.420  0.00  0.00    +0.000 A 
ATOM     14  C   UNL     1       9.939  11.405  18.282  0.00  0.00    +0.000 A 
ATOM     15  C   UNL     1      10.302  12.750  18.384  0.00  0.00    +0.000 A 
ATOM     16  C   UNL     1      10.304  13.377  19.628  0.00  0.00    +0.000 A 
ATOM     17  C   UNL     1       9.942  12.659  20.766  0.00  0.00    +0.000 A 
ATOM     18  C   UNL     1       9.587  11.309  20.664  0.00  0.00    +0.000 A 
ENDBRANCH  12  13
ENDBRANCH  11  12
ENDBRANCH  10  11
ENDBRANCH   8  10
ENDBRANCH   6   8
BRANCH   1  19
ATOM     19  S   UNL     1       4.743   3.603  19.103  0.00  0.00    +0.000 S 
BRANCH  19  20
ATOM     20  C   UNL     1       2.930   3.902  19.100  0.00  0.00    +0.000 C 
BRANCH  20  21
ATOM     21  C   UNL     1       2.155   2.751  18.458  0.00  0.00    +0.000 C 
ATOM     22  O   UNL     1       2.641   1.980  17.640  0.00  0.00    +0.000 OA
BRANCH  21  23
ATOM     23  O   UNL     1       0.906   2.557  18.937  0.00  0.00    +0.000 OA
ATOM     24  H   UNL     1       0.744   3.084  19.751  0.00  0.00    +0.000 HD
ENDBRANCH  21  23
ENDBRANCH  20  21
BRANCH  20  25
ATOM     25  C   UNL     1       2.337   4.306  20.469  0.00  0.00    +0.000 C 
BRANCH  25  26
ATOM     26  C   UNL     1       1.680   5.692  20.473  0.00  0.00    +0.000 C 
BRANCH  26  27
ATOM     27  C   UNL     1       2.410   6.697  19.573  0.00  0.00    +0.000 C 
BRANCH  27  28
ATOM     28  C   UNL     1       1.840   8.102  19.788  0.00  0.00    +0.000 C 
BRANCH  28  30
ATOM     29  C   UNL     1       0.877   9.761  21.407  0.00  0.00    +0.000 C 
ATOM     30  C   UNL     1       1.307   8.314  21.204  0.00  0.00    +0.000 C 
ENDBRANCH  28  30
ENDBRANCH  27  28
ENDBRANCH  26  27
ENDBRANCH  25  26
ENDBRANCH  20  25
ENDBRANCH  19  20
ENDBRANCH   1  19
TORSDOF 14
ENDMDL
MODEL 7
REMARK VINA RESULT:      -6.6      4.315      7.451
REMARK  Name = 
REMARK  15 active torsions:
REMARK  status: ('A' for Active; 'I' for Inactive)
REMARK    1  A    between atoms: C_1  and  C_2
REMARK    2  A    between atoms: C_2  and  C_3
REMARK    3  A    between atoms: C_3  and  C_4
REMARK    4  A    between atoms: C_4  and  C_5
REMARK    5  A    between atoms: C_5  and  C_6
REMARK    6  A    between atoms: C_6  and  C_7
REMARK    7  A    between atoms: C_7  and  S_8
REMARK    8  A    between atoms: C_7  and  C_26
REMARK    9  A    between atoms: S_8  and  C_9
REMARK   10  A    between atoms: C_14  and  N_15
REMARK   11  A    between atoms: N_15  and  C_16
REMARK   12  A    between atoms: C_16  and  C_17
REMARK   13  A    between atoms: C_17  and  O_18
REMARK   14  A    between atoms: O_18  and  C_19
REMARK   15  A    between atoms: C_26  and  O_28
REMARK                            x       y       z     vdW  Elec       q    Type
REMARK                         _______ _______ _______ _____ _____    ______ ____
ROOT
ATOM      1  C   UNL     1       3.655   4.491  18.494  0.00  0.00    +0.000 A 
ATOM      2  N   UNL     1       3.254   3.749  19.526  0.00  0.00    +0.000 NA
ATOM      3  C   UNL     1       2.513   4.402  20.426  0.00  0.00    +0.000 A 
ATOM      4 CL   UNL     1       1.923   3.424  21.707  0.00  0.00    +0.000 Cl
ATOM      5  C   UNL     1       2.180   5.729  20.355  0.00  0.00    +0.000 A 
ATOM      6  C   UNL     1       2.620   6.401  19.237  0.00  0.00    +0.000 A 
ATOM      7  N   UNL     1       3.352   5.784  18.297  0.00  0.00    +0.000 NA
ENDROOT
BRANCH   6   8
ATOM      8  N   UNL     1       2.186   7.718  19.073  0.00  0.00    +0.000 N 
ATOM      9  H   UNL     1       1.634   7.823  18.227  0.00  0.00    +0.000 HD
BRANCH   8  10
ATOM     10  C   UNL     1       1.605   8.411  20.225  0.00  0.00    +0.000 C 
BRANCH  10  11
ATOM     11  C   UNL     1       0.892   9.680  19.725  0.00  0.00    +0.000 C 
BRANCH  11  12
ATOM     12  O   UNL     1      -0.320   9.877  20.450  0.00  0.00    +0.000 OA
BRANCH  12  13
ATOM     13  C   UNL     1      -0.460  11.093  21.065  0.00  0.00    +0.000 A 
ATOM     14  C   UNL     1      -1.064  11.048  22.323  0.00  0.00    +0.000 A 
ATOM     15  C   UNL     1      -1.248  12.215  23.067  0.00  0.00    +0.000 A 
ATOM     16  C   UNL     1      -0.810  13.437  22.563  0.00  0.00    +0.000 A 
ATOM     17  C   UNL     1      -0.188  13.489  21.316  0.00  0.00    +0.000 A 
ATOM     18  C   UNL     1      -0.012  12.320  20.568  0.00  0.00    +0.000 A 
ENDBRANCH  12  13
ENDBRANCH  11  12
ENDBRANCH  10  11
ENDBRANCH   8  10
ENDBRANCH   6   8
BRANCH   1  19
ATOM     19  S   UNL     1       4.533   3.655  17.201  0.00  0.00    +0.000 S 
BRANCH  19  20
ATOM     20  C   UNL     1       6.023   4.722  17.051  0.00  0.00    +0.000 C 
BRANCH  20  21
ATOM     21  C   UNL     1       6.875   4.706  18.321  0.00  0.00    +0.000 C 
ATOM     22  O   UNL     1       8.075   4.459  18.328  0.00  0.00    +0.000 OA
BRANCH  21  23
ATOM     23  O   UNL     1       6.240   5.099  19.447  0.00  0.00    +0.000 OA
ATOM     24  H   UNL     1       6.201   4.375  20.112  0.00  0.00    +0.000 HD
ENDBRANCH  21  23
ENDBRANCH  20  21
BRANCH  20  25
ATOM     25  C   UNL     1       6.870   4.478  15.783  0.00  0.00    +0.000 C 
BRANCH  25  26
ATOM     26  C   UNL     1       6.250   5.053  14.505  0.00  0.00    +0.000 C 
BRANCH  26  27
ATOM     27  C   UNL     1       5.471   4.006  13.699  0.00  0.00    +0.000 C 
BRANCH  27  28
ATOM     28  C   UNL     1       6.308   3.532  12.508  0.00  0.00    +0.000 C 
BRANCH  28  30
ATOM     29  C   UNL     1       4.164   3.132  11.265  0.00  0.00    +0.000 C 
ATOM     30  C   UNL     1       5.545   2.578  11.590  0.00  0.00    +0.000 C 
ENDBRANCH  28  30
ENDBRANCH  27  28
ENDBRANCH  26  27
ENDBRANCH  25  26
ENDBRANCH  20  25
ENDBRANCH  19  20
ENDBRANCH   1  19
TORSDOF 14
ENDMDL
MODEL 8
REMARK VINA RESULT:      -6.6      3.722      5.873
REMARK  Name = 
REMARK  15 active torsions:
REMARK  status: ('A' for Active; 'I' for Inactive)
REMARK    1  A    between atoms: C_1  and  C_2
REMARK    2  A    between atoms: C_2  and  C_3
REMARK    3  A    between atoms: C_3  and  C_4
REMARK    4  A    between atoms: C_4  and  C_5
REMARK    5  A    between atoms: C_5  and  C_6
REMARK    6  A    between atoms: C_6  and  C_7
REMARK    7  A    between atoms: C_7  and  S_8
REMARK    8  A    between atoms: C_7  and  C_26
REMARK    9  A    between atoms: S_8  and  C_9
REMARK   10  A    between atoms: C_14  and  N_15
REMARK   11  A    between atoms: N_15  and  C_16
REMARK   12  A    between atoms: C_16  and  C_17
REMARK   13  A    between atoms: C_17  and  O_18
REMARK   14  A    between atoms: O_18  and  C_19
REMARK   15  A    between atoms: C_26  and  O_28
REMARK                            x       y       z     vdW  Elec       q    Type
REMARK                         _______ _______ _______ _____ _____    ______ ____
ROOT
ATOM      1  C   UNL     1       3.788   5.769  17.960  0.00  0.00    +0.000 A 
ATOM      2  N   UNL     1       3.137   4.629  17.733  0.00  0.00    +0.000 NA
ATOM      3  C   UNL     1       2.163   4.360  18.608  0.00  0.00    +0.000 A 
ATOM      4 CL   UNL     1       1.267   2.937  18.262  0.00  0.00    +0.000 Cl
ATOM      5  C   UNL     1       1.833   5.145  19.680  0.00  0.00    +0.000 A 
ATOM      6  C   UNL     1       2.547   6.315  19.813  0.00  0.00    +0.000 A 
ATOM      7  N   UNL     1       3.522   6.637  18.949  0.00  0.00    +0.000 NA
ENDROOT
BRANCH   6   8
ATOM      8  N   UNL     1       2.145   7.196  20.819  0.00  0.00    +0.000 N 
ATOM      9  H   UNL     1       2.907   7.397  21.460  0.00  0.00    +0.000 HD
BRANCH   8  10
ATOM     10  C   UNL     1       1.385   8.390  20.441  0.00  0.00    +0.000 C 
BRANCH  10  11
ATOM     11  C   UNL     1       0.611   8.888  21.674  0.00  0.00    +0.000 C 
BRANCH  11  12
ATOM     12  O   UNL     1       0.812  10.290  21.842  0.00  0.00    +0.000 OA
BRANCH  12  13
ATOM     13  C   UNL     1      -0.323  11.053  21.920  0.00  0.00    +0.000 A 
ATOM     14  C   UNL     1      -0.673  11.704  20.735  0.00  0.00    +0.000 A 
ATOM     15  C   UNL     1      -1.820  12.498  20.670  0.00  0.00    +0.000 A 
ATOM     16  C   UNL     1      -2.638  12.630  21.790  0.00  0.00    +0.000 A 
ATOM     17  C   UNL     1      -2.307  11.968  22.971  0.00  0.00    +0.000 A 
ATOM     18  C   UNL     1      -1.152  11.180  23.037  0.00  0.00    +0.000 A 
ENDBRANCH  12  13
ENDBRANCH  11  12
ENDBRANCH  10  11
ENDBRANCH   8  10
ENDBRANCH   6   8
BRANCH   1  19
ATOM     19  S   UNL     1       5.005   6.248  16.764  0.00  0.00    +0.000 S 
BRANCH  19  20
ATOM     20  C   UNL     1       6.446   6.585  17.855  0.00  0.00    +0.000 C 
BRANCH  20  21
ATOM     21  C   UNL     1       6.939   5.325  18.567  0.00  0.00    +0.000 C 
ATOM     22  O   UNL     1       7.705   4.515  18.058  0.00  0.00    +0.000 OA
BRANCH  21  23
ATOM     23  O   UNL     1       6.564   5.208  19.860  0.00  0.00    +0.000 OA
ATOM     24  H   UNL     1       7.075   4.509  20.324  0.00  0.00    +0.000 HD
ENDBRANCH  21  23
ENDBRANCH  20  21
BRANCH  20  25
ATOM     25  C   UNL     1       7.601   7.359  17.182  0.00  0.00    +0.000 C 
BRANCH  25  26
ATOM     26  C   UNL     1       7.780   8.787  17.710  0.00  0.00    +0.000 C 
BRANCH  26  27
ATOM     27  C   UNL     1       8.820   8.877  18.835  0.00  0.00    +0.000 C 
BRANCH  27  28
ATOM     28  C   UNL     1       9.212  10.338  19.069  0.00  0.00    +0.000 C 
BRANCH  28  30
ATOM     29  C   UNL     1       9.463  12.610  18.031  0.00  0.00    +0.000 C 
ATOM     30  C   UNL     1       8.765  11.260  17.936  0.00  0.00    +0.000 C 
ENDBRANCH  28  30
ENDBRANCH  27  28
ENDBRANCH  26  27
ENDBRANCH  25  26
ENDBRANCH  20  25
ENDBRANCH  19  20
ENDBRANCH   1  19
TORSDOF 14
ENDMDL
MODEL 9
REMARK VINA RESULT:      -6.6      3.207      5.260
REMARK  Name = 
REMARK  15 active torsions:
REMARK  status: ('A' for Active; 'I' for Inactive)
REMARK    1  A    between atoms: C_1  and  C_2
REMARK    2  A    between atoms: C_2  and  C_3
REMARK    3  A    between atoms: C_3  and  C_4
REMARK    4  A    between atoms: C_4  and  C_5
REMARK    5  A    between atoms: C_5  and  C_6
REMARK    6  A    between atoms: C_6  and  C_7
REMARK    7  A    between atoms: C_7  and  S_8
REMARK    8  A    between atoms: C_7  and  C_26
REMARK    9  A    between atoms: S_8  and  C_9
REMARK   10  A    between atoms: C_14  and  N_15
REMARK   11  A    between atoms: N_15  and  C_16
REMARK   12  A    between atoms: C_16  and  C_17
REMARK   13  A    between atoms: C_17  and  O_18
REMARK   14  A    between atoms: O_18  and  C_19
REMARK   15  A    between atoms: C_26  and  O_28
REMARK                            x       y       z     vdW  Elec       q    Type
REMARK                         _______ _______ _______ _____ _____    ______ ____
ROOT
ATOM      1  C   UNL     1       4.044   5.357  17.920  0.00  0.00    +0.000 A 
ATOM      2  N   UNL     1       3.336   4.230  17.974  0.00  0.00    +0.000 NA
ATOM      3  C   UNL     1       2.231   4.302  18.723  0.00  0.00    +0.000 A 
ATOM      4 CL   UNL     1       1.274   2.878  18.720  0.00  0.00    +0.000 Cl
ATOM      5  C   UNL     1       1.823   5.412  19.415  0.00  0.00    +0.000 A 
ATOM      6  C   UNL     1       2.609   6.533  19.272  0.00  0.00    +0.000 A 
ATOM      7  N   UNL     1       3.718   6.514  18.517  0.00  0.00    +0.000 NA
ENDROOT
BRANCH   6   8
ATOM      8  N   UNL     1       2.148   7.713  19.860  0.00  0.00    +0.000 N 
ATOM      9  H   UNL     1       1.903   8.405  19.157  0.00  0.00    +0.000 HD
BRANCH   8  10
ATOM     10  C   UNL     1       1.162   7.619  20.938  0.00  0.00    +0.000 C 
BRANCH  10  11
ATOM     11  C   UNL     1       0.795   9.042  21.393  0.00  0.00    +0.000 C 
BRANCH  11  12
ATOM     12  O   UNL     1       1.023   9.968  20.331  0.00  0.00    +0.000 OA
BRANCH  12  13
ATOM     13  C   UNL     1      -0.093  10.406  19.669  0.00  0.00    +0.000 A 
ATOM     14  C   UNL     1      -0.820  11.395  20.336  0.00  0.00    +0.000 A 
ATOM     15  C   UNL     1      -1.968  11.945  19.762  0.00  0.00    +0.000 A 
ATOM     16  C   UNL     1      -2.387  11.520  18.502  0.00  0.00    +0.000 A 
ATOM     17  C   UNL     1      -1.656  10.549  17.821  0.00  0.00    +0.000 A 
ATOM     18  C   UNL     1      -0.510   9.993  18.401  0.00  0.00    +0.000 A 
ENDBRANCH  12  13
ENDBRANCH  11  12
ENDBRANCH  10  11
ENDBRANCH   8  10
ENDBRANCH   6   8
BRANCH   1  19
ATOM     19  S   UNL     1       5.452   5.367  16.842  0.00  0.00    +0.000 S 
BRANCH  19  20
ATOM     20  C   UNL     1       6.676   6.259  17.883  0.00  0.00    +0.000 C 
BRANCH  20  21
ATOM     21  C   UNL     1       7.503   5.306  18.748  0.00  0.00    +0.000 C 
ATOM     22  O   UNL     1       8.147   4.367  18.296  0.00  0.00    +0.000 OA
BRANCH  21  23
ATOM     23  O   UNL     1       7.577   5.632  20.057  0.00  0.00    +0.000 OA
ATOM     24  H   UNL     1       6.688   5.653  20.476  0.00  0.00    +0.000 HD
ENDBRANCH  21  23
ENDBRANCH  20  21
BRANCH  20  25
ATOM     25  C   UNL     1       7.565   7.266  17.120  0.00  0.00    +0.000 C 
BRANCH  25  26
ATOM     26  C   UNL     1       7.628   8.652  17.772  0.00  0.00    +0.000 C 
BRANCH  26  27
ATOM     27  C   UNL     1       8.830   8.811  18.712  0.00  0.00    +0.000 C 
BRANCH  27  28
ATOM     28  C   UNL     1       9.055  10.292  19.030  0.00  0.00    +0.000 C 
BRANCH  28  30
ATOM     29  C   UNL     1      11.060  11.709  18.505  0.00  0.00    +0.000 C 
ATOM     30  C   UNL     1       9.827  11.022  17.932  0.00  0.00    +0.000 C 
ENDBRANCH  28  30
ENDBRANCH  27  28
ENDBRANCH  26  27
ENDBRANCH  25  26
ENDBRANCH  20  25
ENDBRANCH  19  20
ENDBRANCH   1  19
TORSDOF 14
ENDMDL
