MODEL 1
REMARK VINA RESULT:      -6.3      0.000      0.000
REMARK  Name = 
REMARK  3 active torsions:
REMARK  status: ('A' for Active; 'I' for Inactive)
REMARK    1  A    between atoms: C_1  and  O_2
REMARK    2  A    between atoms: O_2  and  C_3
REMARK    3  A    between atoms: C_3  and  C_5
REMARK                            x       y       z     vdW  Elec       q    Type
REMARK                         _______ _______ _______ _____ _____    ______ ____
ROOT
ATOM      1  C   UNL     1       2.795   4.499  17.899  0.00  0.00    +0.000 A 
ATOM      2  C   UNL     1       3.010   5.871  18.068  0.00  0.00    +0.000 A 
ATOM      3  C   UNL     1       4.102   6.504  17.462  0.00  0.00    +0.000 A 
ATOM      4  C   UNL     1       4.986   5.755  16.660  0.00  0.00    +0.000 A 
ATOM      5  N   UNL     1       6.085   6.253  15.984  0.00  0.00    +0.000 NA
ATOM      6  C   UNL     1       6.663   5.299  15.301  0.00  0.00    +0.000 A 
ATOM      7  N   UNL     1       7.721   5.510  14.507  0.00  0.00    +0.000 N 
ATOM      8  S   UNL     1       5.976   3.739  15.474  0.00  0.00    +0.000 S 
ATOM      9  C   UNL     1       4.758   4.389  16.504  0.00  0.00    +0.000 A 
ATOM     10  C   UNL     1       3.678   3.734  17.118  0.00  0.00    +0.000 A 
ATOM     11  H   UNL     1       8.205   6.396  14.594  0.00  0.00    +0.000 HD
ATOM     12  H   UNL     1       8.271   4.730  14.169  0.00  0.00    +0.000 HD
ENDROOT
BRANCH   1  13
ATOM     13  C   UNL     1       1.610   3.893  18.558  0.00  0.00    +0.000 C 
ATOM     14  O   UNL     1       0.930   3.014  18.052  0.00  0.00    +0.000 OA
BRANCH  13  16
ATOM     15  C   UNL     1       1.284   3.518  20.838  0.00  0.00    +0.000 C 
ATOM     16  O   UNL     1       1.403   4.460  19.771  0.00  0.00    +0.000 OA
ENDBRANCH  13  16
ENDBRANCH   1  13
TORSDOF 2
ENDMDL
MODEL 2
REMARK VINA RESULT:      -6.2      3.796      5.492
REMARK  Name = 
REMARK  3 active torsions:
REMARK  status: ('A' for Active; 'I' for Inactive)
REMARK    1  A    between atoms: C_1  and  O_2
REMARK    2  A    between atoms: O_2  and  C_3
REMARK    3  A    between atoms: C_3  and  C_5
REMARK                            x       y       z     vdW  Elec       q    Type
REMARK                         _______ _______ _______ _____ _____    ______ ____
ROOT
ATOM      1  C   UNL     1       5.719   5.136  15.848  0.00  0.00    +0.000 A 
ATOM      2  C   UNL     1       5.266   6.457  15.938  0.00  0.00    +0.000 A 
ATOM      3  C   UNL     1       4.438   6.859  16.993  0.00  0.00    +0.000 A 
ATOM      4  C   UNL     1       4.069   5.928  17.985  0.00  0.00    +0.000 A 
ATOM      5  N   UNL     1       3.282   6.192  19.091  0.00  0.00    +0.000 NA
ATOM      6  C   UNL     1       3.171   5.118  19.829  0.00  0.00    +0.000 A 
ATOM      7  N   UNL     1       2.508   5.100  20.994  0.00  0.00    +0.000 N 
ATOM      8  S   UNL     1       3.936   3.712  19.219  0.00  0.00    +0.000 S 
ATOM      9  C   UNL     1       4.527   4.615  17.878  0.00  0.00    +0.000 A 
ATOM     10  C   UNL     1       5.345   4.191  16.817  0.00  0.00    +0.000 A 
ATOM     11  H   UNL     1       1.913   5.892  21.208  0.00  0.00    +0.000 HD
ATOM     12  H   UNL     1       2.257   4.220  21.426  0.00  0.00    +0.000 HD
ENDROOT
BRANCH   1  13
ATOM     13  C   UNL     1       6.605   4.781  14.710  0.00  0.00    +0.000 C 
ATOM     14  O   UNL     1       7.620   5.397  14.425  0.00  0.00    +0.000 OA
BRANCH  13  16
ATOM     15  C   UNL     1       6.435   3.678  12.660  0.00  0.00    +0.000 C 
ATOM     16  O   UNL     1       6.120   3.699  14.053  0.00  0.00    +0.000 OA
ENDBRANCH  13  16
ENDBRANCH   1  13
TORSDOF 2
ENDMDL
MODEL 3
REMARK VINA RESULT:      -6.2      3.872      5.476
REMARK  Name = 
REMARK  3 active torsions:
REMARK  status: ('A' for Active; 'I' for Inactive)
REMARK    1  A    between atoms: C_1  and  O_2
REMARK    2  A    between atoms: O_2  and  C_3
REMARK    3  A    between atoms: C_3  and  C_5
REMARK                            x       y       z     vdW  Elec       q    Type
REMARK                         _______ _______ _______ _____ _____    ______ ____
ROOT
ATOM      1  C   UNL     1       5.267   4.870  16.527  0.00  0.00    +0.000 A 
ATOM      2  C   UNL     1       4.816   6.099  17.022  0.00  0.00    +0.000 A 
ATOM      3  C   UNL     1       3.696   6.165  17.859  0.00  0.00    +0.000 A 
ATOM      4  C   UNL     1       3.025   4.981  18.223  0.00  0.00    +0.000 A 
ATOM      5  N   UNL     1       1.927   4.896  19.059  0.00  0.00    +0.000 NA
ATOM      6  C   UNL     1       1.580   3.645  19.220  0.00  0.00    +0.000 A 
ATOM      7  N   UNL     1       0.580   3.264  20.026  0.00  0.00    +0.000 N 
ATOM      8  S   UNL     1       2.494   2.499  18.332  0.00  0.00    +0.000 S 
ATOM      9  C   UNL     1       3.487   3.765  17.720  0.00  0.00    +0.000 A 
ATOM     10  C   UNL     1       4.599   3.682  16.864  0.00  0.00    +0.000 A 
ATOM     11  H   UNL     1      -0.048   3.982  20.367  0.00  0.00    +0.000 HD
ATOM     12  H   UNL     1       0.199   2.328  19.962  0.00  0.00    +0.000 HD
ENDROOT
BRANCH   1  13
ATOM     13  C   UNL     1       6.469   4.871  15.655  0.00  0.00    +0.000 C 
ATOM     14  O   UNL     1       7.277   5.785  15.616  0.00  0.00    +0.000 OA
BRANCH  13  16
ATOM     15  C   UNL     1       6.203   3.913  13.543  0.00  0.00    +0.000 C 
ATOM     16  O   UNL     1       6.522   3.731  14.923  0.00  0.00    +0.000 OA
ENDBRANCH  13  16
ENDBRANCH   1  13
TORSDOF 2
ENDMDL
MODEL 4
REMARK VINA RESULT:      -6.2      3.931      5.304
REMARK  Name = 
REMARK  3 active torsions:
REMARK  status: ('A' for Active; 'I' for Inactive)
REMARK    1  A    between atoms: C_1  and  O_2
REMARK    2  A    between atoms: O_2  and  C_3
REMARK    3  A    between atoms: C_3  and  C_5
REMARK                            x       y       z     vdW  Elec       q    Type
REMARK                         _______ _______ _______ _____ _____    ______ ____
ROOT
ATOM      1  C   UNL     1       5.306   5.449  17.084  0.00  0.00    +0.000 A 
ATOM      2  C   UNL     1       4.319   6.387  17.409  0.00  0.00    +0.000 A 
ATOM      3  C   UNL     1       3.048   5.971  17.825  0.00  0.00    +0.000 A 
ATOM      4  C   UNL     1       2.764   4.596  17.934  0.00  0.00    +0.000 A 
ATOM      5  N   UNL     1       1.566   4.047  18.355  0.00  0.00    +0.000 NA
ATOM      6  C   UNL     1       1.654   2.743  18.381  0.00  0.00    +0.000 A 
ATOM      7  N   UNL     1       0.657   1.953  18.804  0.00  0.00    +0.000 N 
ATOM      8  S   UNL     1       3.141   2.086  17.841  0.00  0.00    +0.000 S 
ATOM      9  C   UNL     1       3.758   3.676  17.605  0.00  0.00    +0.000 A 
ATOM     10  C   UNL     1       5.033   4.074  17.169  0.00  0.00    +0.000 A 
ATOM     11  H   UNL     1      -0.257   2.373  18.921  0.00  0.00    +0.000 HD
ATOM     12  H   UNL     1       0.673   0.960  18.609  0.00  0.00    +0.000 HD
ENDROOT
BRANCH   1  13
ATOM     13  C   UNL     1       6.636   5.958  16.663  0.00  0.00    +0.000 C 
ATOM     14  O   UNL     1       7.542   5.239  16.270  0.00  0.00    +0.000 OA
BRANCH  13  16
ATOM     15  C   UNL     1       7.745   7.770  17.631  0.00  0.00    +0.000 C 
ATOM     16  O   UNL     1       6.689   7.306  16.789  0.00  0.00    +0.000 OA
ENDBRANCH  13  16
ENDBRANCH   1  13
TORSDOF 2
ENDMDL
MODEL 5
REMARK VINA RESULT:      -6.2      4.149      5.569
REMARK  Name = 
REMARK  3 active torsions:
REMARK  status: ('A' for Active; 'I' for Inactive)
REMARK    1  A    between atoms: C_1  and  O_2
REMARK    2  A    between atoms: O_2  and  C_3
REMARK    3  A    between atoms: C_3  and  C_5
REMARK                            x       y       z     vdW  Elec       q    Type
REMARK                         _______ _______ _______ _____ _____    ______ ____
ROOT
ATOM      1  C   UNL     1       6.082   4.741  18.057  0.00  0.00    +0.000 A 
ATOM      2  C   UNL     1       5.663   4.603  16.729  0.00  0.00    +0.000 A 
ATOM      3  C   UNL     1       4.456   3.964  16.424  0.00  0.00    +0.000 A 
ATOM      4  C   UNL     1       3.645   3.469  17.464  0.00  0.00    +0.000 A 
ATOM      5  N   UNL     1       2.421   2.842  17.309  0.00  0.00    +0.000 NA
ATOM      6  C   UNL     1       1.916   2.547  18.478  0.00  0.00    +0.000 A 
ATOM      7  N   UNL     1       0.710   1.982  18.630  0.00  0.00    +0.000 N 
ATOM      8  S   UNL     1       2.895   2.933  19.830  0.00  0.00    +0.000 S 
ATOM      9  C   UNL     1       4.078   3.613  18.781  0.00  0.00    +0.000 A 
ATOM     10  C   UNL     1       5.295   4.236  19.105  0.00  0.00    +0.000 A 
ATOM     11  H   UNL     1       0.265   1.597  17.806  0.00  0.00    +0.000 HD
ATOM     12  H   UNL     1       0.445   1.573  19.517  0.00  0.00    +0.000 HD
ENDROOT
BRANCH   1  13
ATOM     13  C   UNL     1       7.367   5.441  18.312  0.00  0.00    +0.000 C 
ATOM     14  O   UNL     1       8.029   5.292  19.327  0.00  0.00    +0.000 OA
BRANCH  13  16
ATOM     15  C   UNL     1       7.652   7.646  17.599  0.00  0.00    +0.000 C 
ATOM     16  O   UNL     1       7.676   6.255  17.274  0.00  0.00    +0.000 OA
ENDBRANCH  13  16
ENDBRANCH   1  13
TORSDOF 2
ENDMDL
MODEL 6
REMARK VINA RESULT:      -6.2      3.922      5.723
REMARK  Name = 
REMARK  3 active torsions:
REMARK  status: ('A' for Active; 'I' for Inactive)
REMARK    1  A    between atoms: C_1  and  O_2
REMARK    2  A    between atoms: O_2  and  C_3
REMARK    3  A    between atoms: C_3  and  C_5
REMARK                            x       y       z     vdW  Elec       q    Type
REMARK                         _______ _______ _______ _____ _____    ______ ____
ROOT
ATOM      1  C   UNL     1       6.345   4.949  15.794  0.00  0.00    +0.000 A 
ATOM      2  C   UNL     1       7.246   4.820  16.857  0.00  0.00    +0.000 A 
ATOM      3  C   UNL     1       6.809   4.930  18.182  0.00  0.00    +0.000 A 
ATOM      4  C   UNL     1       5.445   5.158  18.451  0.00  0.00    +0.000 A 
ATOM      5  N   UNL     1       4.872   5.262  19.706  0.00  0.00    +0.000 NA
ATOM      6  C   UNL     1       3.580   5.430  19.598  0.00  0.00    +0.000 A 
ATOM      7  N   UNL     1       2.764   5.506  20.659  0.00  0.00    +0.000 N 
ATOM      8  S   UNL     1       2.975   5.544  18.000  0.00  0.00    +0.000 S 
ATOM      9  C   UNL     1       4.561   5.286  17.380  0.00  0.00    +0.000 A 
ATOM     10  C   UNL     1       4.985   5.196  16.044  0.00  0.00    +0.000 A 
ATOM     11  H   UNL     1       3.188   5.632  21.570  0.00  0.00    +0.000 HD
ATOM     12  H   UNL     1       1.818   5.849  20.553  0.00  0.00    +0.000 HD
ENDROOT
BRANCH   1  13
ATOM     13  C   UNL     1       6.873   4.808  14.413  0.00  0.00    +0.000 C 
ATOM     14  O   UNL     1       7.855   5.404  14.000  0.00  0.00    +0.000 OA
BRANCH  13  16
ATOM     15  C   UNL     1       6.599   3.686  12.384  0.00  0.00    +0.000 C 
ATOM     16  O   UNL     1       6.110   3.943  13.702  0.00  0.00    +0.000 OA
ENDBRANCH  13  16
ENDBRANCH   1  13
TORSDOF 2
ENDMDL
MODEL 7
REMARK VINA RESULT:      -6.1      3.990      5.576
REMARK  Name = 
REMARK  3 active torsions:
REMARK  status: ('A' for Active; 'I' for Inactive)
REMARK    1  A    between atoms: C_1  and  O_2
REMARK    2  A    between atoms: O_2  and  C_3
REMARK    3  A    between atoms: C_3  and  C_5
REMARK                            x       y       z     vdW  Elec       q    Type
REMARK                         _______ _______ _______ _____ _____    ______ ____
ROOT
ATOM      1  C   UNL     1       5.586   4.699  16.937  0.00  0.00    +0.000 A 
ATOM      2  C   UNL     1       6.006   5.203  18.173  0.00  0.00    +0.000 A 
ATOM      3  C   UNL     1       5.138   5.215  19.272  0.00  0.00    +0.000 A 
ATOM      4  C   UNL     1       3.834   4.698  19.138  0.00  0.00    +0.000 A 
ATOM      5  N   UNL     1       2.885   4.623  20.142  0.00  0.00    +0.000 NA
ATOM      6  C   UNL     1       1.799   4.051  19.691  0.00  0.00    +0.000 A 
ATOM      7  N   UNL     1       0.734   3.798  20.464  0.00  0.00    +0.000 N 
ATOM      8  S   UNL     1       1.813   3.631  18.030  0.00  0.00    +0.000 S 
ATOM      9  C   UNL     1       3.432   4.201  17.899  0.00  0.00    +0.000 A 
ATOM     10  C   UNL     1       4.283   4.198  16.781  0.00  0.00    +0.000 A 
ATOM     11  H   UNL     1       0.699   4.240  21.375  0.00  0.00    +0.000 HD
ATOM     12  H   UNL     1      -0.156   3.560  20.047  0.00  0.00    +0.000 HD
ENDROOT
BRANCH   1  13
ATOM     13  C   UNL     1       6.561   4.704  15.817  0.00  0.00    +0.000 C 
ATOM     14  O   UNL     1       7.419   5.561  15.670  0.00  0.00    +0.000 OA
BRANCH  13  16
ATOM     15  C   UNL     1       6.295   3.978  13.614  0.00  0.00    +0.000 C 
ATOM     16  O   UNL     1       6.350   3.642  15.001  0.00  0.00    +0.000 OA
ENDBRANCH  13  16
ENDBRANCH   1  13
TORSDOF 2
ENDMDL
MODEL 8
REMARK VINA RESULT:      -6.1      4.021      5.796
REMARK  Name = 
REMARK  3 active torsions:
REMARK  status: ('A' for Active; 'I' for Inactive)
REMARK    1  A    between atoms: C_1  and  O_2
REMARK    2  A    between atoms: O_2  and  C_3
REMARK    3  A    between atoms: C_3  and  C_5
REMARK                            x       y       z     vdW  Elec       q    Type
REMARK                         _______ _______ _______ _____ _____    ______ ____
ROOT
ATOM      1  C   UNL     1       6.370   4.551  15.610  0.00  0.00    +0.000 A 
ATOM      2  C   UNL     1       7.246   4.858  16.657  0.00  0.00    +0.000 A 
ATOM      3  C   UNL     1       6.862   4.668  17.990  0.00  0.00    +0.000 A 
ATOM      4  C   UNL     1       5.586   4.147  18.281  0.00  0.00    +0.000 A 
ATOM      5  N   UNL     1       5.086   3.884  19.545  0.00  0.00    +0.000 NA
ATOM      6  C   UNL     1       3.889   3.366  19.456  0.00  0.00    +0.000 A 
ATOM      7  N   UNL     1       3.189   2.963  20.525  0.00  0.00    +0.000 N 
ATOM      8  S   UNL     1       3.256   3.223  17.870  0.00  0.00    +0.000 S 
ATOM      9  C   UNL     1       4.725   3.848  17.226  0.00  0.00    +0.000 A 
ATOM     10  C   UNL     1       5.087   4.049  15.883  0.00  0.00    +0.000 A 
ATOM     11  H   UNL     1       3.519   3.249  21.438  0.00  0.00    +0.000 HD
ATOM     12  H   UNL     1       2.198   2.773  20.445  0.00  0.00    +0.000 HD
ENDROOT
BRANCH   1  13
ATOM     13  C   UNL     1       6.846   4.764  14.220  0.00  0.00    +0.000 C 
ATOM     14  O   UNL     1       7.798   5.472  13.932  0.00  0.00    +0.000 OA
BRANCH  13  16
ATOM     15  C   UNL     1       6.778   3.612  12.191  0.00  0.00    +0.000 C 
ATOM     16  O   UNL     1       6.075   4.074  13.345  0.00  0.00    +0.000 OA
ENDBRANCH  13  16
ENDBRANCH   1  13
TORSDOF 2
ENDMDL
MODEL 9
REMARK VINA RESULT:      -6.1      4.218      5.672
REMARK  Name = 
REMARK  3 active torsions:
REMARK  status: ('A' for Active; 'I' for Inactive)
REMARK    1  A    between atoms: C_1  and  O_2
REMARK    2  A    between atoms: O_2  and  C_3
REMARK    3  A    between atoms: C_3  and  C_5
REMARK                            x       y       z     vdW  Elec       q    Type
REMARK                         _______ _______ _______ _____ _____    ______ ____
ROOT
ATOM      1  C   UNL     1       5.892   4.491  17.723  0.00  0.00    +0.000 A 
ATOM      2  C   UNL     1       5.122   4.228  16.584  0.00  0.00    +0.000 A 
ATOM      3  C   UNL     1       3.778   3.855  16.702  0.00  0.00    +0.000 A 
ATOM      4  C   UNL     1       3.188   3.759  17.978  0.00  0.00    +0.000 A 
ATOM      5  N   UNL     1       1.871   3.429  18.239  0.00  0.00    +0.000 NA
ATOM      6  C   UNL     1       1.643   3.473  19.526  0.00  0.00    +0.000 A 
ATOM      7  N   UNL     1       0.434   3.250  20.060  0.00  0.00    +0.000 N 
ATOM      8  S   UNL     1       2.997   3.842  20.509  0.00  0.00    +0.000 S 
ATOM      9  C   UNL     1       3.971   4.023  19.101  0.00  0.00    +0.000 A 
ATOM     10  C   UNL     1       5.326   4.382  19.003  0.00  0.00    +0.000 A 
ATOM     11  H   UNL     1      -0.276   2.846  19.463  0.00  0.00    +0.000 HD
ATOM     12  H   UNL     1       0.338   3.078  21.053  0.00  0.00    +0.000 HD
ENDROOT
BRANCH   1  13
ATOM     13  C   UNL     1       7.308   4.895  17.526  0.00  0.00    +0.000 C 
ATOM     14  O   UNL     1       8.256   4.297  18.010  0.00  0.00    +0.000 OA
BRANCH  13  16
ATOM     15  C   UNL     1       7.456   7.225  17.495  0.00  0.00    +0.000 C 
ATOM     16  O   UNL     1       7.380   6.007  16.754  0.00  0.00    +0.000 OA
ENDBRANCH  13  16
ENDBRANCH   1  13
TORSDOF 2
ENDMDL
