MODEL 1
REMARK VINA RESULT:      -8.0      0.000      0.000
REMARK  Name = 
REMARK  3 active torsions:
REMARK  status: ('A' for Active; 'I' for Inactive)
REMARK    1  A    between atoms: C_1  and  C_9
REMARK    2  A    between atoms: C_2  and  N_3
REMARK    3  A    between atoms: C_9  and  N_10
REMARK                            x       y       z     vdW  Elec       q    Type
REMARK                         _______ _______ _______ _____ _____    ______ ____
ROOT
ATOM      1  N   UNL     1      -0.210  10.053  18.984  0.00  0.00    +0.000 N 
ATOM      2  C   UNL     1      -1.321  10.466  18.207  0.00  0.00    +0.000 A 
ATOM      3  C   UNL     1      -1.577   9.870  16.960  0.00  0.00    +0.000 A 
ATOM      4  C   UNL     1      -2.769  10.115  16.271  0.00  0.00    +0.000 A 
ATOM      5  C   UNL     1      -3.719  10.984  16.798  0.00  0.00    +0.000 A 
ATOM      6  C   UNL     1      -3.468  11.626  18.007  0.00  0.00    +0.000 A 
ATOM      7  C   UNL     1      -2.285  11.365  18.714  0.00  0.00    +0.000 A 
ATOM      8  S   UNL     1      -2.050  12.215  20.264  0.00  0.00    +0.000 S 
ATOM      9  C   UNL     1      -1.020  11.030  21.107  0.00  0.00    +0.000 A 
ATOM     10  C   UNL     1      -1.044  11.029  22.509  0.00  0.00    +0.000 A 
ATOM     11  C   UNL     1      -0.281  10.111  23.225  0.00  0.00    +0.000 A 
ATOM     12  C   UNL     1       0.519   9.200  22.544  0.00  0.00    +0.000 A 
ATOM     13  C   UNL     1       0.566   9.213  21.147  0.00  0.00    +0.000 A 
ATOM     14  C   UNL     1      -0.197  10.127  20.402  0.00  0.00    +0.000 A 
ENDROOT
BRANCH   1  15
ATOM     15  C   UNL     1       1.120  10.141  18.341  0.00  0.00    +0.000 C 
BRANCH  15  16
ATOM     16  C   UNL     1       1.777   8.830  18.168  0.00  0.00    +0.000 C 
ATOM     17  C   UNL     1       2.327   7.768  18.096  0.00  0.00    +0.000 C 
BRANCH  17  18
ATOM     18  N   UNL     1       2.937   6.454  18.039  0.00  0.00    +0.000 N 
ATOM     19  C   UNL     1       2.276   5.298  18.619  0.00  0.00    +0.000 C 
ATOM     20  C   UNL     1       2.419   4.125  17.645  0.00  0.00    +0.000 C 
ATOM     21  C   UNL     1       3.880   3.893  17.252  0.00  0.00    +0.000 C 
ATOM     22  C   UNL     1       4.542   5.185  16.762  0.00  0.00    +0.000 C 
ATOM     23  C   UNL     1       4.354   6.329  17.757  0.00  0.00    +0.000 C 
ENDBRANCH  17  18
ENDBRANCH  15  16
ENDBRANCH   1  15
TORSDOF 3
ENDMDL
MODEL 2
REMARK VINA RESULT:      -7.8      3.409      8.000
REMARK  Name = 
REMARK  3 active torsions:
REMARK  status: ('A' for Active; 'I' for Inactive)
REMARK    1  A    between atoms: C_1  and  C_9
REMARK    2  A    between atoms: C_2  and  N_3
REMARK    3  A    between atoms: C_9  and  N_10
REMARK                            x       y       z     vdW  Elec       q    Type
REMARK                         _______ _______ _______ _____ _____    ______ ____
ROOT
ATOM      1  N   UNL     1       3.317   5.981  18.429  0.00  0.00    +0.000 N 
ATOM      2  C   UNL     1       4.564   5.865  17.765  0.00  0.00    +0.000 A 
ATOM      3  C   UNL     1       5.454   6.951  17.729  0.00  0.00    +0.000 A 
ATOM      4  C   UNL     1       6.763   6.802  17.259  0.00  0.00    +0.000 A 
ATOM      5  C   UNL     1       7.202   5.569  16.786  0.00  0.00    +0.000 A 
ATOM      6  C   UNL     1       6.325   4.489  16.763  0.00  0.00    +0.000 A 
ATOM      7  C   UNL     1       5.019   4.628  17.257  0.00  0.00    +0.000 A 
ATOM      8  S   UNL     1       3.965   3.190  17.208  0.00  0.00    +0.000 S 
ATOM      9  C   UNL     1       2.898   3.549  18.591  0.00  0.00    +0.000 A 
ATOM     10  C   UNL     1       2.292   2.465  19.241  0.00  0.00    +0.000 A 
ATOM     11  C   UNL     1       1.468   2.678  20.343  0.00  0.00    +0.000 A 
ATOM     12  C   UNL     1       1.237   3.974  20.791  0.00  0.00    +0.000 A 
ATOM     13  C   UNL     1       1.820   5.059  20.131  0.00  0.00    +0.000 A 
ATOM     14  C   UNL     1       2.657   4.870  19.019  0.00  0.00    +0.000 A 
ENDROOT
BRANCH   1  15
ATOM     15  C   UNL     1       2.425   7.073  17.982  0.00  0.00    +0.000 C 
BRANCH  15  16
ATOM     16  C   UNL     1       1.960   7.941  19.082  0.00  0.00    +0.000 C 
ATOM     17  C   UNL     1       1.548   8.684  19.928  0.00  0.00    +0.000 C 
BRANCH  17  18
ATOM     18  N   UNL     1       0.988   9.550  20.946  0.00  0.00    +0.000 N 
ATOM     19  C   UNL     1       0.669  10.936  20.654  0.00  0.00    +0.000 C 
ATOM     20  C   UNL     1      -0.688  11.260  21.286  0.00  0.00    +0.000 C 
ATOM     21  C   UNL     1      -0.717  10.898  22.774  0.00  0.00    +0.000 C 
ATOM     22  C   UNL     1      -0.255   9.457  23.011  0.00  0.00    +0.000 C 
ATOM     23  C   UNL     1       1.091   9.179  22.344  0.00  0.00    +0.000 C 
ENDBRANCH  17  18
ENDBRANCH  15  16
ENDBRANCH   1  15
TORSDOF 3
ENDMDL
MODEL 3
REMARK VINA RESULT:      -7.7      0.543      1.195
REMARK  Name = 
REMARK  3 active torsions:
REMARK  status: ('A' for Active; 'I' for Inactive)
REMARK    1  A    between atoms: C_1  and  C_9
REMARK    2  A    between atoms: C_2  and  N_3
REMARK    3  A    between atoms: C_9  and  N_10
REMARK                            x       y       z     vdW  Elec       q    Type
REMARK                         _______ _______ _______ _____ _____    ______ ____
ROOT
ATOM      1  N   UNL     1      -0.252  10.081  19.050  0.00  0.00    +0.000 N 
ATOM      2  C   UNL     1      -1.354  10.477  18.250  0.00  0.00    +0.000 A 
ATOM      3  C   UNL     1      -1.584   9.866  17.006  0.00  0.00    +0.000 A 
ATOM      4  C   UNL     1      -2.766  10.094  16.293  0.00  0.00    +0.000 A 
ATOM      5  C   UNL     1      -3.731  10.961  16.795  0.00  0.00    +0.000 A 
ATOM      6  C   UNL     1      -3.506  11.618  18.001  0.00  0.00    +0.000 A 
ATOM      7  C   UNL     1      -2.333  11.374  18.731  0.00  0.00    +0.000 A 
ATOM      8  S   UNL     1      -2.130  12.244  20.275  0.00  0.00    +0.000 S 
ATOM      9  C   UNL     1      -1.105  11.075  21.148  0.00  0.00    +0.000 A 
ATOM     10  C   UNL     1      -1.153  11.090  22.549  0.00  0.00    +0.000 A 
ATOM     11  C   UNL     1      -0.395  10.186  23.288  0.00  0.00    +0.000 A 
ATOM     12  C   UNL     1       0.423   9.273  22.631  0.00  0.00    +0.000 A 
ATOM     13  C   UNL     1       0.493   9.271  21.235  0.00  0.00    +0.000 A 
ATOM     14  C   UNL     1      -0.265  10.171  20.467  0.00  0.00    +0.000 A 
ENDROOT
BRANCH   1  15
ATOM     15  C   UNL     1       1.087  10.172  18.429  0.00  0.00    +0.000 C 
BRANCH  15  16
ATOM     16  C   UNL     1       1.747   8.862  18.260  0.00  0.00    +0.000 C 
ATOM     17  C   UNL     1       2.334   7.832  18.088  0.00  0.00    +0.000 C 
BRANCH  17  18
ATOM     18  N   UNL     1       3.089   6.604  17.930  0.00  0.00    +0.000 N 
ATOM     19  C   UNL     1       4.385   6.603  17.276  0.00  0.00    +0.000 C 
ATOM     20  C   UNL     1       5.330   5.708  18.084  0.00  0.00    +0.000 C 
ATOM     21  C   UNL     1       4.730   4.318  18.314  0.00  0.00    +0.000 C 
ATOM     22  C   UNL     1       3.316   4.406  18.896  0.00  0.00    +0.000 C 
ATOM     23  C   UNL     1       2.420   5.325  18.068  0.00  0.00    +0.000 C 
ENDBRANCH  17  18
ENDBRANCH  15  16
ENDBRANCH   1  15
TORSDOF 3
ENDMDL
MODEL 4
REMARK VINA RESULT:      -7.4      2.034      3.896
REMARK  Name = 
REMARK  3 active torsions:
REMARK  status: ('A' for Active; 'I' for Inactive)
REMARK    1  A    between atoms: C_1  and  C_9
REMARK    2  A    between atoms: C_2  and  N_3
REMARK    3  A    between atoms: C_9  and  N_10
REMARK                            x       y       z     vdW  Elec       q    Type
REMARK                         _______ _______ _______ _____ _____    ______ ____
ROOT
ATOM      1  N   UNL     1       1.064  10.876  19.370  0.00  0.00    +0.000 N 
ATOM      2  C   UNL     1       0.420  10.511  20.580  0.00  0.00    +0.000 A 
ATOM      3  C   UNL     1       0.617   9.235  21.133  0.00  0.00    +0.000 A 
ATOM      4  C   UNL     1       0.158   8.923  22.417  0.00  0.00    +0.000 A 
ATOM      5  C   UNL     1      -0.534   9.870  23.165  0.00  0.00    +0.000 A 
ATOM      6  C   UNL     1      -0.786  11.126  22.620  0.00  0.00    +0.000 A 
ATOM      7  C   UNL     1      -0.307  11.452  21.343  0.00  0.00    +0.000 A 
ATOM      8  S   UNL     1      -0.658  13.088  20.727  0.00  0.00    +0.000 S 
ATOM      9  C   UNL     1       0.742  13.312  19.646  0.00  0.00    +0.000 A 
ATOM     10  C   UNL     1       1.155  14.626  19.382  0.00  0.00    +0.000 A 
ATOM     11  C   UNL     1       2.258  14.865  18.567  0.00  0.00    +0.000 A 
ATOM     12  C   UNL     1       2.942  13.795  18.000  0.00  0.00    +0.000 A 
ATOM     13  C   UNL     1       2.519  12.486  18.239  0.00  0.00    +0.000 A 
ATOM     14  C   UNL     1       1.412  12.217  19.062  0.00  0.00    +0.000 A 
ENDROOT
BRANCH   1  15
ATOM     15  C   UNL     1       0.815  10.009  18.198  0.00  0.00    +0.000 C 
BRANCH  15  16
ATOM     16  C   UNL     1       1.782   8.900  18.069  0.00  0.00    +0.000 C 
ATOM     17  C   UNL     1       2.516   7.957  17.982  0.00  0.00    +0.000 C 
BRANCH  17  18
ATOM     18  N   UNL     1       3.374   6.801  17.814  0.00  0.00    +0.000 N 
ATOM     19  C   UNL     1       3.081   5.550  18.489  0.00  0.00    +0.000 C 
ATOM     20  C   UNL     1       3.308   4.404  17.497  0.00  0.00    +0.000 C 
ATOM     21  C   UNL     1       4.699   4.476  16.863  0.00  0.00    +0.000 C 
ATOM     22  C   UNL     1       4.978   5.863  16.277  0.00  0.00    +0.000 C 
ATOM     23  C   UNL     1       4.718   6.971  17.297  0.00  0.00    +0.000 C 
ENDBRANCH  17  18
ENDBRANCH  15  16
ENDBRANCH   1  15
TORSDOF 3
ENDMDL
MODEL 5
REMARK VINA RESULT:      -7.3      3.184      7.901
REMARK  Name = 
REMARK  3 active torsions:
REMARK  status: ('A' for Active; 'I' for Inactive)
REMARK    1  A    between atoms: C_1  and  C_9
REMARK    2  A    between atoms: C_2  and  N_3
REMARK    3  A    between atoms: C_9  and  N_10
REMARK                            x       y       z     vdW  Elec       q    Type
REMARK                         _______ _______ _______ _____ _____    ______ ____
ROOT
ATOM      1  N   UNL     1       3.535   6.257  18.327  0.00  0.00    +0.000 N 
ATOM      2  C   UNL     1       4.764   5.946  17.692  0.00  0.00    +0.000 A 
ATOM      3  C   UNL     1       5.805   6.888  17.658  0.00  0.00    +0.000 A 
ATOM      4  C   UNL     1       7.087   6.538  17.219  0.00  0.00    +0.000 A 
ATOM      5  C   UNL     1       7.348   5.246  16.776  0.00  0.00    +0.000 A 
ATOM      6  C   UNL     1       6.321   4.306  16.752  0.00  0.00    +0.000 A 
ATOM      7  C   UNL     1       5.041   4.646  17.214  0.00  0.00    +0.000 A 
ATOM      8  S   UNL     1       3.787   3.378  17.165  0.00  0.00    +0.000 S 
ATOM      9  C   UNL     1       2.759   3.917  18.518  0.00  0.00    +0.000 A 
ATOM     10  C   UNL     1       1.986   2.947  19.172  0.00  0.00    +0.000 A 
ATOM     11  C   UNL     1       1.182   3.300  20.252  0.00  0.00    +0.000 A 
ATOM     12  C   UNL     1       1.136   4.625  20.674  0.00  0.00    +0.000 A 
ATOM     13  C   UNL     1       1.885   5.599  20.009  0.00  0.00    +0.000 A 
ATOM     14  C   UNL     1       2.707   5.267  18.919  0.00  0.00    +0.000 A 
ENDROOT
BRANCH   1  15
ATOM     15  C   UNL     1       2.823   7.460  17.842  0.00  0.00    +0.000 C 
BRANCH  15  16
ATOM     16  C   UNL     1       2.016   8.125  18.884  0.00  0.00    +0.000 C 
ATOM     17  C   UNL     1       1.327   8.700  19.678  0.00  0.00    +0.000 C 
BRANCH  17  18
ATOM     18  N   UNL     1       0.442   9.353  20.622  0.00  0.00    +0.000 N 
ATOM     19  C   UNL     1      -0.188   8.605  21.695  0.00  0.00    +0.000 C 
ATOM     20  C   UNL     1      -0.109   9.443  22.975  0.00  0.00    +0.000 C 
ATOM     21  C   UNL     1      -0.671  10.851  22.763  0.00  0.00    +0.000 C 
ATOM     22  C   UNL     1      -0.042  11.530  21.543  0.00  0.00    +0.000 C 
ATOM     23  C   UNL     1      -0.128  10.647  20.299  0.00  0.00    +0.000 C 
ENDBRANCH  17  18
ENDBRANCH  15  16
ENDBRANCH   1  15
TORSDOF 3
ENDMDL
MODEL 6
REMARK VINA RESULT:      -7.3      2.145      4.092
REMARK  Name = 
REMARK  3 active torsions:
REMARK  status: ('A' for Active; 'I' for Inactive)
REMARK    1  A    between atoms: C_1  and  C_9
REMARK    2  A    between atoms: C_2  and  N_3
REMARK    3  A    between atoms: C_9  and  N_10
REMARK                            x       y       z     vdW  Elec       q    Type
REMARK                         _______ _______ _______ _____ _____    ______ ____
ROOT
ATOM      1  N   UNL     1       1.013  10.870  19.384  0.00  0.00    +0.000 N 
ATOM      2  C   UNL     1       0.363  10.512  20.592  0.00  0.00    +0.000 A 
ATOM      3  C   UNL     1       0.556   9.238  21.153  0.00  0.00    +0.000 A 
ATOM      4  C   UNL     1       0.090   8.933  22.436  0.00  0.00    +0.000 A 
ATOM      5  C   UNL     1      -0.605   9.884  23.175  0.00  0.00    +0.000 A 
ATOM      6  C   UNL     1      -0.854  11.137  22.623  0.00  0.00    +0.000 A 
ATOM      7  C   UNL     1      -0.368  11.456  21.346  0.00  0.00    +0.000 A 
ATOM      8  S   UNL     1      -0.716  13.090  20.720  0.00  0.00    +0.000 S 
ATOM      9  C   UNL     1       0.690  13.308  19.646  0.00  0.00    +0.000 A 
ATOM     10  C   UNL     1       1.105  14.620  19.378  0.00  0.00    +0.000 A 
ATOM     11  C   UNL     1       2.212  14.855  18.567  0.00  0.00    +0.000 A 
ATOM     12  C   UNL     1       2.899  13.782  18.010  0.00  0.00    +0.000 A 
ATOM     13  C   UNL     1       2.475  12.474  18.253  0.00  0.00    +0.000 A 
ATOM     14  C   UNL     1       1.363  12.210  19.071  0.00  0.00    +0.000 A 
ENDROOT
BRANCH   1  15
ATOM     15  C   UNL     1       0.771   9.997  18.215  0.00  0.00    +0.000 C 
BRANCH  15  16
ATOM     16  C   UNL     1       1.782   8.932  18.055  0.00  0.00    +0.000 C 
ATOM     17  C   UNL     1       2.603   8.063  17.995  0.00  0.00    +0.000 C 
BRANCH  17  18
ATOM     18  N   UNL     1       3.547   6.963  17.935  0.00  0.00    +0.000 N 
ATOM     19  C   UNL     1       4.528   6.879  16.868  0.00  0.00    +0.000 C 
ATOM     20  C   UNL     1       5.869   6.464  17.481  0.00  0.00    +0.000 C 
ATOM     21  C   UNL     1       5.734   5.194  18.325  0.00  0.00    +0.000 C 
ATOM     22  C   UNL     1       4.601   5.318  19.349  0.00  0.00    +0.000 C 
ATOM     23  C   UNL     1       3.292   5.753  18.693  0.00  0.00    +0.000 C 
ENDBRANCH  17  18
ENDBRANCH  15  16
ENDBRANCH   1  15
TORSDOF 3
ENDMDL
MODEL 7
REMARK VINA RESULT:      -7.2      3.577      6.518
REMARK  Name = 
REMARK  3 active torsions:
REMARK  status: ('A' for Active; 'I' for Inactive)
REMARK    1  A    between atoms: C_1  and  C_9
REMARK    2  A    between atoms: C_2  and  N_3
REMARK    3  A    between atoms: C_9  and  N_10
REMARK                            x       y       z     vdW  Elec       q    Type
REMARK                         _______ _______ _______ _____ _____    ______ ____
ROOT
ATOM      1  N   UNL     1       3.577   5.804  18.154  0.00  0.00    +0.000 N 
ATOM      2  C   UNL     1       2.926   7.013  18.507  0.00  0.00    +0.000 A 
ATOM      3  C   UNL     1       3.054   8.152  17.696  0.00  0.00    +0.000 A 
ATOM      4  C   UNL     1       2.267   9.289  17.913  0.00  0.00    +0.000 A 
ATOM      5  C   UNL     1       1.356   9.322  18.963  0.00  0.00    +0.000 A 
ATOM      6  C   UNL     1       1.246   8.224  19.812  0.00  0.00    +0.000 A 
ATOM      7  C   UNL     1       2.015   7.074  19.585  0.00  0.00    +0.000 A 
ATOM      8  S   UNL     1       1.799   5.706  20.709  0.00  0.00    +0.000 S 
ATOM      9  C   UNL     1       2.218   4.354  19.625  0.00  0.00    +0.000 A 
ATOM     10  C   UNL     1       1.673   3.095  19.917  0.00  0.00    +0.000 A 
ATOM     11  C   UNL     1       1.942   2.005  19.094  0.00  0.00    +0.000 A 
ATOM     12  C   UNL     1       2.766   2.165  17.985  0.00  0.00    +0.000 A 
ATOM     13  C   UNL     1       3.331   3.411  17.705  0.00  0.00    +0.000 A 
ATOM     14  C   UNL     1       3.073   4.527  18.517  0.00  0.00    +0.000 A 
ENDROOT
BRANCH   1  15
ATOM     15  C   UNL     1       5.044   5.868  17.971  0.00  0.00    +0.000 C 
BRANCH  15  16
ATOM     16  C   UNL     1       5.492   5.413  16.640  0.00  0.00    +0.000 C 
ATOM     17  C   UNL     1       5.921   5.045  15.584  0.00  0.00    +0.000 C 
BRANCH  17  18
ATOM     18  N   UNL     1       6.449   4.536  14.333  0.00  0.00    +0.000 N 
ATOM     19  C   UNL     1       5.955   3.295  13.764  0.00  0.00    +0.000 C 
ATOM     20  C   UNL     1       5.771   3.498  12.257  0.00  0.00    +0.000 C 
ATOM     21  C   UNL     1       7.045   4.037  11.602  0.00  0.00    +0.000 C 
ATOM     22  C   UNL     1       7.570   5.278  12.330  0.00  0.00    +0.000 C 
ATOM     23  C   UNL     1       7.716   5.032  13.831  0.00  0.00    +0.000 C 
ENDBRANCH  17  18
ENDBRANCH  15  16
ENDBRANCH   1  15
TORSDOF 3
ENDMDL
MODEL 8
REMARK VINA RESULT:      -7.1      3.053      5.474
REMARK  Name = 
REMARK  3 active torsions:
REMARK  status: ('A' for Active; 'I' for Inactive)
REMARK    1  A    between atoms: C_1  and  C_9
REMARK    2  A    between atoms: C_2  and  N_3
REMARK    3  A    between atoms: C_9  and  N_10
REMARK                            x       y       z     vdW  Elec       q    Type
REMARK                         _______ _______ _______ _____ _____    ______ ____
ROOT
ATOM      1  N   UNL     1      -0.328  10.080  19.097  0.00  0.00    +0.000 N 
ATOM      2  C   UNL     1      -1.421  10.495  18.293  0.00  0.00    +0.000 A 
ATOM      3  C   UNL     1      -1.660   9.886  17.050  0.00  0.00    +0.000 A 
ATOM      4  C   UNL     1      -2.837  10.134  16.335  0.00  0.00    +0.000 A 
ATOM      5  C   UNL     1      -3.787  11.020  16.834  0.00  0.00    +0.000 A 
ATOM      6  C   UNL     1      -3.551  11.675  18.039  0.00  0.00    +0.000 A 
ATOM      7  C   UNL     1      -2.384  11.410  18.771  0.00  0.00    +0.000 A 
ATOM      8  S   UNL     1      -2.168  12.278  20.314  0.00  0.00    +0.000 S 
ATOM      9  C   UNL     1      -1.166  11.093  21.191  0.00  0.00    +0.000 A 
ATOM     10  C   UNL     1      -1.216  11.111  22.592  0.00  0.00    +0.000 A 
ATOM     11  C   UNL     1      -0.476  10.193  23.334  0.00  0.00    +0.000 A 
ATOM     12  C   UNL     1       0.326   9.265  22.679  0.00  0.00    +0.000 A 
ATOM     13  C   UNL     1       0.398   9.259  21.284  0.00  0.00    +0.000 A 
ATOM     14  C   UNL     1      -0.341  10.172  20.513  0.00  0.00    +0.000 A 
ENDROOT
BRANCH   1  15
ATOM     15  C   UNL     1       1.014  10.145  18.477  0.00  0.00    +0.000 C 
BRANCH  15  16
ATOM     16  C   UNL     1       1.614  11.494  18.514  0.00  0.00    +0.000 C 
ATOM     17  C   UNL     1       2.040  12.614  18.520  0.00  0.00    +0.000 C 
BRANCH  17  18
ATOM     18  N   UNL     1       2.519  13.980  18.587  0.00  0.00    +0.000 N 
ATOM     19  C   UNL     1       3.887  14.310  18.228  0.00  0.00    +0.000 C 
ATOM     20  C   UNL     1       3.867  15.591  17.388  0.00  0.00    +0.000 C 
ATOM     21  C   UNL     1       3.104  16.715  18.093  0.00  0.00    +0.000 C 
ATOM     22  C   UNL     1       1.715  16.254  18.545  0.00  0.00    +0.000 C 
ATOM     23  C   UNL     1       1.786  14.964  19.361  0.00  0.00    +0.000 C 
ENDBRANCH  17  18
ENDBRANCH  15  16
ENDBRANCH   1  15
TORSDOF 3
ENDMDL
MODEL 9
REMARK VINA RESULT:      -6.9      3.510      8.202
REMARK  Name = 
REMARK  3 active torsions:
REMARK  status: ('A' for Active; 'I' for Inactive)
REMARK    1  A    between atoms: C_1  and  C_9
REMARK    2  A    between atoms: C_2  and  N_3
REMARK    3  A    between atoms: C_9  and  N_10
REMARK                            x       y       z     vdW  Elec       q    Type
REMARK                         _______ _______ _______ _____ _____    ______ ____
ROOT
ATOM      1  N   UNL     1       3.219   5.299  18.508  0.00  0.00    +0.000 N 
ATOM      2  C   UNL     1       2.443   4.153  18.819  0.00  0.00    +0.000 A 
ATOM      3  C   UNL     1       1.211   4.288  19.481  0.00  0.00    +0.000 A 
ATOM      4  C   UNL     1       0.340   3.202  19.619  0.00  0.00    +0.000 A 
ATOM      5  C   UNL     1       0.694   1.950  19.126  0.00  0.00    +0.000 A 
ATOM      6  C   UNL     1       1.931   1.779  18.511  0.00  0.00    +0.000 A 
ATOM      7  C   UNL     1       2.797   2.870  18.348  0.00  0.00    +0.000 A 
ATOM      8  S   UNL     1       4.355   2.568  17.533  0.00  0.00    +0.000 S 
ATOM      9  C   UNL     1       4.645   4.179  16.827  0.00  0.00    +0.000 A 
ATOM     10  C   UNL     1       5.451   4.250  15.682  0.00  0.00    +0.000 A 
ATOM     11  C   UNL     1       5.695   5.476  15.069  0.00  0.00    +0.000 A 
ATOM     12  C   UNL     1       5.146   6.636  15.606  0.00  0.00    +0.000 A 
ATOM     13  C   UNL     1       4.363   6.573  16.761  0.00  0.00    +0.000 A 
ATOM     14  C   UNL     1       4.099   5.348  17.395  0.00  0.00    +0.000 A 
ENDROOT
BRANCH   1  15
ATOM     15  C   UNL     1       3.590   6.177  19.639  0.00  0.00    +0.000 C 
BRANCH  15  16
ATOM     16  C   UNL     1       2.533   7.139  20.008  0.00  0.00    +0.000 C 
ATOM     17  C   UNL     1       1.690   7.909  20.375  0.00  0.00    +0.000 C 
BRANCH  17  18
ATOM     18  N   UNL     1       0.722   8.886  20.832  0.00  0.00    +0.000 N 
ATOM     19  C   UNL     1      -0.320   8.520  21.775  0.00  0.00    +0.000 C 
ATOM     20  C   UNL     1      -0.441   9.638  22.815  0.00  0.00    +0.000 C 
ATOM     21  C   UNL     1      -0.631  11.005  22.152  0.00  0.00    +0.000 C 
ATOM     22  C   UNL     1       0.438  11.267  21.087  0.00  0.00    +0.000 C 
ATOM     23  C   UNL     1       0.534  10.116  20.088  0.00  0.00    +0.000 C 
ENDBRANCH  17  18
ENDBRANCH  15  16
ENDBRANCH   1  15
TORSDOF 3
ENDMDL
