MODEL 1
REMARK VINA RESULT:      -7.8      0.000      0.000
REMARK  Name = 
REMARK  9 active torsions:
REMARK  status: ('A' for Active; 'I' for Inactive)
REMARK    1  A    between atoms: C_1  and  O_2
REMARK    2  A    between atoms: O_2  and  C_3
REMARK    3  A    between atoms: C_3  and  C_5
REMARK    4  A    between atoms: C_6  and  C_7
REMARK    5  A    between atoms: C_10  and  N_11
REMARK    6  A    between atoms: N_11  and  C_12
REMARK    7  A    between atoms: C_12  and  C_13
REMARK    8  A    between atoms: C_17  and  O_18
REMARK    9  A    between atoms: C_19  and  O_20
REMARK                            x       y       z     vdW  Elec       q    Type
REMARK                         _______ _______ _______ _____ _____    ______ ____
ROOT
ATOM      1  N   UNL     1       5.310   3.787  17.924  0.00  0.00    +0.000 N 
ATOM      2  H   UNL     1       5.785   3.036  17.430  0.00  0.00    +0.000 HD
ENDROOT
BRANCH   1   6
ATOM      3  C   UNL     1       7.346   7.515  17.757  0.00  0.00    +0.000 A 
ATOM      4  C   UNL     1       6.182   7.283  17.017  0.00  0.00    +0.000 A 
ATOM      5  C   UNL     1       5.531   6.042  17.079  0.00  0.00    +0.000 A 
ATOM      6  C   UNL     1       6.045   4.982  17.837  0.00  0.00    +0.000 A 
ATOM      7  C   UNL     1       7.199   5.230  18.586  0.00  0.00    +0.000 A 
ATOM      8  C   UNL     1       7.853   6.468  18.533  0.00  0.00    +0.000 A 
BRANCH   3  10
ATOM      9  C   UNL     1       8.749   9.337  18.684  0.00  0.00    +0.000 C 
ATOM     10  C   UNL     1       7.985   8.838  17.699  0.00  0.00    +0.000 C 
BRANCH   9  11
ATOM     11  C   UNL     1       9.289  10.705  18.585  0.00  0.00    +0.000 C 
ATOM     12  O   UNL     1       8.929  11.551  17.779  0.00  0.00    +0.000 OA
BRANCH  11  14
ATOM     13  C   UNL     1       9.772  11.586  20.685  0.00  0.00    +0.000 C 
ATOM     14  O   UNL     1      10.232  10.857  19.548  0.00  0.00    +0.000 OA
ENDBRANCH  11  14
ENDBRANCH   9  11
ENDBRANCH   3  10
ENDBRANCH   1   6
BRANCH   1  15
ATOM     15  C   UNL     1       4.907   3.341  19.263  0.00  0.00    +0.000 C 
BRANCH  15  16
ATOM     16  C   UNL     1       3.422   3.511  19.500  0.00  0.00    +0.000 A 
ATOM     17  C   UNL     1       2.898   4.510  20.339  0.00  0.00    +0.000 A 
ATOM     18  C   UNL     1       1.522   4.587  20.600  0.00  0.00    +0.000 A 
ATOM     19  C   UNL     1       0.642   3.658  20.047  0.00  0.00    +0.000 A 
ATOM     20  C   UNL     1       1.152   2.656  19.233  0.00  0.00    +0.000 A 
ATOM     21  C   UNL     1       2.521   2.585  18.964  0.00  0.00    +0.000 A 
BRANCH  20  22
ATOM     22  O   UNL     1       0.348   1.698  18.677  0.00  0.00    +0.000 OA
ATOM     23  H   UNL     1       0.581   1.619  17.735  0.00  0.00    +0.000 HD
ENDBRANCH  20  22
BRANCH  21  24
ATOM     24  O   UNL     1       2.975   1.565  18.169  0.00  0.00    +0.000 OA
ATOM     25  H   UNL     1       3.933   1.511  18.365  0.00  0.00    +0.000 HD
ENDBRANCH  21  24
ENDBRANCH  15  16
ENDBRANCH   1  15
TORSDOF 8
ENDMDL
MODEL 2
REMARK VINA RESULT:      -7.8      1.393      1.767
REMARK  Name = 
REMARK  9 active torsions:
REMARK  status: ('A' for Active; 'I' for Inactive)
REMARK    1  A    between atoms: C_1  and  O_2
REMARK    2  A    between atoms: O_2  and  C_3
REMARK    3  A    between atoms: C_3  and  C_5
REMARK    4  A    between atoms: C_6  and  C_7
REMARK    5  A    between atoms: C_10  and  N_11
REMARK    6  A    between atoms: N_11  and  C_12
REMARK    7  A    between atoms: C_12  and  C_13
REMARK    8  A    between atoms: C_17  and  O_18
REMARK    9  A    between atoms: C_19  and  O_20
REMARK                            x       y       z     vdW  Elec       q    Type
REMARK                         _______ _______ _______ _____ _____    ______ ____
ROOT
ATOM      1  N   UNL     1       5.899   3.868  18.332  0.00  0.00    +0.000 N 
ATOM      2  H   UNL     1       5.912   3.587  19.309  0.00  0.00    +0.000 HD
ENDROOT
BRANCH   1   6
ATOM      3  C   UNL     1       7.708   7.676  17.786  0.00  0.00    +0.000 A 
ATOM      4  C   UNL     1       8.220   6.747  18.697  0.00  0.00    +0.000 A 
ATOM      5  C   UNL     1       7.602   5.499  18.869  0.00  0.00    +0.000 A 
ATOM      6  C   UNL     1       6.431   5.160  18.179  0.00  0.00    +0.000 A 
ATOM      7  C   UNL     1       5.937   6.090  17.258  0.00  0.00    +0.000 A 
ATOM      8  C   UNL     1       6.552   7.336  17.078  0.00  0.00    +0.000 A 
BRANCH   3  10
ATOM      9  C   UNL     1       8.554   9.867  18.580  0.00  0.00    +0.000 C 
ATOM     10  C   UNL     1       8.399   8.961  17.602  0.00  0.00    +0.000 C 
BRANCH   9  11
ATOM     11  C   UNL     1       9.189  11.167  18.296  0.00  0.00    +0.000 C 
ATOM     12  O   UNL     1       8.688  12.070  17.642  0.00  0.00    +0.000 OA
BRANCH  11  14
ATOM     13  C   UNL     1      10.356  11.578  20.267  0.00  0.00    +0.000 C 
ATOM     14  O   UNL     1      10.404  11.184  18.897  0.00  0.00    +0.000 OA
ENDBRANCH  11  14
ENDBRANCH   9  11
ENDBRANCH   3  10
ENDBRANCH   1   6
BRANCH   1  15
ATOM     15  C   UNL     1       4.577   3.612  17.746  0.00  0.00    +0.000 C 
BRANCH  15  16
ATOM     16  C   UNL     1       3.482   3.590  18.790  0.00  0.00    +0.000 A 
ATOM     17  C   UNL     1       2.337   4.401  18.704  0.00  0.00    +0.000 A 
ATOM     18  C   UNL     1       1.382   4.416  19.731  0.00  0.00    +0.000 A 
ATOM     19  C   UNL     1       1.558   3.638  20.875  0.00  0.00    +0.000 A 
ATOM     20  C   UNL     1       2.695   2.849  20.978  0.00  0.00    +0.000 A 
ATOM     21  C   UNL     1       3.642   2.826  19.951  0.00  0.00    +0.000 A 
BRANCH  20  22
ATOM     22  O   UNL     1       2.944   2.080  22.083  0.00  0.00    +0.000 OA
ATOM     23  H   UNL     1       3.887   2.171  22.307  0.00  0.00    +0.000 HD
ENDBRANCH  20  22
BRANCH  21  24
ATOM     24  O   UNL     1       4.756   2.045  20.112  0.00  0.00    +0.000 OA
ATOM     25  H   UNL     1       4.629   1.615  20.982  0.00  0.00    +0.000 HD
ENDBRANCH  21  24
ENDBRANCH  15  16
ENDBRANCH   1  15
TORSDOF 8
ENDMDL
MODEL 3
REMARK VINA RESULT:      -7.7      1.412      1.975
REMARK  Name = 
REMARK  9 active torsions:
REMARK  status: ('A' for Active; 'I' for Inactive)
REMARK    1  A    between atoms: C_1  and  O_2
REMARK    2  A    between atoms: O_2  and  C_3
REMARK    3  A    between atoms: C_3  and  C_5
REMARK    4  A    between atoms: C_6  and  C_7
REMARK    5  A    between atoms: C_10  and  N_11
REMARK    6  A    between atoms: N_11  and  C_12
REMARK    7  A    between atoms: C_12  and  C_13
REMARK    8  A    between atoms: C_17  and  O_18
REMARK    9  A    between atoms: C_19  and  O_20
REMARK                            x       y       z     vdW  Elec       q    Type
REMARK                         _______ _______ _______ _____ _____    ______ ____
ROOT
ATOM      1  N   UNL     1       5.601   3.791  17.907  0.00  0.00    +0.000 N 
ATOM      2  H   UNL     1       5.767   3.332  18.799  0.00  0.00    +0.000 HD
ENDROOT
BRANCH   1   6
ATOM      3  C   UNL     1       7.572   7.554  17.773  0.00  0.00    +0.000 A 
ATOM      4  C   UNL     1       7.978   6.547  18.654  0.00  0.00    +0.000 A 
ATOM      5  C   UNL     1       7.308   5.315  18.689  0.00  0.00    +0.000 A 
ATOM      6  C   UNL     1       6.186   5.068  17.887  0.00  0.00    +0.000 A 
ATOM      7  C   UNL     1       5.799   6.076  16.998  0.00  0.00    +0.000 A 
ATOM      8  C   UNL     1       6.466   7.307  16.955  0.00  0.00    +0.000 A 
BRANCH   3  10
ATOM      9  C   UNL     1       8.773   9.448  18.831  0.00  0.00    +0.000 C 
ATOM     10  C   UNL     1       8.317   8.821  17.735  0.00  0.00    +0.000 C 
BRANCH   9  11
ATOM     11  C   UNL     1       9.442  10.757  18.715  0.00  0.00    +0.000 C 
ATOM     12  O   UNL     1      10.561  11.018  19.132  0.00  0.00    +0.000 OA
BRANCH  11  14
ATOM     13  C   UNL     1       9.237  12.812  17.643  0.00  0.00    +0.000 C 
ATOM     14  O   UNL     1       8.609  11.600  18.057  0.00  0.00    +0.000 OA
ENDBRANCH  11  14
ENDBRANCH   9  11
ENDBRANCH   3  10
ENDBRANCH   1   6
BRANCH   1  15
ATOM     15  C   UNL     1       4.182   3.694  17.541  0.00  0.00    +0.000 C 
BRANCH  15  16
ATOM     16  C   UNL     1       3.275   3.723  18.752  0.00  0.00    +0.000 A 
ATOM     17  C   UNL     1       2.235   4.658  18.897  0.00  0.00    +0.000 A 
ATOM     18  C   UNL     1       1.467   4.709  20.069  0.00  0.00    +0.000 A 
ATOM     19  C   UNL     1       1.732   3.843  21.129  0.00  0.00    +0.000 A 
ATOM     20  C   UNL     1       2.769   2.930  21.003  0.00  0.00    +0.000 A 
ATOM     21  C   UNL     1       3.529   2.872  19.832  0.00  0.00    +0.000 A 
BRANCH  20  22
ATOM     22  O   UNL     1       3.100   2.068  22.013  0.00  0.00    +0.000 OA
ATOM     23  H   UNL     1       2.651   1.220  21.844  0.00  0.00    +0.000 HD
ENDBRANCH  20  22
BRANCH  21  24
ATOM     24  O   UNL     1       4.554   1.965  19.766  0.00  0.00    +0.000 OA
ATOM     25  H   UNL     1       4.480   1.453  20.598  0.00  0.00    +0.000 HD
ENDBRANCH  21  24
ENDBRANCH  15  16
ENDBRANCH   1  15
TORSDOF 8
ENDMDL
MODEL 4
REMARK VINA RESULT:      -7.7      4.411      5.949
REMARK  Name = 
REMARK  9 active torsions:
REMARK  status: ('A' for Active; 'I' for Inactive)
REMARK    1  A    between atoms: C_1  and  O_2
REMARK    2  A    between atoms: O_2  and  C_3
REMARK    3  A    between atoms: C_3  and  C_5
REMARK    4  A    between atoms: C_6  and  C_7
REMARK    5  A    between atoms: C_10  and  N_11
REMARK    6  A    between atoms: N_11  and  C_12
REMARK    7  A    between atoms: C_12  and  C_13
REMARK    8  A    between atoms: C_17  and  O_18
REMARK    9  A    between atoms: C_19  and  O_20
REMARK                            x       y       z     vdW  Elec       q    Type
REMARK                         _______ _______ _______ _____ _____    ______ ____
ROOT
ATOM      1  N   UNL     1       3.983   6.269  19.228  0.00  0.00    +0.000 N 
ATOM      2  H   UNL     1       4.307   7.180  19.542  0.00  0.00    +0.000 HD
ENDROOT
BRANCH   1   6
ATOM      3  C   UNL     1       5.736   4.993  15.572  0.00  0.00    +0.000 A 
ATOM      4  C   UNL     1       5.670   4.150  16.684  0.00  0.00    +0.000 A 
ATOM      5  C   UNL     1       5.096   4.593  17.885  0.00  0.00    +0.000 A 
ATOM      6  C   UNL     1       4.618   5.902  18.028  0.00  0.00    +0.000 A 
ATOM      7  C   UNL     1       4.674   6.733  16.905  0.00  0.00    +0.000 A 
ATOM      8  C   UNL     1       5.242   6.295  15.701  0.00  0.00    +0.000 A 
BRANCH   3  10
ATOM      9  C   UNL     1       5.593   3.860  13.371  0.00  0.00    +0.000 C 
ATOM     10  C   UNL     1       6.311   4.487  14.316  0.00  0.00    +0.000 C 
BRANCH   9  11
ATOM     11  C   UNL     1       6.258   3.310  12.175  0.00  0.00    +0.000 C 
ATOM     12  O   UNL     1       7.259   3.773  11.647  0.00  0.00    +0.000 OA
BRANCH  11  14
ATOM     13  C   UNL     1       6.391   1.238  11.124  0.00  0.00    +0.000 C 
ATOM     14  O   UNL     1       5.577   2.205  11.784  0.00  0.00    +0.000 OA
ENDBRANCH  11  14
ENDBRANCH   9  11
ENDBRANCH   3  10
ENDBRANCH   1   6
BRANCH   1  15
ATOM     15  C   UNL     1       2.516   6.211  19.258  0.00  0.00    +0.000 C 
BRANCH  15  16
ATOM     16  C   UNL     1       2.006   4.877  19.756  0.00  0.00    +0.000 A 
ATOM     17  C   UNL     1       2.203   4.435  21.076  0.00  0.00    +0.000 A 
ATOM     18  C   UNL     1       1.789   3.158  21.482  0.00  0.00    +0.000 A 
ATOM     19  C   UNL     1       1.187   2.287  20.574  0.00  0.00    +0.000 A 
ATOM     20  C   UNL     1       1.006   2.706  19.264  0.00  0.00    +0.000 A 
ATOM     21  C   UNL     1       1.409   3.982  18.862  0.00  0.00    +0.000 A 
BRANCH  20  22
ATOM     22  O   UNL     1       0.445   1.893  18.316  0.00  0.00    +0.000 OA
ATOM     23  H   UNL     1       1.118   1.712  17.637  0.00  0.00    +0.000 HD
ENDBRANCH  20  22
BRANCH  21  24
ATOM     24  O   UNL     1       1.224   4.339  17.552  0.00  0.00    +0.000 OA
ATOM     25  H   UNL     1       1.956   4.962  17.364  0.00  0.00    +0.000 HD
ENDBRANCH  21  24
ENDBRANCH  15  16
ENDBRANCH   1  15
TORSDOF 8
ENDMDL
MODEL 5
REMARK VINA RESULT:      -7.6      1.429      1.829
REMARK  Name = 
REMARK  9 active torsions:
REMARK  status: ('A' for Active; 'I' for Inactive)
REMARK    1  A    between atoms: C_1  and  O_2
REMARK    2  A    between atoms: O_2  and  C_3
REMARK    3  A    between atoms: C_3  and  C_5
REMARK    4  A    between atoms: C_6  and  C_7
REMARK    5  A    between atoms: C_10  and  N_11
REMARK    6  A    between atoms: N_11  and  C_12
REMARK    7  A    between atoms: C_12  and  C_13
REMARK    8  A    between atoms: C_17  and  O_18
REMARK    9  A    between atoms: C_19  and  O_20
REMARK                            x       y       z     vdW  Elec       q    Type
REMARK                         _______ _______ _______ _____ _____    ______ ____
ROOT
ATOM      1  N   UNL     1       5.679   3.804  16.762  0.00  0.00    +0.000 N 
ATOM      2  H   UNL     1       5.826   2.957  17.306  0.00  0.00    +0.000 HD
ENDROOT
BRANCH   1   6
ATOM      3  C   UNL     1       7.879   7.109  18.279  0.00  0.00    +0.000 A 
ATOM      4  C   UNL     1       7.155   7.198  17.086  0.00  0.00    +0.000 A 
ATOM      5  C   UNL     1       6.444   6.092  16.597  0.00  0.00    +0.000 A 
ATOM      6  C   UNL     1       6.472   4.855  17.254  0.00  0.00    +0.000 A 
ATOM      7  C   UNL     1       7.185   4.782  18.455  0.00  0.00    +0.000 A 
ATOM      8  C   UNL     1       7.894   5.883  18.951  0.00  0.00    +0.000 A 
BRANCH   3  10
ATOM      9  C   UNL     1       8.500   9.509  18.214  0.00  0.00    +0.000 C 
ATOM     10  C   UNL     1       8.585   8.297  18.784  0.00  0.00    +0.000 C 
BRANCH   9  11
ATOM     11  C   UNL     1       9.302  10.632  18.732  0.00  0.00    +0.000 C 
ATOM     12  O   UNL     1       9.391  10.953  19.908  0.00  0.00    +0.000 OA
BRANCH  11  14
ATOM     13  C   UNL     1      11.183  11.805  18.024  0.00  0.00    +0.000 C 
ATOM     14  O   UNL     1       9.926  11.224  17.684  0.00  0.00    +0.000 OA
ENDBRANCH  11  14
ENDBRANCH   9  11
ENDBRANCH   3  10
ENDBRANCH   1   6
BRANCH   1  15
ATOM     15  C   UNL     1       4.243   4.063  16.600  0.00  0.00    +0.000 C 
BRANCH  15  16
ATOM     16  C   UNL     1       3.555   4.317  17.924  0.00  0.00    +0.000 A 
ATOM     17  C   UNL     1       2.975   5.555  18.251  0.00  0.00    +0.000 A 
ATOM     18  C   UNL     1       2.417   5.781  19.518  0.00  0.00    +0.000 A 
ATOM     19  C   UNL     1       2.444   4.784  20.493  0.00  0.00    +0.000 A 
ATOM     20  C   UNL     1       3.032   3.565  20.186  0.00  0.00    +0.000 A 
ATOM     21  C   UNL     1       3.579   3.335  18.921  0.00  0.00    +0.000 A 
BRANCH  20  22
ATOM     22  O   UNL     1       3.115   2.551  21.102  0.00  0.00    +0.000 OA
ATOM     23  H   UNL     1       2.260   2.086  21.115  0.00  0.00    +0.000 HD
ENDBRANCH  20  22
BRANCH  21  24
ATOM     24  O   UNL     1       4.164   2.121  18.676  0.00  0.00    +0.000 OA
ATOM     25  H   UNL     1       4.825   2.306  17.977  0.00  0.00    +0.000 HD
ENDBRANCH  21  24
ENDBRANCH  15  16
ENDBRANCH   1  15
TORSDOF 8
ENDMDL
MODEL 6
REMARK VINA RESULT:      -7.5      1.368      1.792
REMARK  Name = 
REMARK  9 active torsions:
REMARK  status: ('A' for Active; 'I' for Inactive)
REMARK    1  A    between atoms: C_1  and  O_2
REMARK    2  A    between atoms: O_2  and  C_3
REMARK    3  A    between atoms: C_3  and  C_5
REMARK    4  A    between atoms: C_6  and  C_7
REMARK    5  A    between atoms: C_10  and  N_11
REMARK    6  A    between atoms: N_11  and  C_12
REMARK    7  A    between atoms: C_12  and  C_13
REMARK    8  A    between atoms: C_17  and  O_18
REMARK    9  A    between atoms: C_19  and  O_20
REMARK                            x       y       z     vdW  Elec       q    Type
REMARK                         _______ _______ _______ _____ _____    ______ ____
ROOT
ATOM      1  N   UNL     1       6.310   4.066  18.014  0.00  0.00    +0.000 N 
ATOM      2  H   UNL     1       5.931   3.817  18.924  0.00  0.00    +0.000 HD
ENDROOT
BRANCH   1   6
ATOM      3  C   UNL     1       7.877   8.017  17.954  0.00  0.00    +0.000 A 
ATOM      4  C   UNL     1       8.283   7.084  18.912  0.00  0.00    +0.000 A 
ATOM      5  C   UNL     1       7.747   5.788  18.921  0.00  0.00    +0.000 A 
ATOM      6  C   UNL     1       6.756   5.399  18.009  0.00  0.00    +0.000 A 
ATOM      7  C   UNL     1       6.370   6.335  17.044  0.00  0.00    +0.000 A 
ATOM      8  C   UNL     1       6.905   7.630  17.027  0.00  0.00    +0.000 A 
BRANCH   3  10
ATOM      9  C   UNL     1       9.215   9.844  18.965  0.00  0.00    +0.000 C 
ATOM     10  C   UNL     1       8.485   9.356  17.949  0.00  0.00    +0.000 C 
BRANCH   9  11
ATOM     11  C   UNL     1       9.723  11.227  18.918  0.00  0.00    +0.000 C 
ATOM     12  O   UNL     1      10.589  11.636  18.158  0.00  0.00    +0.000 OA
BRANCH  11  14
ATOM     13  C   UNL     1       9.407  11.626  21.189  0.00  0.00    +0.000 C 
ATOM     14  O   UNL     1       9.055  11.954  19.847  0.00  0.00    +0.000 OA
ENDBRANCH  11  14
ENDBRANCH   9  11
ENDBRANCH   3  10
ENDBRANCH   1   6
BRANCH   1  15
ATOM     15  C   UNL     1       5.384   3.663  16.947  0.00  0.00    +0.000 C 
BRANCH  15  16
ATOM     16  C   UNL     1       3.944   3.660  17.411  0.00  0.00    +0.000 A 
ATOM     17  C   UNL     1       3.164   4.829  17.469  0.00  0.00    +0.000 A 
ATOM     18  C   UNL     1       1.859   4.803  17.981  0.00  0.00    +0.000 A 
ATOM     19  C   UNL     1       1.310   3.616  18.465  0.00  0.00    +0.000 A 
ATOM     20  C   UNL     1       2.079   2.462  18.431  0.00  0.00    +0.000 A 
ATOM     21  C   UNL     1       3.376   2.484  17.911  0.00  0.00    +0.000 A 
BRANCH  20  22
ATOM     22  O   UNL     1       1.613   1.268  18.912  0.00  0.00    +0.000 OA
ATOM     23  H   UNL     1       2.115   0.553  18.483  0.00  0.00    +0.000 HD
ENDBRANCH  20  22
BRANCH  21  24
ATOM     24  O   UNL     1       4.099   1.320  17.918  0.00  0.00    +0.000 OA
ATOM     25  H   UNL     1       4.191   1.085  16.972  0.00  0.00    +0.000 HD
ENDBRANCH  21  24
ENDBRANCH  15  16
ENDBRANCH   1  15
TORSDOF 8
ENDMDL
MODEL 7
REMARK VINA RESULT:      -7.5      4.387      5.822
REMARK  Name = 
REMARK  9 active torsions:
REMARK  status: ('A' for Active; 'I' for Inactive)
REMARK    1  A    between atoms: C_1  and  O_2
REMARK    2  A    between atoms: O_2  and  C_3
REMARK    3  A    between atoms: C_3  and  C_5
REMARK    4  A    between atoms: C_6  and  C_7
REMARK    5  A    between atoms: C_10  and  N_11
REMARK    6  A    between atoms: N_11  and  C_12
REMARK    7  A    between atoms: C_12  and  C_13
REMARK    8  A    between atoms: C_17  and  O_18
REMARK    9  A    between atoms: C_19  and  O_20
REMARK                            x       y       z     vdW  Elec       q    Type
REMARK                         _______ _______ _______ _____ _____    ______ ____
ROOT
ATOM      1  N   UNL     1       4.052   6.198  19.409  0.00  0.00    +0.000 N 
ATOM      2  H   UNL     1       4.440   7.124  19.566  0.00  0.00    +0.000 HD
ENDROOT
BRANCH   1   6
ATOM      3  C   UNL     1       5.676   4.703  15.777  0.00  0.00    +0.000 A 
ATOM      4  C   UNL     1       5.294   6.041  15.911  0.00  0.00    +0.000 A 
ATOM      5  C   UNL     1       4.750   6.512  17.115  0.00  0.00    +0.000 A 
ATOM      6  C   UNL     1       4.526   5.657  18.201  0.00  0.00    +0.000 A 
ATOM      7  C   UNL     1       4.928   4.324  18.062  0.00  0.00    +0.000 A 
ATOM      8  C   UNL     1       5.475   3.848  16.864  0.00  0.00    +0.000 A 
BRANCH   3  10
ATOM      9  C   UNL     1       5.564   3.981  13.407  0.00  0.00    +0.000 C 
ATOM     10  C   UNL     1       6.276   4.248  14.513  0.00  0.00    +0.000 C 
BRANCH   9  11
ATOM     11  C   UNL     1       6.231   3.452  12.203  0.00  0.00    +0.000 C 
ATOM     12  O   UNL     1       7.322   3.810  11.784  0.00  0.00    +0.000 OA
BRANCH  11  14
ATOM     13  C   UNL     1       4.182   3.000  11.195  0.00  0.00    +0.000 C 
ATOM     14  O   UNL     1       5.432   2.498  11.663  0.00  0.00    +0.000 OA
ENDBRANCH  11  14
ENDBRANCH   9  11
ENDBRANCH   3  10
ENDBRANCH   1   6
BRANCH   1  15
ATOM     15  C   UNL     1       2.597   6.214  19.613  0.00  0.00    +0.000 C 
BRANCH  15  16
ATOM     16  C   UNL     1       2.062   4.859  20.023  0.00  0.00    +0.000 A 
ATOM     17  C   UNL     1       2.267   4.319  21.305  0.00  0.00    +0.000 A 
ATOM     18  C   UNL     1       1.827   3.027  21.624  0.00  0.00    +0.000 A 
ATOM     19  C   UNL     1       1.191   2.237  20.666  0.00  0.00    +0.000 A 
ATOM     20  C   UNL     1       1.002   2.753  19.392  0.00  0.00    +0.000 A 
ATOM     21  C   UNL     1       1.431   4.045  19.076  0.00  0.00    +0.000 A 
BRANCH  20  22
ATOM     22  O   UNL     1       0.408   2.024  18.398  0.00  0.00    +0.000 OA
ATOM     23  H   UNL     1       1.092   1.471  17.981  0.00  0.00    +0.000 HD
ENDBRANCH  20  22
BRANCH  21  24
ATOM     24  O   UNL     1       1.237   4.500  17.798  0.00  0.00    +0.000 OA
ATOM     25  H   UNL     1       1.247   3.690  17.247  0.00  0.00    +0.000 HD
ENDBRANCH  21  24
ENDBRANCH  15  16
ENDBRANCH   1  15
TORSDOF 8
ENDMDL
MODEL 8
REMARK VINA RESULT:      -7.4      0.415      1.100
REMARK  Name = 
REMARK  9 active torsions:
REMARK  status: ('A' for Active; 'I' for Inactive)
REMARK    1  A    between atoms: C_1  and  O_2
REMARK    2  A    between atoms: O_2  and  C_3
REMARK    3  A    between atoms: C_3  and  C_5
REMARK    4  A    between atoms: C_6  and  C_7
REMARK    5  A    between atoms: C_10  and  N_11
REMARK    6  A    between atoms: N_11  and  C_12
REMARK    7  A    between atoms: C_12  and  C_13
REMARK    8  A    between atoms: C_17  and  O_18
REMARK    9  A    between atoms: C_19  and  O_20
REMARK                            x       y       z     vdW  Elec       q    Type
REMARK                         _______ _______ _______ _____ _____    ______ ____
ROOT
ATOM      1  N   UNL     1       5.260   4.053  17.982  0.00  0.00    +0.000 N 
ATOM      2  H   UNL     1       5.768   3.362  17.436  0.00  0.00    +0.000 HD
ENDROOT
BRANCH   1   6
ATOM      3  C   UNL     1       7.440   7.697  17.789  0.00  0.00    +0.000 A 
ATOM      4  C   UNL     1       7.907   6.603  18.524  0.00  0.00    +0.000 A 
ATOM      5  C   UNL     1       7.168   5.412  18.582  0.00  0.00    +0.000 A 
ATOM      6  C   UNL     1       5.921   5.293  17.955  0.00  0.00    +0.000 A 
ATOM      7  C   UNL     1       5.470   6.387  17.210  0.00  0.00    +0.000 A 
ATOM      8  C   UNL     1       6.206   7.578  17.143  0.00  0.00    +0.000 A 
BRANCH   3  10
ATOM      9  C   UNL     1       8.841   9.484  18.785  0.00  0.00    +0.000 C 
ATOM     10  C   UNL     1       8.255   8.919  17.718  0.00  0.00    +0.000 C 
BRANCH   9  11
ATOM     11  C   UNL     1       9.577  10.754  18.645  0.00  0.00    +0.000 C 
ATOM     12  O   UNL     1       9.539  11.488  17.668  0.00  0.00    +0.000 OA
BRANCH  11  14
ATOM     13  C   UNL     1      10.723  12.310  19.941  0.00  0.00    +0.000 C 
ATOM     14  O   UNL     1      10.279  10.963  19.785  0.00  0.00    +0.000 OA
ENDBRANCH  11  14
ENDBRANCH   9  11
ENDBRANCH   3  10
ENDBRANCH   1   6
BRANCH   1  15
ATOM     15  C   UNL     1       4.910   3.505  19.299  0.00  0.00    +0.000 C 
BRANCH  15  16
ATOM     16  C   UNL     1       3.416   3.498  19.538  0.00  0.00    +0.000 A 
ATOM     17  C   UNL     1       2.793   4.349  20.468  0.00  0.00    +0.000 A 
ATOM     18  C   UNL     1       1.417   4.259  20.723  0.00  0.00    +0.000 A 
ATOM     19  C   UNL     1       0.636   3.306  20.070  0.00  0.00    +0.000 A 
ATOM     20  C   UNL     1       1.245   2.449  19.165  0.00  0.00    +0.000 A 
ATOM     21  C   UNL     1       2.614   2.544  18.903  0.00  0.00    +0.000 A 
BRANCH  20  22
ATOM     22  O   UNL     1       0.543   1.474  18.507  0.00  0.00    +0.000 OA
ATOM     23  H   UNL     1      -0.011   1.010  19.159  0.00  0.00    +0.000 HD
ENDBRANCH  20  22
BRANCH  21  24
ATOM     24  O   UNL     1       3.169   1.661  18.014  0.00  0.00    +0.000 OA
ATOM     25  H   UNL     1       3.927   1.273  18.497  0.00  0.00    +0.000 HD
ENDBRANCH  21  24
ENDBRANCH  15  16
ENDBRANCH   1  15
TORSDOF 8
ENDMDL
MODEL 9
REMARK VINA RESULT:      -7.3      4.391      6.957
REMARK  Name = 
REMARK  9 active torsions:
REMARK  status: ('A' for Active; 'I' for Inactive)
REMARK    1  A    between atoms: C_1  and  O_2
REMARK    2  A    between atoms: O_2  and  C_3
REMARK    3  A    between atoms: C_3  and  C_5
REMARK    4  A    between atoms: C_6  and  C_7
REMARK    5  A    between atoms: C_10  and  N_11
REMARK    6  A    between atoms: N_11  and  C_12
REMARK    7  A    between atoms: C_12  and  C_13
REMARK    8  A    between atoms: C_17  and  O_18
REMARK    9  A    between atoms: C_19  and  O_20
REMARK                            x       y       z     vdW  Elec       q    Type
REMARK                         _______ _______ _______ _____ _____    ______ ____
ROOT
ATOM      1  N   UNL     1       2.473   4.189  17.360  0.00  0.00    +0.000 N 
ATOM      2  H   UNL     1       2.487   4.665  16.462  0.00  0.00    +0.000 HD
ENDROOT
BRANCH   1   6
ATOM      3  C   UNL     1       1.724   7.066  20.399  0.00  0.00    +0.000 A 
ATOM      4  C   UNL     1       2.188   7.441  19.134  0.00  0.00    +0.000 A 
ATOM      5  C   UNL     1       2.438   6.475  18.148  0.00  0.00    +0.000 A 
ATOM      6  C   UNL     1       2.282   5.107  18.407  0.00  0.00    +0.000 A 
ATOM      7  C   UNL     1       1.803   4.744  19.670  0.00  0.00    +0.000 A 
ATOM      8  C   UNL     1       1.546   5.703  20.658  0.00  0.00    +0.000 A 
BRANCH   3  10
ATOM      9  C   UNL     1       0.209   8.600  21.623  0.00  0.00    +0.000 C 
ATOM     10  C   UNL     1       1.437   8.105  21.399  0.00  0.00    +0.000 C 
BRANCH   9  11
ATOM     11  C   UNL     1       0.016   9.699  22.587  0.00  0.00    +0.000 C 
ATOM     12  O   UNL     1       0.502   9.749  23.707  0.00  0.00    +0.000 OA
BRANCH  11  14
ATOM     13  C   UNL     1      -1.173  11.675  22.898  0.00  0.00    +0.000 C 
ATOM     14  O   UNL     1      -0.775  10.635  22.007  0.00  0.00    +0.000 OA
ENDBRANCH  11  14
ENDBRANCH   9  11
ENDBRANCH   3  10
ENDBRANCH   1   6
BRANCH   1  15
ATOM     15  C   UNL     1       3.614   3.271  17.470  0.00  0.00    +0.000 C 
BRANCH  15  16
ATOM     16  C   UNL     1       4.921   3.937  17.099  0.00  0.00    +0.000 A 
ATOM     17  C   UNL     1       5.288   4.198  15.767  0.00  0.00    +0.000 A 
ATOM     18  C   UNL     1       6.542   4.742  15.455  0.00  0.00    +0.000 A 
ATOM     19  C   UNL     1       7.466   5.018  16.463  0.00  0.00    +0.000 A 
ATOM     20  C   UNL     1       7.121   4.745  17.779  0.00  0.00    +0.000 A 
ATOM     21  C   UNL     1       5.867   4.213  18.092  0.00  0.00    +0.000 A 
BRANCH  20  22
ATOM     22  O   UNL     1       7.987   4.969  18.815  0.00  0.00    +0.000 OA
ATOM     23  H   UNL     1       8.546   5.731  18.581  0.00  0.00    +0.000 HD
ENDBRANCH  20  22
BRANCH  21  24
ATOM     24  O   UNL     1       5.584   3.945  19.405  0.00  0.00    +0.000 OA
ATOM     25  H   UNL     1       6.332   3.389  19.707  0.00  0.00    +0.000 HD
ENDBRANCH  21  24
ENDBRANCH  15  16
ENDBRANCH   1  15
TORSDOF 8
ENDMDL
