MODEL 1
REMARK VINA RESULT:      -5.3      0.000      0.000
REMARK  Name = 
REMARK  6 active torsions:
REMARK  status: ('A' for Active; 'I' for Inactive)
REMARK    1  A    between atoms: C_1  and  C_2
REMARK    2  A    between atoms: C_4  and  C_5
REMARK    3  A    between atoms: C_5  and  C_6
REMARK    4  A    between atoms: C_6  and  O_7
REMARK    5  A    between atoms: C_8  and  N_9
REMARK    6  A    between atoms: N_12  and  C_13
REMARK                            x       y       z     vdW  Elec       q    Type
REMARK                         _______ _______ _______ _____ _____    ______ ____
ROOT
ATOM      1  C   UNL     1       3.562   3.033  20.033  0.00  0.00    +0.000 C 
ATOM      2  C   UNL     1       4.521   3.611  19.059  0.00  0.00    +0.000 A 
ATOM      3  N   UNL     1       5.721   4.074  19.350  0.00  0.00    +0.000 NA
ATOM      4  C   UNL     1       6.269   4.520  18.167  0.00  0.00    +0.000 A 
ATOM      5  C   UNL     1       5.376   4.293  17.146  0.00  0.00    +0.000 A 
ATOM      6  N   UNL     1       4.260   3.738  17.708  0.00  0.00    +0.000 N 
ATOM      7  C   UNL     1       3.007   3.391  17.077  0.00  0.00    +0.000 C 
ENDROOT
BRANCH   5   8
ATOM      8  N   UNL     1       5.500   4.567  15.764  0.00  0.00    +0.000 N 
ATOM      9  O   UNL     1       5.217   5.715  15.401  0.00  0.00    +0.000 OA
ATOM     10  O   UNL     1       5.859   3.633  15.037  0.00  0.00    +0.000 OA
ENDBRANCH   5   8
BRANCH   4  11
ATOM     11  C   UNL     1       7.636   5.121  18.135  0.00  0.00    +0.000 C 
BRANCH  11  12
ATOM     12  C   UNL     1       7.914   6.074  19.299  0.00  0.00    +0.000 C 
BRANCH  12  13
ATOM     13  O   UNL     1       8.168   5.360  20.505  0.00  0.00    +0.000 OA
ATOM     14  H   UNL     1       8.889   5.848  20.950  0.00  0.00    +0.000 HD
ENDBRANCH  12  13
ENDBRANCH  11  12
ENDBRANCH   4  11
TORSDOF 4
ENDMDL
MODEL 2
REMARK VINA RESULT:      -5.3      1.251      1.519
REMARK  Name = 
REMARK  6 active torsions:
REMARK  status: ('A' for Active; 'I' for Inactive)
REMARK    1  A    between atoms: C_1  and  C_2
REMARK    2  A    between atoms: C_4  and  C_5
REMARK    3  A    between atoms: C_5  and  C_6
REMARK    4  A    between atoms: C_6  and  O_7
REMARK    5  A    between atoms: C_8  and  N_9
REMARK    6  A    between atoms: N_12  and  C_13
REMARK                            x       y       z     vdW  Elec       q    Type
REMARK                         _______ _______ _______ _____ _____    ______ ____
ROOT
ATOM      1  C   UNL     1       3.577   2.941  20.032  0.00  0.00    +0.000 C 
ATOM      2  C   UNL     1       4.492   3.600  19.066  0.00  0.00    +0.000 A 
ATOM      3  N   UNL     1       5.713   4.019  19.333  0.00  0.00    +0.000 NA
ATOM      4  C   UNL     1       6.204   4.570  18.170  0.00  0.00    +0.000 A 
ATOM      5  C   UNL     1       5.254   4.452  17.182  0.00  0.00    +0.000 A 
ATOM      6  N   UNL     1       4.160   3.858  17.749  0.00  0.00    +0.000 N 
ATOM      7  C   UNL     1       2.871   3.586  17.158  0.00  0.00    +0.000 C 
ENDROOT
BRANCH   5   8
ATOM      8  N   UNL     1       5.308   4.856  15.827  0.00  0.00    +0.000 N 
ATOM      9  O   UNL     1       5.572   3.976  15.000  0.00  0.00    +0.000 OA
ATOM     10  O   UNL     1       5.109   6.054  15.590  0.00  0.00    +0.000 OA
ENDBRANCH   5   8
BRANCH   4  11
ATOM     11  C   UNL     1       7.577   5.157  18.120  0.00  0.00    +0.000 C 
BRANCH  11  12
ATOM     12  C   UNL     1       7.589   6.686  18.072  0.00  0.00    +0.000 C 
BRANCH  12  13
ATOM     13  O   UNL     1       7.700   7.162  16.733  0.00  0.00    +0.000 OA
ATOM     14  H   UNL     1       8.074   6.417  16.222  0.00  0.00    +0.000 HD
ENDBRANCH  12  13
ENDBRANCH  11  12
ENDBRANCH   4  11
TORSDOF 4
ENDMDL
MODEL 3
REMARK VINA RESULT:      -5.3      0.979      1.388
REMARK  Name = 
REMARK  6 active torsions:
REMARK  status: ('A' for Active; 'I' for Inactive)
REMARK    1  A    between atoms: C_1  and  C_2
REMARK    2  A    between atoms: C_4  and  C_5
REMARK    3  A    between atoms: C_5  and  C_6
REMARK    4  A    between atoms: C_6  and  O_7
REMARK    5  A    between atoms: C_8  and  N_9
REMARK    6  A    between atoms: N_12  and  C_13
REMARK                            x       y       z     vdW  Elec       q    Type
REMARK                         _______ _______ _______ _____ _____    ______ ____
ROOT
ATOM      1  C   UNL     1       3.344   2.809  20.032  0.00  0.00    +0.000 C 
ATOM      2  C   UNL     1       4.235   3.641  19.185  0.00  0.00    +0.000 A 
ATOM      3  N   UNL     1       5.547   3.711  19.295  0.00  0.00    +0.000 NA
ATOM      4  C   UNL     1       5.977   4.595  18.329  0.00  0.00    +0.000 A 
ATOM      5  C   UNL     1       4.889   5.041  17.615  0.00  0.00    +0.000 A 
ATOM      6  N   UNL     1       3.783   4.457  18.166  0.00  0.00    +0.000 N 
ATOM      7  C   UNL     1       2.392   4.661  17.833  0.00  0.00    +0.000 C 
ENDROOT
BRANCH   5   8
ATOM      8  N   UNL     1       4.836   5.941  16.524  0.00  0.00    +0.000 N 
ATOM      9  O   UNL     1       5.176   5.493  15.423  0.00  0.00    +0.000 OA
ATOM     10  O   UNL     1       4.475   7.099  16.769  0.00  0.00    +0.000 OA
ENDBRANCH   5   8
BRANCH   4  11
ATOM     11  C   UNL     1       7.427   4.918  18.177  0.00  0.00    +0.000 C 
BRANCH  11  12
ATOM     12  C   UNL     1       7.932   5.954  19.183  0.00  0.00    +0.000 C 
BRANCH  12  13
ATOM     13  O   UNL     1       7.975   5.418  20.503  0.00  0.00    +0.000 OA
ATOM     14  H   UNL     1       8.160   6.181  21.087  0.00  0.00    +0.000 HD
ENDBRANCH  12  13
ENDBRANCH  11  12
ENDBRANCH   4  11
TORSDOF 4
ENDMDL
MODEL 4
REMARK VINA RESULT:      -5.1      3.095      4.617
REMARK  Name = 
REMARK  6 active torsions:
REMARK  status: ('A' for Active; 'I' for Inactive)
REMARK    1  A    between atoms: C_1  and  C_2
REMARK    2  A    between atoms: C_4  and  C_5
REMARK    3  A    between atoms: C_5  and  C_6
REMARK    4  A    between atoms: C_6  and  O_7
REMARK    5  A    between atoms: C_8  and  N_9
REMARK    6  A    between atoms: N_12  and  C_13
REMARK                            x       y       z     vdW  Elec       q    Type
REMARK                         _______ _______ _______ _____ _____    ______ ____
ROOT
ATOM      1  C   UNL     1       4.335   6.855  17.199  0.00  0.00    +0.000 C 
ATOM      2  C   UNL     1       3.869   5.687  17.988  0.00  0.00    +0.000 A 
ATOM      3  N   UNL     1       2.781   5.653  18.734  0.00  0.00    +0.000 NA
ATOM      4  C   UNL     1       2.726   4.394  19.291  0.00  0.00    +0.000 A 
ATOM      5  C   UNL     1       3.798   3.658  18.845  0.00  0.00    +0.000 A 
ATOM      6  N   UNL     1       4.536   4.478  18.037  0.00  0.00    +0.000 N 
ATOM      7  C   UNL     1       5.798   4.210  17.387  0.00  0.00    +0.000 C 
ENDROOT
BRANCH   5   8
ATOM      8  N   UNL     1       4.152   2.319  19.131  0.00  0.00    +0.000 N 
ATOM      9  O   UNL     1       3.708   1.455  18.365  0.00  0.00    +0.000 OA
ATOM     10  O   UNL     1       4.856   2.125  20.130  0.00  0.00    +0.000 OA
ENDBRANCH   5   8
BRANCH   4  11
ATOM     11  C   UNL     1       1.611   4.013  20.210  0.00  0.00    +0.000 C 
BRANCH  11  12
ATOM     12  C   UNL     1       2.057   3.792  21.656  0.00  0.00    +0.000 C 
BRANCH  12  13
ATOM     13  O   UNL     1       2.377   2.424  21.898  0.00  0.00    +0.000 OA
ATOM     14  H   UNL     1       1.916   2.192  22.729  0.00  0.00    +0.000 HD
ENDBRANCH  12  13
ENDBRANCH  11  12
ENDBRANCH   4  11
TORSDOF 4
ENDMDL
MODEL 5
REMARK VINA RESULT:      -5.1      2.759      3.459
REMARK  Name = 
REMARK  6 active torsions:
REMARK  status: ('A' for Active; 'I' for Inactive)
REMARK    1  A    between atoms: C_1  and  C_2
REMARK    2  A    between atoms: C_4  and  C_5
REMARK    3  A    between atoms: C_5  and  C_6
REMARK    4  A    between atoms: C_6  and  O_7
REMARK    5  A    between atoms: C_8  and  N_9
REMARK    6  A    between atoms: N_12  and  C_13
REMARK                            x       y       z     vdW  Elec       q    Type
REMARK                         _______ _______ _______ _____ _____    ______ ____
ROOT
ATOM      1  C   UNL     1       2.518   7.746  18.223  0.00  0.00    +0.000 C 
ATOM      2  C   UNL     1       3.300   6.496  18.046  0.00  0.00    +0.000 A 
ATOM      3  N   UNL     1       4.236   6.301  17.137  0.00  0.00    +0.000 NA
ATOM      4  C   UNL     1       4.697   5.015  17.316  0.00  0.00    +0.000 A 
ATOM      5  C   UNL     1       4.030   4.443  18.374  0.00  0.00    +0.000 A 
ATOM      6  N   UNL     1       3.130   5.368  18.826  0.00  0.00    +0.000 N 
ATOM      7  C   UNL     1       2.136   5.229  19.864  0.00  0.00    +0.000 C 
ENDROOT
BRANCH   5   8
ATOM      8  N   UNL     1       4.173   3.153  18.936  0.00  0.00    +0.000 N 
ATOM      9  O   UNL     1       5.113   2.994  19.722  0.00  0.00    +0.000 OA
ATOM     10  O   UNL     1       3.359   2.292  18.577  0.00  0.00    +0.000 OA
ENDBRANCH   5   8
BRANCH   4  11
ATOM     11  C   UNL     1       5.769   4.458  16.437  0.00  0.00    +0.000 C 
BRANCH  11  12
ATOM     12  C   UNL     1       7.184   4.735  16.947  0.00  0.00    +0.000 C 
BRANCH  12  13
ATOM     13  O   UNL     1       7.383   4.191  18.249  0.00  0.00    +0.000 OA
ATOM     14  H   UNL     1       7.942   4.841  18.720  0.00  0.00    +0.000 HD
ENDBRANCH  12  13
ENDBRANCH  11  12
ENDBRANCH   4  11
TORSDOF 4
ENDMDL
MODEL 6
REMARK VINA RESULT:      -5.1      3.085      4.518
REMARK  Name = 
REMARK  6 active torsions:
REMARK  status: ('A' for Active; 'I' for Inactive)
REMARK    1  A    between atoms: C_1  and  C_2
REMARK    2  A    between atoms: C_4  and  C_5
REMARK    3  A    between atoms: C_5  and  C_6
REMARK    4  A    between atoms: C_6  and  O_7
REMARK    5  A    between atoms: C_8  and  N_9
REMARK    6  A    between atoms: N_12  and  C_13
REMARK                            x       y       z     vdW  Elec       q    Type
REMARK                         _______ _______ _______ _____ _____    ______ ____
ROOT
ATOM      1  C   UNL     1       5.988   6.337  17.809  0.00  0.00    +0.000 C 
ATOM      2  C   UNL     1       4.980   5.374  18.320  0.00  0.00    +0.000 A 
ATOM      3  N   UNL     1       4.338   5.476  19.467  0.00  0.00    +0.000 NA
ATOM      4  C   UNL     1       3.509   4.379  19.553  0.00  0.00    +0.000 A 
ATOM      5  C   UNL     1       3.650   3.620  18.415  0.00  0.00    +0.000 A 
ATOM      6  N   UNL     1       4.595   4.234  17.640  0.00  0.00    +0.000 N 
ATOM      7  C   UNL     1       5.162   3.794  16.386  0.00  0.00    +0.000 C 
ENDROOT
BRANCH   5   8
ATOM      8  N   UNL     1       2.999   2.419  18.046  0.00  0.00    +0.000 N 
ATOM      9  O   UNL     1       3.605   1.368  18.281  0.00  0.00    +0.000 OA
ATOM     10  O   UNL     1       1.892   2.526  17.503  0.00  0.00    +0.000 OA
ENDBRANCH   5   8
BRANCH   4  11
ATOM     11  C   UNL     1       2.633   4.173  20.745  0.00  0.00    +0.000 C 
BRANCH  11  12
ATOM     12  C   UNL     1       1.145   4.382  20.456  0.00  0.00    +0.000 C 
BRANCH  12  13
ATOM     13  O   UNL     1       0.489   3.145  20.189  0.00  0.00    +0.000 OA
ATOM     14  H   UNL     1       0.812   2.527  20.875  0.00  0.00    +0.000 HD
ENDBRANCH  12  13
ENDBRANCH  11  12
ENDBRANCH   4  11
TORSDOF 4
ENDMDL
MODEL 7
REMARK VINA RESULT:      -5.1      3.341      4.751
REMARK  Name = 
REMARK  6 active torsions:
REMARK  status: ('A' for Active; 'I' for Inactive)
REMARK    1  A    between atoms: C_1  and  C_2
REMARK    2  A    between atoms: C_4  and  C_5
REMARK    3  A    between atoms: C_5  and  C_6
REMARK    4  A    between atoms: C_6  and  O_7
REMARK    5  A    between atoms: C_8  and  N_9
REMARK    6  A    between atoms: N_12  and  C_13
REMARK                            x       y       z     vdW  Elec       q    Type
REMARK                         _______ _______ _______ _____ _____    ______ ____
ROOT
ATOM      1  C   UNL     1       4.693   6.915  17.041  0.00  0.00    +0.000 C 
ATOM      2  C   UNL     1       4.210   5.883  17.993  0.00  0.00    +0.000 A 
ATOM      3  N   UNL     1       3.330   6.082  18.955  0.00  0.00    +0.000 NA
ATOM      4  C   UNL     1       3.172   4.875  19.600  0.00  0.00    +0.000 A 
ATOM      5  C   UNL     1       3.964   3.932  18.987  0.00  0.00    +0.000 A 
ATOM      6  N   UNL     1       4.639   4.570  17.984  0.00  0.00    +0.000 N 
ATOM      7  C   UNL     1       5.653   4.043  17.099  0.00  0.00    +0.000 C 
ENDROOT
BRANCH   5   8
ATOM      8  N   UNL     1       4.123   2.558  19.285  0.00  0.00    +0.000 N 
ATOM      9  O   UNL     1       4.966   2.274  20.143  0.00  0.00    +0.000 OA
ATOM     10  O   UNL     1       3.422   1.762  18.648  0.00  0.00    +0.000 OA
ENDBRANCH   5   8
BRANCH   4  11
ATOM     11  C   UNL     1       2.241   4.743  20.761  0.00  0.00    +0.000 C 
BRANCH  11  12
ATOM     12  C   UNL     1       0.965   3.963  20.438  0.00  0.00    +0.000 C 
BRANCH  12  13
ATOM     13  O   UNL     1       0.841   2.808  21.263  0.00  0.00    +0.000 OA
ATOM     14  H   UNL     1       0.133   2.271  20.853  0.00  0.00    +0.000 HD
ENDBRANCH  12  13
ENDBRANCH  11  12
ENDBRANCH   4  11
TORSDOF 4
ENDMDL
MODEL 8
REMARK VINA RESULT:      -5.1      2.788      3.680
REMARK  Name = 
REMARK  6 active torsions:
REMARK  status: ('A' for Active; 'I' for Inactive)
REMARK    1  A    between atoms: C_1  and  C_2
REMARK    2  A    between atoms: C_4  and  C_5
REMARK    3  A    between atoms: C_5  and  C_6
REMARK    4  A    between atoms: C_6  and  O_7
REMARK    5  A    between atoms: C_8  and  N_9
REMARK    6  A    between atoms: N_12  and  C_13
REMARK                            x       y       z     vdW  Elec       q    Type
REMARK                         _______ _______ _______ _____ _____    ______ ____
ROOT
ATOM      1  C   UNL     1       1.597   6.056  20.747  0.00  0.00    +0.000 C 
ATOM      2  C   UNL     1       2.619   5.189  20.108  0.00  0.00    +0.000 A 
ATOM      3  N   UNL     1       3.503   5.582  19.211  0.00  0.00    +0.000 NA
ATOM      4  C   UNL     1       4.248   4.472  18.880  0.00  0.00    +0.000 A 
ATOM      5  C   UNL     1       3.806   3.399  19.617  0.00  0.00    +0.000 A 
ATOM      6  N   UNL     1       2.761   3.842  20.380  0.00  0.00    +0.000 N 
ATOM      7  C   UNL     1       1.904   3.088  21.265  0.00  0.00    +0.000 C 
ENDROOT
BRANCH   5   8
ATOM      8  N   UNL     1       4.271   2.063  19.631  0.00  0.00    +0.000 N 
ATOM      9  O   UNL     1       3.779   1.298  18.793  0.00  0.00    +0.000 OA
ATOM     10  O   UNL     1       5.112   1.770  20.491  0.00  0.00    +0.000 OA
ENDBRANCH   5   8
BRANCH   4  11
ATOM     11  C   UNL     1       5.347   4.560  17.871  0.00  0.00    +0.000 C 
BRANCH  11  12
ATOM     12  C   UNL     1       6.670   5.064  18.450  0.00  0.00    +0.000 C 
BRANCH  12  13
ATOM     13  O   UNL     1       7.757   4.225  18.067  0.00  0.00    +0.000 OA
ATOM     14  H   UNL     1       7.650   3.405  18.591  0.00  0.00    +0.000 HD
ENDBRANCH  12  13
ENDBRANCH  11  12
ENDBRANCH   4  11
TORSDOF 4
ENDMDL
MODEL 9
REMARK VINA RESULT:      -5.1      1.577      3.577
REMARK  Name = 
REMARK  6 active torsions:
REMARK  status: ('A' for Active; 'I' for Inactive)
REMARK    1  A    between atoms: C_1  and  C_2
REMARK    2  A    between atoms: C_4  and  C_5
REMARK    3  A    between atoms: C_5  and  C_6
REMARK    4  A    between atoms: C_6  and  O_7
REMARK    5  A    between atoms: C_8  and  N_9
REMARK    6  A    between atoms: N_12  and  C_13
REMARK                            x       y       z     vdW  Elec       q    Type
REMARK                         _______ _______ _______ _____ _____    ______ ____
ROOT
ATOM      1  C   UNL     1       2.452   2.863  17.556  0.00  0.00    +0.000 C 
ATOM      2  C   UNL     1       3.726   3.615  17.436  0.00  0.00    +0.000 A 
ATOM      3  N   UNL     1       4.117   4.292  16.374  0.00  0.00    +0.000 NA
ATOM      4  C   UNL     1       5.349   4.828  16.679  0.00  0.00    +0.000 A 
ATOM      5  C   UNL     1       5.685   4.474  17.965  0.00  0.00    +0.000 A 
ATOM      6  N   UNL     1       4.671   3.689  18.441  0.00  0.00    +0.000 N 
ATOM      7  C   UNL     1       4.580   3.000  19.707  0.00  0.00    +0.000 C 
ENDROOT
BRANCH   5   8
ATOM      8  N   UNL     1       6.838   4.800  18.717  0.00  0.00    +0.000 N 
ATOM      9  O   UNL     1       7.916   4.372  18.287  0.00  0.00    +0.000 OA
ATOM     10  O   UNL     1       6.668   5.465  19.747  0.00  0.00    +0.000 OA
ENDBRANCH   5   8
BRANCH   4  11
ATOM     11  C   UNL     1       6.092   5.657  15.683  0.00  0.00    +0.000 C 
BRANCH  11  12
ATOM     12  C   UNL     1       6.724   4.840  14.555  0.00  0.00    +0.000 C 
BRANCH  12  13
ATOM     13  O   UNL     1       6.316   3.476  14.611  0.00  0.00    +0.000 OA
ATOM     14  H   UNL     1       5.475   3.435  14.114  0.00  0.00    +0.000 HD
ENDBRANCH  12  13
ENDBRANCH  11  12
ENDBRANCH   4  11
TORSDOF 4
ENDMDL
