MODEL 1
REMARK VINA RESULT:      -6.9      0.000      0.000
REMARK  Name = 
REMARK  13 active torsions:
REMARK  status: ('A' for Active; 'I' for Inactive)
REMARK    1  A    between atoms: C_2  and  C_3
REMARK    2  A    between atoms: C_3  and  C_4
REMARK    3  A    between atoms: C_4  and  C_5
REMARK    4  A    between atoms: C_5  and  C_6
REMARK    5  A    between atoms: C_6  and  C_7
REMARK    6  A    between atoms: C_7  and  C_8
REMARK    7  A    between atoms: C_8  and  C_9
REMARK    8  A    between atoms: C_9  and  N_10
REMARK    9  A    between atoms: C_11  and  C_13
REMARK   10  A    between atoms: C_14  and  C_15
REMARK   11  A    between atoms: C_18  and  O_19
REMARK   12  A    between atoms: C_25  and  O_26
REMARK   13  A    between atoms: N_30  and  O_31
REMARK                            x       y       z     vdW  Elec       q    Type
REMARK                         _______ _______ _______ _____ _____    ______ ____
ROOT
ATOM      1  C   UNL     1       2.413   7.233  18.951  0.00  0.00    +0.000 A 
ATOM      2  C   UNL     1       2.232   5.973  19.527  0.00  0.00    +0.000 A 
ATOM      3  S   UNL     1       1.340   6.094  20.994  0.00  0.00    +0.000 S 
ATOM      4  C   UNL     1       1.138   7.785  20.870  0.00  0.00    +0.000 A 
ATOM      5  C   UNL     1       0.418   8.616  21.756  0.00  0.00    +0.000 A 
ATOM      6  C   UNL     1       0.361   9.979  21.494  0.00  0.00    +0.000 A 
ATOM      7  C   UNL     1       0.995  10.520  20.394  0.00  0.00    +0.000 A 
ATOM      8  C   UNL     1       1.685   9.690  19.512  0.00  0.00    +0.000 A 
ATOM      9  C   UNL     1       1.784   8.290  19.738  0.00  0.00    +0.000 A 
ENDROOT
BRANCH   2  10
ATOM     10  C   UNL     1       2.711   4.629  19.103  0.00  0.00    +0.000 A 
ATOM     11  C   UNL     1       3.766   3.988  19.774  0.00  0.00    +0.000 A 
ATOM     12  C   UNL     1       4.236   2.731  19.380  0.00  0.00    +0.000 A 
ATOM     13  C   UNL     1       3.616   2.073  18.329  0.00  0.00    +0.000 A 
ATOM     14  C   UNL     1       2.559   2.665  17.654  0.00  0.00    +0.000 A 
ATOM     15  C   UNL     1       2.120   3.939  18.028  0.00  0.00    +0.000 A 
BRANCH  13  16
ATOM     16  O   UNL     1       4.018   0.835  17.933  0.00  0.00    +0.000 OA
ATOM     17  H   UNL     1       4.781   0.936  17.340  0.00  0.00    +0.000 HD
ENDBRANCH  13  16
ENDBRANCH   2  10
BRANCH   1  19
ATOM     18  N   UNL     1       4.218   6.667  17.457  0.00  0.00    +0.000 N 
ATOM     19  C   UNL     1       3.093   7.440  17.668  0.00  0.00    +0.000 C 
ATOM     20  O   UNL     1       2.687   8.228  16.819  0.00  0.00    +0.000 OA
ATOM     21  H   UNL     1       4.460   5.947  18.123  0.00  0.00    +0.000 HD
BRANCH  18  22
ATOM     22  C   UNL     1       4.957   6.750  16.218  0.00  0.00    +0.000 C 
BRANCH  22  23
ATOM     23  C   UNL     1       5.200   5.365  15.628  0.00  0.00    +0.000 C 
BRANCH  23  24
ATOM     24  C   UNL     1       5.874   4.450  16.649  0.00  0.00    +0.000 C 
BRANCH  24  25
ATOM     25  C   UNL     1       7.276   4.946  16.994  0.00  0.00    +0.000 C 
BRANCH  25  26
ATOM     26  C   UNL     1       7.456   5.106  18.506  0.00  0.00    +0.000 C 
BRANCH  26  27
ATOM     27  C   UNL     1       8.051   6.477  18.839  0.00  0.00    +0.000 C 
BRANCH  27  28
ATOM     28  C   UNL     1       7.729   7.517  17.769  0.00  0.00    +0.000 C 
BRANCH  28  30
ATOM     29  O   UNL     1       8.100   9.907  17.466  0.00  0.00    +0.000 OA
ATOM     30  C   UNL     1       8.258   8.895  18.134  0.00  0.00    +0.000 C 
ATOM     31  N   UNL     1       8.952   8.903  19.320  0.00  0.00    +0.000 N 
ATOM     32  H   UNL     1       9.092   8.102  19.921  0.00  0.00    +0.000 HD
BRANCH  31  33
ATOM     33  O   UNL     1       9.479  10.138  19.760  0.00  0.00    +0.000 OA
ATOM     34  H   UNL     1       9.196  10.751  19.044  0.00  0.00    +0.000 HD
ENDBRANCH  31  33
ENDBRANCH  28  30
ENDBRANCH  27  28
ENDBRANCH  26  27
ENDBRANCH  25  26
ENDBRANCH  24  25
ENDBRANCH  23  24
ENDBRANCH  22  23
ENDBRANCH  18  22
ENDBRANCH   1  19
BRANCH   6  35
ATOM     35  O   UNL     1      -0.326  10.836  22.300  0.00  0.00    +0.000 OA
ATOM     36  H   UNL     1      -0.064  10.683  23.221  0.00  0.00    +0.000 HD
ENDBRANCH   6  35
TORSDOF 13
ENDMDL
MODEL 2
REMARK VINA RESULT:      -6.9      3.218      7.130
REMARK  Name = 
REMARK  13 active torsions:
REMARK  status: ('A' for Active; 'I' for Inactive)
REMARK    1  A    between atoms: C_2  and  C_3
REMARK    2  A    between atoms: C_3  and  C_4
REMARK    3  A    between atoms: C_4  and  C_5
REMARK    4  A    between atoms: C_5  and  C_6
REMARK    5  A    between atoms: C_6  and  C_7
REMARK    6  A    between atoms: C_7  and  C_8
REMARK    7  A    between atoms: C_8  and  C_9
REMARK    8  A    between atoms: C_9  and  N_10
REMARK    9  A    between atoms: C_11  and  C_13
REMARK   10  A    between atoms: C_14  and  C_15
REMARK   11  A    between atoms: C_18  and  O_19
REMARK   12  A    between atoms: C_25  and  O_26
REMARK   13  A    between atoms: N_30  and  O_31
REMARK                            x       y       z     vdW  Elec       q    Type
REMARK                         _______ _______ _______ _____ _____    ______ ____
ROOT
ATOM      1  C   UNL     1       3.823   5.278  18.173  0.00  0.00    +0.000 A 
ATOM      2  C   UNL     1       4.483   4.309  17.411  0.00  0.00    +0.000 A 
ATOM      3  S   UNL     1       4.283   2.747  18.105  0.00  0.00    +0.000 S 
ATOM      4  C   UNL     1       3.296   3.308  19.380  0.00  0.00    +0.000 A 
ATOM      5  C   UNL     1       2.681   2.524  20.380  0.00  0.00    +0.000 A 
ATOM      6  C   UNL     1       1.908   3.158  21.343  0.00  0.00    +0.000 A 
ATOM      7  C   UNL     1       1.738   4.527  21.332  0.00  0.00    +0.000 A 
ATOM      8  C   UNL     1       2.329   5.293  20.329  0.00  0.00    +0.000 A 
ATOM      9  C   UNL     1       3.140   4.696  19.325  0.00  0.00    +0.000 A 
ENDROOT
BRANCH   2  10
ATOM     10  C   UNL     1       5.319   4.434  16.187  0.00  0.00    +0.000 A 
ATOM     11  C   UNL     1       4.778   4.197  14.911  0.00  0.00    +0.000 A 
ATOM     12  C   UNL     1       5.553   4.298  13.751  0.00  0.00    +0.000 A 
ATOM     13  C   UNL     1       6.879   4.690  13.852  0.00  0.00    +0.000 A 
ATOM     14  C   UNL     1       7.443   4.953  15.092  0.00  0.00    +0.000 A 
ATOM     15  C   UNL     1       6.673   4.810  16.251  0.00  0.00    +0.000 A 
BRANCH  13  16
ATOM     16  O   UNL     1       7.661   4.835  12.748  0.00  0.00    +0.000 OA
ATOM     17  H   UNL     1       7.275   5.529  12.189  0.00  0.00    +0.000 HD
ENDBRANCH  13  16
ENDBRANCH   2  10
BRANCH   1  19
ATOM     18  N   UNL     1       2.559   7.323  18.002  0.00  0.00    +0.000 N 
ATOM     19  C   UNL     1       3.773   6.696  17.801  0.00  0.00    +0.000 C 
ATOM     20  O   UNL     1       4.745   7.303  17.361  0.00  0.00    +0.000 OA
ATOM     21  H   UNL     1       1.814   6.828  18.473  0.00  0.00    +0.000 HD
BRANCH  18  22
ATOM     22  C   UNL     1       2.389   8.728  17.711  0.00  0.00    +0.000 C 
BRANCH  22  23
ATOM     23  C   UNL     1       1.196   9.307  18.464  0.00  0.00    +0.000 C 
BRANCH  23  24
ATOM     24  C   UNL     1       1.195   8.840  19.919  0.00  0.00    +0.000 C 
BRANCH  24  25
ATOM     25  C   UNL     1       0.943  10.006  20.872  0.00  0.00    +0.000 C 
BRANCH  25  26
ATOM     26  C   UNL     1      -0.519  10.454  20.835  0.00  0.00    +0.000 C 
BRANCH  26  27
ATOM     27  C   UNL     1      -0.655  11.807  20.132  0.00  0.00    +0.000 C 
BRANCH  27  28
ATOM     28  C   UNL     1      -2.037  11.998  19.515  0.00  0.00    +0.000 C 
BRANCH  28  30
ATOM     29  O   UNL     1      -2.403  10.000  18.167  0.00  0.00    +0.000 OA
ATOM     30  C   UNL     1      -2.204  11.205  18.228  0.00  0.00    +0.000 C 
ATOM     31  N   UNL     1      -2.110  11.989  17.104  0.00  0.00    +0.000 N 
ATOM     32  H   UNL     1      -1.970  12.990  17.098  0.00  0.00    +0.000 HD
BRANCH  31  33
ATOM     33  O   UNL     1      -2.262  11.355  15.851  0.00  0.00    +0.000 OA
ATOM     34  H   UNL     1      -1.375  11.484  15.444  0.00  0.00    +0.000 HD
ENDBRANCH  31  33
ENDBRANCH  28  30
ENDBRANCH  27  28
ENDBRANCH  26  27
ENDBRANCH  25  26
ENDBRANCH  24  25
ENDBRANCH  23  24
ENDBRANCH  22  23
ENDBRANCH  18  22
ENDBRANCH   1  19
BRANCH   6  35
ATOM     35  O   UNL     1       1.277   2.461  22.329  0.00  0.00    +0.000 OA
ATOM     36  H   UNL     1       1.464   1.516  22.218  0.00  0.00    +0.000 HD
ENDBRANCH   6  35
TORSDOF 13
ENDMDL
MODEL 3
REMARK VINA RESULT:      -6.9      3.532      5.550
REMARK  Name = 
REMARK  13 active torsions:
REMARK  status: ('A' for Active; 'I' for Inactive)
REMARK    1  A    between atoms: C_2  and  C_3
REMARK    2  A    between atoms: C_3  and  C_4
REMARK    3  A    between atoms: C_4  and  C_5
REMARK    4  A    between atoms: C_5  and  C_6
REMARK    5  A    between atoms: C_6  and  C_7
REMARK    6  A    between atoms: C_7  and  C_8
REMARK    7  A    between atoms: C_8  and  C_9
REMARK    8  A    between atoms: C_9  and  N_10
REMARK    9  A    between atoms: C_11  and  C_13
REMARK   10  A    between atoms: C_14  and  C_15
REMARK   11  A    between atoms: C_18  and  O_19
REMARK   12  A    between atoms: C_25  and  O_26
REMARK   13  A    between atoms: N_30  and  O_31
REMARK                            x       y       z     vdW  Elec       q    Type
REMARK                         _______ _______ _______ _____ _____    ______ ____
ROOT
ATOM      1  C   UNL     1       4.355   5.179  17.655  0.00  0.00    +0.000 A 
ATOM      2  C   UNL     1       4.590   4.177  16.709  0.00  0.00    +0.000 A 
ATOM      3  S   UNL     1       3.874   2.692  17.203  0.00  0.00    +0.000 S 
ATOM      4  C   UNL     1       3.209   3.350  18.632  0.00  0.00    +0.000 A 
ATOM      5  C   UNL     1       2.398   2.678  19.573  0.00  0.00    +0.000 A 
ATOM      6  C   UNL     1       1.946   3.379  20.683  0.00  0.00    +0.000 A 
ATOM      7  C   UNL     1       2.277   4.705  20.872  0.00  0.00    +0.000 A 
ATOM      8  C   UNL     1       3.059   5.368  19.928  0.00  0.00    +0.000 A 
ATOM      9  C   UNL     1       3.559   4.695  18.779  0.00  0.00    +0.000 A 
ENDROOT
BRANCH   2  10
ATOM     10  C   UNL     1       5.361   4.199  15.437  0.00  0.00    +0.000 A 
ATOM     11  C   UNL     1       6.714   4.579  15.414  0.00  0.00    +0.000 A 
ATOM     12  C   UNL     1       7.450   4.617  14.226  0.00  0.00    +0.000 A 
ATOM     13  C   UNL     1       6.847   4.223  13.041  0.00  0.00    +0.000 A 
ATOM     14  C   UNL     1       5.519   3.823  13.026  0.00  0.00    +0.000 A 
ATOM     15  C   UNL     1       4.778   3.826  14.212  0.00  0.00    +0.000 A 
BRANCH  13  16
ATOM     16  O   UNL     1       7.534   4.212  11.866  0.00  0.00    +0.000 OA
ATOM     17  H   UNL     1       7.845   5.114  11.686  0.00  0.00    +0.000 HD
ENDBRANCH  13  16
ENDBRANCH   2  10
BRANCH   1  19
ATOM     18  N   UNL     1       6.167   6.761  17.500  0.00  0.00    +0.000 N 
ATOM     19  C   UNL     1       4.800   6.566  17.483  0.00  0.00    +0.000 C 
ATOM     20  O   UNL     1       4.020   7.499  17.312  0.00  0.00    +0.000 OA
ATOM     21  H   UNL     1       6.784   5.961  17.526  0.00  0.00    +0.000 HD
BRANCH  18  22
ATOM     22  C   UNL     1       6.735   8.075  17.305  0.00  0.00    +0.000 C 
BRANCH  22  23
ATOM     23  C   UNL     1       8.034   8.236  18.088  0.00  0.00    +0.000 C 
BRANCH  23  24
ATOM     24  C   UNL     1       8.499   9.691  18.076  0.00  0.00    +0.000 C 
BRANCH  24  25
ATOM     25  C   UNL     1       9.446   9.978  19.238  0.00  0.00    +0.000 C 
BRANCH  25  26
ATOM     26  C   UNL     1       9.275  11.406  19.761  0.00  0.00    +0.000 C 
BRANCH  26  27
ATOM     27  C   UNL     1       9.182  12.401  18.602  0.00  0.00    +0.000 C 
BRANCH  27  28
ATOM     28  C   UNL     1      10.556  12.895  18.158  0.00  0.00    +0.000 C 
BRANCH  28  30
ATOM     29  O   UNL     1      10.144  15.292  18.312  0.00  0.00    +0.000 OA
ATOM     30  C   UNL     1      10.515  14.330  17.656  0.00  0.00    +0.000 C 
ATOM     31  N   UNL     1      10.946  14.452  16.357  0.00  0.00    +0.000 N 
ATOM     32  H   UNL     1      11.284  13.694  15.779  0.00  0.00    +0.000 HD
BRANCH  31  33
ATOM     33  O   UNL     1      10.960  15.747  15.792  0.00  0.00    +0.000 OA
ATOM     34  H   UNL     1      10.337  16.235  16.378  0.00  0.00    +0.000 HD
ENDBRANCH  31  33
ENDBRANCH  28  30
ENDBRANCH  27  28
ENDBRANCH  26  27
ENDBRANCH  25  26
ENDBRANCH  24  25
ENDBRANCH  23  24
ENDBRANCH  22  23
ENDBRANCH  18  22
ENDBRANCH   1  19
BRANCH   6  35
ATOM     35  O   UNL     1       1.150   2.797  21.623  0.00  0.00    +0.000 OA
ATOM     36  H   UNL     1       1.049   1.855  21.413  0.00  0.00    +0.000 HD
ENDBRANCH   6  35
TORSDOF 13
ENDMDL
MODEL 4
REMARK VINA RESULT:      -6.8      4.749      9.029
REMARK  Name = 
REMARK  13 active torsions:
REMARK  status: ('A' for Active; 'I' for Inactive)
REMARK    1  A    between atoms: C_2  and  C_3
REMARK    2  A    between atoms: C_3  and  C_4
REMARK    3  A    between atoms: C_4  and  C_5
REMARK    4  A    between atoms: C_5  and  C_6
REMARK    5  A    between atoms: C_6  and  C_7
REMARK    6  A    between atoms: C_7  and  C_8
REMARK    7  A    between atoms: C_8  and  C_9
REMARK    8  A    between atoms: C_9  and  N_10
REMARK    9  A    between atoms: C_11  and  C_13
REMARK   10  A    between atoms: C_14  and  C_15
REMARK   11  A    between atoms: C_18  and  O_19
REMARK   12  A    between atoms: C_25  and  O_26
REMARK   13  A    between atoms: N_30  and  O_31
REMARK                            x       y       z     vdW  Elec       q    Type
REMARK                         _______ _______ _______ _____ _____    ______ ____
ROOT
ATOM      1  C   UNL     1      -2.286  11.890  19.613  0.00  0.00    +0.000 A 
ATOM      2  C   UNL     1      -3.337  12.504  20.300  0.00  0.00    +0.000 A 
ATOM      3  S   UNL     1      -4.761  12.537  19.334  0.00  0.00    +0.000 S 
ATOM      4  C   UNL     1      -4.037  11.709  18.028  0.00  0.00    +0.000 A 
ATOM      5  C   UNL     1      -4.666  11.317  16.826  0.00  0.00    +0.000 A 
ATOM      6  C   UNL     1      -3.914  10.647  15.869  0.00  0.00    +0.000 A 
ATOM      7  C   UNL     1      -2.579  10.367  16.079  0.00  0.00    +0.000 A 
ATOM      8  C   UNL     1      -1.972  10.737  17.277  0.00  0.00    +0.000 A 
ATOM      9  C   UNL     1      -2.691  11.435  18.286  0.00  0.00    +0.000 A 
ENDROOT
BRANCH   2  10
ATOM     10  C   UNL     1      -3.385  13.135  21.647  0.00  0.00    +0.000 A 
ATOM     11  C   UNL     1      -3.390  14.532  21.795  0.00  0.00    +0.000 A 
ATOM     12  C   UNL     1      -3.422  15.140  23.054  0.00  0.00    +0.000 A 
ATOM     13  C   UNL     1      -3.498  14.348  24.190  0.00  0.00    +0.000 A 
ATOM     14  C   UNL     1      -3.514  12.966  24.083  0.00  0.00    +0.000 A 
ATOM     15  C   UNL     1      -3.442  12.364  22.823  0.00  0.00    +0.000 A 
BRANCH  13  16
ATOM     16  O   UNL     1      -3.565  14.898  25.433  0.00  0.00    +0.000 OA
ATOM     17  H   UNL     1      -3.799  14.198  26.064  0.00  0.00    +0.000 HD
ENDBRANCH  13  16
ENDBRANCH   2  10
BRANCH   1  19
ATOM     18  N   UNL     1      -0.618  10.350  20.424  0.00  0.00    +0.000 N 
ATOM     19  C   UNL     1      -0.961  11.670  20.202  0.00  0.00    +0.000 C 
ATOM     20  O   UNL     1      -0.188  12.587  20.463  0.00  0.00    +0.000 OA
ATOM     21  H   UNL     1      -1.226   9.614  20.093  0.00  0.00    +0.000 HD
BRANCH  18  22
ATOM     22  C   UNL     1       0.675   9.998  20.966  0.00  0.00    +0.000 C 
BRANCH  22  23
ATOM     23  C   UNL     1       1.337   8.900  20.140  0.00  0.00    +0.000 C 
BRANCH  23  24
ATOM     24  C   UNL     1       1.551   9.360  18.699  0.00  0.00    +0.000 C 
BRANCH  24  25
ATOM     25  C   UNL     1       2.194   8.260  17.858  0.00  0.00    +0.000 C 
BRANCH  25  26
ATOM     26  C   UNL     1       2.625   7.073  18.722  0.00  0.00    +0.000 C 
BRANCH  26  27
ATOM     27  C   UNL     1       3.388   6.042  17.888  0.00  0.00    +0.000 C 
BRANCH  27  28
ATOM     28  C   UNL     1       2.773   4.649  17.992  0.00  0.00    +0.000 C 
BRANCH  28  30
ATOM     29  O   UNL     1       2.894   3.695  20.231  0.00  0.00    +0.000 OA
ATOM     30  C   UNL     1       3.385   3.836  19.121  0.00  0.00    +0.000 C 
ATOM     31  N   UNL     1       4.579   3.252  18.770  0.00  0.00    +0.000 N 
ATOM     32  H   UNL     1       5.017   3.318  17.862  0.00  0.00    +0.000 HD
BRANCH  31  33
ATOM     33  O   UNL     1       5.231   2.462  19.743  0.00  0.00    +0.000 OA
ATOM     34  H   UNL     1       6.165   2.485  19.437  0.00  0.00    +0.000 HD
ENDBRANCH  31  33
ENDBRANCH  28  30
ENDBRANCH  27  28
ENDBRANCH  26  27
ENDBRANCH  25  26
ENDBRANCH  24  25
ENDBRANCH  23  24
ENDBRANCH  22  23
ENDBRANCH  18  22
ENDBRANCH   1  19
BRANCH   6  35
ATOM     35  O   UNL     1      -4.459  10.229  14.693  0.00  0.00    +0.000 OA
ATOM     36  H   UNL     1      -4.306   9.276  14.593  0.00  0.00    +0.000 HD
ENDBRANCH   6  35
TORSDOF 13
ENDMDL
MODEL 5
REMARK VINA RESULT:      -6.8      3.993      7.974
REMARK  Name = 
REMARK  13 active torsions:
REMARK  status: ('A' for Active; 'I' for Inactive)
REMARK    1  A    between atoms: C_2  and  C_3
REMARK    2  A    between atoms: C_3  and  C_4
REMARK    3  A    between atoms: C_4  and  C_5
REMARK    4  A    between atoms: C_5  and  C_6
REMARK    5  A    between atoms: C_6  and  C_7
REMARK    6  A    between atoms: C_7  and  C_8
REMARK    7  A    between atoms: C_8  and  C_9
REMARK    8  A    between atoms: C_9  and  N_10
REMARK    9  A    between atoms: C_11  and  C_13
REMARK   10  A    between atoms: C_14  and  C_15
REMARK   11  A    between atoms: C_18  and  O_19
REMARK   12  A    between atoms: C_25  and  O_26
REMARK   13  A    between atoms: N_30  and  O_31
REMARK                            x       y       z     vdW  Elec       q    Type
REMARK                         _______ _______ _______ _____ _____    ______ ____
ROOT
ATOM      1  C   UNL     1       3.866   5.231  18.165  0.00  0.00    +0.000 A 
ATOM      2  C   UNL     1       4.509   4.271  17.379  0.00  0.00    +0.000 A 
ATOM      3  S   UNL     1       4.311   2.699  18.050  0.00  0.00    +0.000 S 
ATOM      4  C   UNL     1       3.345   3.245  19.348  0.00  0.00    +0.000 A 
ATOM      5  C   UNL     1       2.741   2.448  20.344  0.00  0.00    +0.000 A 
ATOM      6  C   UNL     1       1.985   3.070  21.329  0.00  0.00    +0.000 A 
ATOM      7  C   UNL     1       1.822   4.441  21.342  0.00  0.00    +0.000 A 
ATOM      8  C   UNL     1       2.402   5.219  20.342  0.00  0.00    +0.000 A 
ATOM      9  C   UNL     1       3.196   4.635  19.317  0.00  0.00    +0.000 A 
ENDROOT
BRANCH   2  10
ATOM     10  C   UNL     1       5.328   4.411  16.144  0.00  0.00    +0.000 A 
ATOM     11  C   UNL     1       4.790   4.120  14.878  0.00  0.00    +0.000 A 
ATOM     12  C   UNL     1       5.550   4.234  13.710  0.00  0.00    +0.000 A 
ATOM     13  C   UNL     1       6.855   4.695  13.791  0.00  0.00    +0.000 A 
ATOM     14  C   UNL     1       7.414   5.012  15.019  0.00  0.00    +0.000 A 
ATOM     15  C   UNL     1       6.662   4.856  16.188  0.00  0.00    +0.000 A 
BRANCH  13  16
ATOM     16  O   UNL     1       7.620   4.854  12.677  0.00  0.00    +0.000 OA
ATOM     17  H   UNL     1       8.543   4.666  12.910  0.00  0.00    +0.000 HD
ENDBRANCH  13  16
ENDBRANCH   2  10
BRANCH   1  19
ATOM     18  N   UNL     1       2.570   7.244  17.882  0.00  0.00    +0.000 N 
ATOM     19  C   UNL     1       3.818   6.655  17.816  0.00  0.00    +0.000 C 
ATOM     20  O   UNL     1       4.817   7.298  17.508  0.00  0.00    +0.000 OA
ATOM     21  H   UNL     1       1.789   6.718  18.250  0.00  0.00    +0.000 HD
BRANCH  18  22
ATOM     22  C   UNL     1       2.394   8.649  17.598  0.00  0.00    +0.000 C 
BRANCH  22  23
ATOM     23  C   UNL     1       1.586   9.336  18.695  0.00  0.00    +0.000 C 
BRANCH  23  24
ATOM     24  C   UNL     1       0.198   9.722  18.186  0.00  0.00    +0.000 C 
BRANCH  24  25
ATOM     25  C   UNL     1      -0.451  10.765  19.092  0.00  0.00    +0.000 C 
BRANCH  25  26
ATOM     26  C   UNL     1      -1.886  11.070  18.655  0.00  0.00    +0.000 C 
BRANCH  26  27
ATOM     27  C   UNL     1      -2.440   9.941  17.782  0.00  0.00    +0.000 C 
BRANCH  27  28
ATOM     28  C   UNL     1      -3.394  10.460  16.710  0.00  0.00    +0.000 C 
BRANCH  28  30
ATOM     29  O   UNL     1      -5.302  10.685  18.209  0.00  0.00    +0.000 OA
ATOM     30  C   UNL     1      -4.613  11.142  17.309  0.00  0.00    +0.000 C 
ATOM     31  N   UNL     1      -4.879  12.360  16.731  0.00  0.00    +0.000 N 
ATOM     32  H   UNL     1      -4.330  12.794  16.002  0.00  0.00    +0.000 HD
BRANCH  31  33
ATOM     33  O   UNL     1      -5.986  13.088  17.221  0.00  0.00    +0.000 OA
ATOM     34  H   UNL     1      -6.598  13.078  16.450  0.00  0.00    +0.000 HD
ENDBRANCH  31  33
ENDBRANCH  28  30
ENDBRANCH  27  28
ENDBRANCH  26  27
ENDBRANCH  25  26
ENDBRANCH  24  25
ENDBRANCH  23  24
ENDBRANCH  22  23
ENDBRANCH  18  22
ENDBRANCH   1  19
BRANCH   6  35
ATOM     35  O   UNL     1       1.364   2.361  22.312  0.00  0.00    +0.000 OA
ATOM     36  H   UNL     1       0.792   2.958  22.820  0.00  0.00    +0.000 HD
ENDBRANCH   6  35
TORSDOF 13
ENDMDL
MODEL 6
REMARK VINA RESULT:      -6.7      2.923      6.641
REMARK  Name = 
REMARK  13 active torsions:
REMARK  status: ('A' for Active; 'I' for Inactive)
REMARK    1  A    between atoms: C_2  and  C_3
REMARK    2  A    between atoms: C_3  and  C_4
REMARK    3  A    between atoms: C_4  and  C_5
REMARK    4  A    between atoms: C_5  and  C_6
REMARK    5  A    between atoms: C_6  and  C_7
REMARK    6  A    between atoms: C_7  and  C_8
REMARK    7  A    between atoms: C_8  and  C_9
REMARK    8  A    between atoms: C_9  and  N_10
REMARK    9  A    between atoms: C_11  and  C_13
REMARK   10  A    between atoms: C_14  and  C_15
REMARK   11  A    between atoms: C_18  and  O_19
REMARK   12  A    between atoms: C_25  and  O_26
REMARK   13  A    between atoms: N_30  and  O_31
REMARK                            x       y       z     vdW  Elec       q    Type
REMARK                         _______ _______ _______ _____ _____    ______ ____
ROOT
ATOM      1  C   UNL     1       3.876   5.212  18.091  0.00  0.00    +0.000 A 
ATOM      2  C   UNL     1       4.529   4.246  17.321  0.00  0.00    +0.000 A 
ATOM      3  S   UNL     1       4.345   2.683  18.018  0.00  0.00    +0.000 S 
ATOM      4  C   UNL     1       3.372   3.241  19.306  0.00  0.00    +0.000 A 
ATOM      5  C   UNL     1       2.775   2.454  20.314  0.00  0.00    +0.000 A 
ATOM      6  C   UNL     1       2.011   3.085  21.287  0.00  0.00    +0.000 A 
ATOM      7  C   UNL     1       1.835   4.454  21.278  0.00  0.00    +0.000 A 
ATOM      8  C   UNL     1       2.410   5.221  20.267  0.00  0.00    +0.000 A 
ATOM      9  C   UNL     1       3.210   4.628  19.252  0.00  0.00    +0.000 A 
ENDROOT
BRANCH   2  10
ATOM     10  C   UNL     1       5.348   4.375  16.085  0.00  0.00    +0.000 A 
ATOM     11  C   UNL     1       4.805   4.089  14.821  0.00  0.00    +0.000 A 
ATOM     12  C   UNL     1       5.564   4.193  13.651  0.00  0.00    +0.000 A 
ATOM     13  C   UNL     1       6.876   4.636  13.730  0.00  0.00    +0.000 A 
ATOM     14  C   UNL     1       7.441   4.945  14.957  0.00  0.00    +0.000 A 
ATOM     15  C   UNL     1       6.688   4.801  16.127  0.00  0.00    +0.000 A 
BRANCH  13  16
ATOM     16  O   UNL     1       7.641   4.784  12.615  0.00  0.00    +0.000 OA
ATOM     17  H   UNL     1       7.235   5.465  12.054  0.00  0.00    +0.000 HD
ENDBRANCH  13  16
ENDBRANCH   2  10
BRANCH   1  19
ATOM     18  N   UNL     1       2.601   7.252  17.937  0.00  0.00    +0.000 N 
ATOM     19  C   UNL     1       3.815   6.630  17.720  0.00  0.00    +0.000 C 
ATOM     20  O   UNL     1       4.778   7.241  17.267  0.00  0.00    +0.000 OA
ATOM     21  H   UNL     1       1.864   6.754  18.418  0.00  0.00    +0.000 HD
BRANCH  18  22
ATOM     22  C   UNL     1       2.421   8.656  17.647  0.00  0.00    +0.000 C 
BRANCH  22  23
ATOM     23  C   UNL     1       1.460   9.305  18.639  0.00  0.00    +0.000 C 
BRANCH  23  24
ATOM     24  C   UNL     1       1.477  10.826  18.495  0.00  0.00    +0.000 C 
BRANCH  24  25
ATOM     25  C   UNL     1       0.105  11.424  18.795  0.00  0.00    +0.000 C 
BRANCH  25  26
ATOM     26  C   UNL     1      -0.781  10.438  19.560  0.00  0.00    +0.000 C 
BRANCH  26  27
ATOM     27  C   UNL     1      -0.696  10.687  21.067  0.00  0.00    +0.000 C 
BRANCH  27  28
ATOM     28  C   UNL     1      -0.590   9.387  21.860  0.00  0.00    +0.000 C 
BRANCH  28  30
ATOM     29  O   UNL     1       0.382   9.509  24.091  0.00  0.00    +0.000 OA
ATOM     30  C   UNL     1       0.535   9.428  22.881  0.00  0.00    +0.000 C 
ATOM     31  N   UNL     1       1.780   9.364  22.304  0.00  0.00    +0.000 N 
ATOM     32  H   UNL     1       1.962   9.275  21.314  0.00  0.00    +0.000 HD
BRANCH  31  33
ATOM     33  O   UNL     1       2.901   9.384  23.165  0.00  0.00    +0.000 OA
ATOM     34  H   UNL     1       2.704   8.640  23.778  0.00  0.00    +0.000 HD
ENDBRANCH  31  33
ENDBRANCH  28  30
ENDBRANCH  27  28
ENDBRANCH  26  27
ENDBRANCH  25  26
ENDBRANCH  24  25
ENDBRANCH  23  24
ENDBRANCH  22  23
ENDBRANCH  18  22
ENDBRANCH   1  19
BRANCH   6  35
ATOM     35  O   UNL     1       1.396   2.386  22.282  0.00  0.00    +0.000 OA
ATOM     36  H   UNL     1       0.781   1.748  21.887  0.00  0.00    +0.000 HD
ENDBRANCH   6  35
TORSDOF 13
ENDMDL
MODEL 7
REMARK VINA RESULT:      -6.7      4.582     10.343
REMARK  Name = 
REMARK  13 active torsions:
REMARK  status: ('A' for Active; 'I' for Inactive)
REMARK    1  A    between atoms: C_2  and  C_3
REMARK    2  A    between atoms: C_3  and  C_4
REMARK    3  A    between atoms: C_4  and  C_5
REMARK    4  A    between atoms: C_5  and  C_6
REMARK    5  A    between atoms: C_6  and  C_7
REMARK    6  A    between atoms: C_7  and  C_8
REMARK    7  A    between atoms: C_8  and  C_9
REMARK    8  A    between atoms: C_9  and  N_10
REMARK    9  A    between atoms: C_11  and  C_13
REMARK   10  A    between atoms: C_14  and  C_15
REMARK   11  A    between atoms: C_18  and  O_19
REMARK   12  A    between atoms: C_25  and  O_26
REMARK   13  A    between atoms: N_30  and  O_31
REMARK                            x       y       z     vdW  Elec       q    Type
REMARK                         _______ _______ _______ _____ _____    ______ ____
ROOT
ATOM      1  C   UNL     1       0.961   8.705  20.194  0.00  0.00    +0.000 A 
ATOM      2  C   UNL     1       1.166   9.644  19.178  0.00  0.00    +0.000 A 
ATOM      3  S   UNL     1       2.242   9.028  17.985  0.00  0.00    +0.000 S 
ATOM      4  C   UNL     1       2.418   7.513  18.754  0.00  0.00    +0.000 A 
ATOM      5  C   UNL     1       3.167   6.412  18.287  0.00  0.00    +0.000 A 
ATOM      6  C   UNL     1       3.195   5.253  19.051  0.00  0.00    +0.000 A 
ATOM      7  C   UNL     1       2.508   5.169  20.245  0.00  0.00    +0.000 A 
ATOM      8  C   UNL     1       1.752   6.253  20.688  0.00  0.00    +0.000 A 
ATOM      9  C   UNL     1       1.698   7.468  19.951  0.00  0.00    +0.000 A 
ENDROOT
BRANCH   2  10
ATOM     10  C   UNL     1       0.651  11.031  19.015  0.00  0.00    +0.000 A 
ATOM     11  C   UNL     1       1.399  12.139  19.450  0.00  0.00    +0.000 A 
ATOM     12  C   UNL     1       0.925  13.447  19.316  0.00  0.00    +0.000 A 
ATOM     13  C   UNL     1      -0.294  13.667  18.694  0.00  0.00    +0.000 A 
ATOM     14  C   UNL     1      -1.052  12.601  18.234  0.00  0.00    +0.000 A 
ATOM     15  C   UNL     1      -0.591  11.292  18.408  0.00  0.00    +0.000 A 
BRANCH  13  16
ATOM     16  O   UNL     1      -0.779  14.926  18.512  0.00  0.00    +0.000 OA
ATOM     17  H   UNL     1      -1.078  15.008  17.591  0.00  0.00    +0.000 HD
ENDBRANCH  13  16
ENDBRANCH   2  10
BRANCH   1  19
ATOM     18  N   UNL     1       0.199  10.133  21.980  0.00  0.00    +0.000 N 
ATOM     19  C   UNL     1       0.052   8.927  21.323  0.00  0.00    +0.000 C 
ATOM     20  O   UNL     1      -0.804   8.113  21.658  0.00  0.00    +0.000 OA
ATOM     21  H   UNL     1       0.832  10.829  21.609  0.00  0.00    +0.000 HD
BRANCH  18  22
ATOM     22  C   UNL     1      -0.660  10.489  23.086  0.00  0.00    +0.000 C 
BRANCH  22  23
ATOM     23  C   UNL     1      -1.165  11.922  22.952  0.00  0.00    +0.000 C 
BRANCH  23  24
ATOM     24  C   UNL     1      -2.103  12.057  21.753  0.00  0.00    +0.000 C 
BRANCH  24  25
ATOM     25  C   UNL     1      -2.740  13.444  21.704  0.00  0.00    +0.000 C 
BRANCH  25  26
ATOM     26  C   UNL     1      -4.215  13.369  21.301  0.00  0.00    +0.000 C 
BRANCH  26  27
ATOM     27  C   UNL     1      -4.381  12.589  19.994  0.00  0.00    +0.000 C 
BRANCH  27  28
ATOM     28  C   UNL     1      -5.815  12.638  19.474  0.00  0.00    +0.000 C 
BRANCH  28  30
ATOM     29  O   UNL     1      -6.740  10.510  18.730  0.00  0.00    +0.000 OA
ATOM     30  C   UNL     1      -6.528  11.305  19.634  0.00  0.00    +0.000 C 
ATOM     31  N   UNL     1      -6.926  11.066  20.927  0.00  0.00    +0.000 N 
ATOM     32  H   UNL     1      -6.757  11.678  21.714  0.00  0.00    +0.000 HD
BRANCH  31  33
ATOM     33  O   UNL     1      -7.591   9.848  21.192  0.00  0.00    +0.000 OA
ATOM     34  H   UNL     1      -8.534  10.128  21.219  0.00  0.00    +0.000 HD
ENDBRANCH  31  33
ENDBRANCH  28  30
ENDBRANCH  27  28
ENDBRANCH  26  27
ENDBRANCH  25  26
ENDBRANCH  24  25
ENDBRANCH  23  24
ENDBRANCH  22  23
ENDBRANCH  18  22
ENDBRANCH   1  19
BRANCH   6  35
ATOM     35  O   UNL     1       3.887   4.148  18.654  0.00  0.00    +0.000 OA
ATOM     36  H   UNL     1       4.733   4.118  19.127  0.00  0.00    +0.000 HD
ENDBRANCH   6  35
TORSDOF 13
ENDMDL
MODEL 8
REMARK VINA RESULT:      -6.7      4.289      9.939
REMARK  Name = 
REMARK  13 active torsions:
REMARK  status: ('A' for Active; 'I' for Inactive)
REMARK    1  A    between atoms: C_2  and  C_3
REMARK    2  A    between atoms: C_3  and  C_4
REMARK    3  A    between atoms: C_4  and  C_5
REMARK    4  A    between atoms: C_5  and  C_6
REMARK    5  A    between atoms: C_6  and  C_7
REMARK    6  A    between atoms: C_7  and  C_8
REMARK    7  A    between atoms: C_8  and  C_9
REMARK    8  A    between atoms: C_9  and  N_10
REMARK    9  A    between atoms: C_11  and  C_13
REMARK   10  A    between atoms: C_14  and  C_15
REMARK   11  A    between atoms: C_18  and  O_19
REMARK   12  A    between atoms: C_25  and  O_26
REMARK   13  A    between atoms: N_30  and  O_31
REMARK                            x       y       z     vdW  Elec       q    Type
REMARK                         _______ _______ _______ _____ _____    ______ ____
ROOT
ATOM      1  C   UNL     1       1.204   8.332  20.153  0.00  0.00    +0.000 A 
ATOM      2  C   UNL     1       1.305   9.287  19.138  0.00  0.00    +0.000 A 
ATOM      3  S   UNL     1       2.336   8.731  17.877  0.00  0.00    +0.000 S 
ATOM      4  C   UNL     1       2.625   7.219  18.618  0.00  0.00    +0.000 A 
ATOM      5  C   UNL     1       3.394   6.157  18.096  0.00  0.00    +0.000 A 
ATOM      6  C   UNL     1       3.519   4.994  18.846  0.00  0.00    +0.000 A 
ATOM      7  C   UNL     1       2.909   4.871  20.077  0.00  0.00    +0.000 A 
ATOM      8  C   UNL     1       2.133   5.915  20.576  0.00  0.00    +0.000 A 
ATOM      9  C   UNL     1       1.980   7.132  19.856  0.00  0.00    +0.000 A 
ENDROOT
BRANCH   2  10
ATOM     10  C   UNL     1       0.720  10.650  19.019  0.00  0.00    +0.000 A 
ATOM     11  C   UNL     1       1.517  11.799  19.169  0.00  0.00    +0.000 A 
ATOM     12  C   UNL     1       0.981  13.086  19.074  0.00  0.00    +0.000 A 
ATOM     13  C   UNL     1      -0.364  13.241  18.775  0.00  0.00    +0.000 A 
ATOM     14  C   UNL     1      -1.179  12.133  18.601  0.00  0.00    +0.000 A 
ATOM     15  C   UNL     1      -0.644  10.848  18.738  0.00  0.00    +0.000 A 
BRANCH  13  16
ATOM     16  O   UNL     1      -0.921  14.475  18.639  0.00  0.00    +0.000 OA
ATOM     17  H   UNL     1      -0.613  14.860  17.802  0.00  0.00    +0.000 HD
ENDBRANCH  13  16
ENDBRANCH   2  10
BRANCH   1  19
ATOM     18  N   UNL     1       0.783   9.449  22.248  0.00  0.00    +0.000 N 
ATOM     19  C   UNL     1       0.354   8.504  21.336  0.00  0.00    +0.000 C 
ATOM     20  O   UNL     1      -0.685   7.873  21.506  0.00  0.00    +0.000 OA
ATOM     21  H   UNL     1       1.578  10.033  22.025  0.00  0.00    +0.000 HD
BRANCH  18  22
ATOM     22  C   UNL     1       0.016   9.740  23.437  0.00  0.00    +0.000 C 
BRANCH  22  23
ATOM     23  C   UNL     1      -1.152  10.670  23.126  0.00  0.00    +0.000 C 
BRANCH  23  24
ATOM     24  C   UNL     1      -0.676  11.898  22.351  0.00  0.00    +0.000 C 
BRANCH  24  25
ATOM     25  C   UNL     1      -1.808  12.905  22.162  0.00  0.00    +0.000 C 
BRANCH  25  26
ATOM     26  C   UNL     1      -2.985  12.605  23.093  0.00  0.00    +0.000 C 
BRANCH  26  27
ATOM     27  C   UNL     1      -4.266  13.267  22.580  0.00  0.00    +0.000 C 
BRANCH  27  28
ATOM     28  C   UNL     1      -4.785  12.603  21.308  0.00  0.00    +0.000 C 
BRANCH  28  30
ATOM     29  O   UNL     1      -5.749  13.377  19.208  0.00  0.00    +0.000 OA
ATOM     30  C   UNL     1      -5.116  13.618  20.225  0.00  0.00    +0.000 C 
ATOM     31  N   UNL     1      -4.624  14.870  20.502  0.00  0.00    +0.000 N 
ATOM     32  H   UNL     1      -4.115  15.128  21.336  0.00  0.00    +0.000 HD
BRANCH  31  33
ATOM     33  O   UNL     1      -4.884  15.896  19.565  0.00  0.00    +0.000 OA
ATOM     34  H   UNL     1      -4.413  16.663  19.962  0.00  0.00    +0.000 HD
ENDBRANCH  31  33
ENDBRANCH  28  30
ENDBRANCH  27  28
ENDBRANCH  26  27
ENDBRANCH  25  26
ENDBRANCH  24  25
ENDBRANCH  23  24
ENDBRANCH  22  23
ENDBRANCH  18  22
ENDBRANCH   1  19
BRANCH   6  35
ATOM     35  O   UNL     1       4.236   3.926  18.397  0.00  0.00    +0.000 OA
ATOM     36  H   UNL     1       3.800   3.560  17.612  0.00  0.00    +0.000 HD
ENDBRANCH   6  35
TORSDOF 13
ENDMDL
MODEL 9
REMARK VINA RESULT:      -6.7      3.135      7.013
REMARK  Name = 
REMARK  13 active torsions:
REMARK  status: ('A' for Active; 'I' for Inactive)
REMARK    1  A    between atoms: C_2  and  C_3
REMARK    2  A    between atoms: C_3  and  C_4
REMARK    3  A    between atoms: C_4  and  C_5
REMARK    4  A    between atoms: C_5  and  C_6
REMARK    5  A    between atoms: C_6  and  C_7
REMARK    6  A    between atoms: C_7  and  C_8
REMARK    7  A    between atoms: C_8  and  C_9
REMARK    8  A    between atoms: C_9  and  N_10
REMARK    9  A    between atoms: C_11  and  C_13
REMARK   10  A    between atoms: C_14  and  C_15
REMARK   11  A    between atoms: C_18  and  O_19
REMARK   12  A    between atoms: C_25  and  O_26
REMARK   13  A    between atoms: N_30  and  O_31
REMARK                            x       y       z     vdW  Elec       q    Type
REMARK                         _______ _______ _______ _____ _____    ______ ____
ROOT
ATOM      1  C   UNL     1       3.812   5.308  18.033  0.00  0.00    +0.000 A 
ATOM      2  C   UNL     1       4.535   4.355  17.310  0.00  0.00    +0.000 A 
ATOM      3  S   UNL     1       4.420   2.807  18.053  0.00  0.00    +0.000 S 
ATOM      4  C   UNL     1       3.387   3.351  19.300  0.00  0.00    +0.000 A 
ATOM      5  C   UNL     1       2.809   2.565  20.320  0.00  0.00    +0.000 A 
ATOM      6  C   UNL     1       1.989   3.184  21.255  0.00  0.00    +0.000 A 
ATOM      7  C   UNL     1       1.740   4.540  21.197  0.00  0.00    +0.000 A 
ATOM      8  C   UNL     1       2.296   5.305  20.174  0.00  0.00    +0.000 A 
ATOM      9  C   UNL     1       3.152   4.725  19.197  0.00  0.00    +0.000 A 
ENDROOT
BRANCH   2  10
ATOM     10  C   UNL     1       5.376   4.489  16.089  0.00  0.00    +0.000 A 
ATOM     11  C   UNL     1       6.729   4.861  16.175  0.00  0.00    +0.000 A 
ATOM     12  C   UNL     1       7.528   5.004  15.037  0.00  0.00    +0.000 A 
ATOM     13  C   UNL     1       6.991   4.726  13.790  0.00  0.00    +0.000 A 
ATOM     14  C   UNL     1       5.665   4.338  13.665  0.00  0.00    +0.000 A 
ATOM     15  C   UNL     1       4.860   4.236  14.804  0.00  0.00    +0.000 A 
BRANCH  13  16
ATOM     16  O   UNL     1       7.741   4.819  12.659  0.00  0.00    +0.000 OA
ATOM     17  H   UNL     1       7.255   5.358  12.013  0.00  0.00    +0.000 HD
ENDBRANCH  13  16
ENDBRANCH   2  10
BRANCH   1  19
ATOM     18  N   UNL     1       2.504   7.332  17.971  0.00  0.00    +0.000 N 
ATOM     19  C   UNL     1       3.683   6.707  17.613  0.00  0.00    +0.000 C 
ATOM     20  O   UNL     1       4.567   7.304  17.005  0.00  0.00    +0.000 OA
ATOM     21  H   UNL     1       1.847   6.851  18.570  0.00  0.00    +0.000 HD
BRANCH  18  22
ATOM     22  C   UNL     1       2.269   8.721  17.649  0.00  0.00    +0.000 C 
BRANCH  22  23
ATOM     23  C   UNL     1       1.724   9.480  18.854  0.00  0.00    +0.000 C 
BRANCH  23  24
ATOM     24  C   UNL     1       1.249   8.513  19.937  0.00  0.00    +0.000 C 
BRANCH  24  25
ATOM     25  C   UNL     1       0.721   9.264  21.157  0.00  0.00    +0.000 C 
BRANCH  25  26
ATOM     26  C   UNL     1       0.608  10.766  20.883  0.00  0.00    +0.000 C 
BRANCH  26  27
ATOM     27  C   UNL     1      -0.859  11.191  20.788  0.00  0.00    +0.000 C 
BRANCH  27  28
ATOM     28  C   UNL     1      -1.079  12.260  19.721  0.00  0.00    +0.000 C 
BRANCH  28  30
ATOM     29  O   UNL     1      -2.915  11.038  18.685  0.00  0.00    +0.000 OA
ATOM     30  C   UNL     1      -1.931  11.753  18.568  0.00  0.00    +0.000 C 
ATOM     31  N   UNL     1      -1.481  12.184  17.344  0.00  0.00    +0.000 N 
ATOM     32  H   UNL     1      -0.688  12.793  17.193  0.00  0.00    +0.000 HD
BRANCH  31  33
ATOM     33  O   UNL     1      -2.207  11.780  16.202  0.00  0.00    +0.000 OA
ATOM     34  H   UNL     1      -2.720  11.013  16.543  0.00  0.00    +0.000 HD
ENDBRANCH  31  33
ENDBRANCH  28  30
ENDBRANCH  27  28
ENDBRANCH  26  27
ENDBRANCH  25  26
ENDBRANCH  24  25
ENDBRANCH  23  24
ENDBRANCH  22  23
ENDBRANCH  18  22
ENDBRANCH   1  19
BRANCH   6  35
ATOM     35  O   UNL     1       1.390   2.484  22.258  0.00  0.00    +0.000 OA
ATOM     36  H   UNL     1       2.041   2.310  22.955  0.00  0.00    +0.000 HD
ENDBRANCH   6  35
TORSDOF 13
ENDMDL
