MODEL 1
REMARK VINA RESULT:      -6.8      0.000      0.000
REMARK  Name = 
REMARK  2 active torsions:
REMARK  status: ('A' for Active; 'I' for Inactive)
REMARK    1  A    between atoms: C_5  and  N_6
REMARK    2  A    between atoms: N_14  and  C_15
REMARK                            x       y       z     vdW  Elec       q    Type
REMARK                         _______ _______ _______ _____ _____    ______ ____
ROOT
ATOM      1  O   UNL     1       4.197   7.585  16.837  0.00  0.00    +0.000 OA
ATOM      2  C   UNL     1       4.022   6.528  17.426  0.00  0.00    +0.000 C 
ATOM      3  C   UNL     1       3.062   6.342  18.519  0.00  0.00    +0.000 C 
ATOM      4 CL   UNL     1       2.267   7.664  19.229  0.00  0.00    +0.000 Cl
ATOM      5  C   UNL     1       2.955   5.043  18.825  0.00  0.00    +0.000 C 
ATOM      6  C   UNL     1       3.900   4.347  17.886  0.00  0.00    +0.000 C 
ATOM      7  O   UNL     1       4.033   3.134  17.823  0.00  0.00    +0.000 OA
ATOM      8  N   UNL     1       4.534   5.295  17.139  0.00  0.00    +0.000 N 
ENDROOT
BRANCH   8   9
ATOM      9  C   UNL     1       5.322   5.025  15.997  0.00  0.00    +0.000 A 
ATOM     10  C   UNL     1       4.731   4.350  14.915  0.00  0.00    +0.000 A 
ATOM     11  C   UNL     1       5.442   4.132  13.735  0.00  0.00    +0.000 A 
ATOM     12  C   UNL     1       6.762   4.558  13.634  0.00  0.00    +0.000 A 
ATOM     13 CL   UNL     1       7.638   4.273  12.183  0.00  0.00    +0.000 Cl
ATOM     14  C   UNL     1       7.380   5.200  14.704  0.00  0.00    +0.000 A 
ATOM     15  C   UNL     1       6.663   5.438  15.884  0.00  0.00    +0.000 A 
ATOM     16 CL   UNL     1       7.540   6.109  17.216  0.00  0.00    +0.000 Cl
ENDBRANCH   8   9
BRANCH   5  17
ATOM     17  N   UNL     1       2.178   4.364  19.756  0.00  0.00    +0.000 N 
ATOM     18  C   UNL     1       2.257   4.591  21.214  0.00  0.00    +0.000 C 
ATOM     19  C   UNL     1       2.277   3.239  21.936  0.00  0.00    +0.000 C 
ATOM     20  O   UNL     1       1.106   2.467  21.614  0.00  0.00    +0.000 OA
ATOM     21  C   UNL     1       1.029   2.236  20.197  0.00  0.00    +0.000 C 
ATOM     22  C   UNL     1       0.993   3.554  19.399  0.00  0.00    +0.000 C 
ENDBRANCH   5  17
TORSDOF 2
ENDMDL
MODEL 2
REMARK VINA RESULT:      -6.8      4.078      6.014
REMARK  Name = 
REMARK  2 active torsions:
REMARK  status: ('A' for Active; 'I' for Inactive)
REMARK    1  A    between atoms: C_5  and  N_6
REMARK    2  A    between atoms: N_14  and  C_15
REMARK                            x       y       z     vdW  Elec       q    Type
REMARK                         _______ _______ _______ _____ _____    ______ ____
ROOT
ATOM      1  O   UNL     1       2.383   6.343  20.770  0.00  0.00    +0.000 OA
ATOM      2  C   UNL     1       2.018   7.231  20.014  0.00  0.00    +0.000 C 
ATOM      3  C   UNL     1       1.269   8.419  20.438  0.00  0.00    +0.000 C 
ATOM      4 CL   UNL     1       0.628   8.544  22.006  0.00  0.00    +0.000 Cl
ATOM      5  C   UNL     1       1.188   9.299  19.433  0.00  0.00    +0.000 C 
ATOM      6  C   UNL     1       1.918   8.648  18.292  0.00  0.00    +0.000 C 
ATOM      7  O   UNL     1       2.110   9.181  17.209  0.00  0.00    +0.000 OA
ATOM      8  N   UNL     1       2.321   7.410  18.695  0.00  0.00    +0.000 N 
ENDROOT
BRANCH   8   9
ATOM      9  C   UNL     1       3.229   6.590  17.986  0.00  0.00    +0.000 A 
ATOM     10  C   UNL     1       4.455   7.140  17.575  0.00  0.00    +0.000 A 
ATOM     11  C   UNL     1       5.417   6.350  16.944  0.00  0.00    +0.000 A 
ATOM     12  C   UNL     1       5.151   5.009  16.691  0.00  0.00    +0.000 A 
ATOM     13 CL   UNL     1       6.334   4.044  15.899  0.00  0.00    +0.000 Cl
ATOM     14  C   UNL     1       3.931   4.448  17.059  0.00  0.00    +0.000 A 
ATOM     15  C   UNL     1       2.970   5.234  17.709  0.00  0.00    +0.000 A 
ATOM     16 CL   UNL     1       1.428   4.507  18.006  0.00  0.00    +0.000 Cl
ENDBRANCH   8   9
BRANCH   5  17
ATOM     17  N   UNL     1       0.610  10.560  19.340  0.00  0.00    +0.000 N 
ATOM     18  C   UNL     1      -0.847  10.794  19.280  0.00  0.00    +0.000 C 
ATOM     19  C   UNL     1      -1.150  11.824  18.186  0.00  0.00    +0.000 C 
ATOM     20  O   UNL     1      -0.456  13.059  18.437  0.00  0.00    +0.000 OA
ATOM     21  C   UNL     1       0.964  12.839  18.488  0.00  0.00    +0.000 C 
ATOM     22  C   UNL     1       1.350  11.819  19.576  0.00  0.00    +0.000 C 
ENDBRANCH   5  17
TORSDOF 2
ENDMDL
MODEL 3
REMARK VINA RESULT:      -6.7      4.048      5.728
REMARK  Name = 
REMARK  2 active torsions:
REMARK  status: ('A' for Active; 'I' for Inactive)
REMARK    1  A    between atoms: C_5  and  N_6
REMARK    2  A    between atoms: N_14  and  C_15
REMARK                            x       y       z     vdW  Elec       q    Type
REMARK                         _______ _______ _______ _____ _____    ______ ____
ROOT
ATOM      1  O   UNL     1       2.565   6.209  20.686  0.00  0.00    +0.000 OA
ATOM      2  C   UNL     1       2.170   7.085  19.930  0.00  0.00    +0.000 C 
ATOM      3  C   UNL     1       1.435   8.278  20.364  0.00  0.00    +0.000 C 
ATOM      4 CL   UNL     1       0.855   8.428  21.953  0.00  0.00    +0.000 Cl
ATOM      5  C   UNL     1       1.314   9.141  19.348  0.00  0.00    +0.000 C 
ATOM      6  C   UNL     1       2.001   8.473  18.190  0.00  0.00    +0.000 C 
ATOM      7  O   UNL     1       2.150   8.988  17.092  0.00  0.00    +0.000 OA
ATOM      8  N   UNL     1       2.422   7.242  18.597  0.00  0.00    +0.000 N 
ENDROOT
BRANCH   8   9
ATOM      9  C   UNL     1       3.303   6.411  17.868  0.00  0.00    +0.000 A 
ATOM     10  C   UNL     1       4.524   6.948  17.427  0.00  0.00    +0.000 A 
ATOM     11  C   UNL     1       5.462   6.147  16.773  0.00  0.00    +0.000 A 
ATOM     12  C   UNL     1       5.176   4.809  16.528  0.00  0.00    +0.000 A 
ATOM     13 CL   UNL     1       6.329   3.830  15.709  0.00  0.00    +0.000 Cl
ATOM     14  C   UNL     1       3.959   4.262  16.927  0.00  0.00    +0.000 A 
ATOM     15  C   UNL     1       3.023   5.058  17.599  0.00  0.00    +0.000 A 
ATOM     16 CL   UNL     1       1.481   4.348  17.933  0.00  0.00    +0.000 Cl
ENDBRANCH   8   9
BRANCH   5  17
ATOM     17  N   UNL     1       0.730  10.400  19.256  0.00  0.00    +0.000 N 
ATOM     18  C   UNL     1       1.475  11.665  19.417  0.00  0.00    +0.000 C 
ATOM     19  C   UNL     1       0.676  12.612  20.319  0.00  0.00    +0.000 C 
ATOM     20  O   UNL     1      -0.628  12.868  19.768  0.00  0.00    +0.000 OA
ATOM     21  C   UNL     1      -1.361  11.640  19.618  0.00  0.00    +0.000 C 
ATOM     22  C   UNL     1      -0.624  10.636  18.711  0.00  0.00    +0.000 C 
ENDBRANCH   5  17
TORSDOF 2
ENDMDL
MODEL 4
REMARK VINA RESULT:      -6.5      3.370      6.801
REMARK  Name = 
REMARK  2 active torsions:
REMARK  status: ('A' for Active; 'I' for Inactive)
REMARK    1  A    between atoms: C_5  and  N_6
REMARK    2  A    between atoms: N_14  and  C_15
REMARK                            x       y       z     vdW  Elec       q    Type
REMARK                         _______ _______ _______ _____ _____    ______ ____
ROOT
ATOM      1  O   UNL     1       3.098   9.166  17.852  0.00  0.00    +0.000 OA
ATOM      2  C   UNL     1       2.837   8.028  18.214  0.00  0.00    +0.000 C 
ATOM      3  C   UNL     1       3.553   6.833  17.757  0.00  0.00    +0.000 C 
ATOM      4 CL   UNL     1       4.672   6.908  16.481  0.00  0.00    +0.000 Cl
ATOM      5  C   UNL     1       3.176   5.765  18.472  0.00  0.00    +0.000 C 
ATOM      6  C   UNL     1       2.157   6.292  19.442  0.00  0.00    +0.000 C 
ATOM      7  O   UNL     1       1.625   5.616  20.310  0.00  0.00    +0.000 OA
ATOM      8  N   UNL     1       1.968   7.617  19.184  0.00  0.00    +0.000 N 
ENDROOT
BRANCH   8   9
ATOM      9  C   UNL     1       1.262   8.508  20.025  0.00  0.00    +0.000 A 
ATOM     10  C   UNL     1       1.474   8.435  21.412  0.00  0.00    +0.000 A 
ATOM     11  C   UNL     1       0.863   9.344  22.277  0.00  0.00    +0.000 A 
ATOM     12  C   UNL     1       0.010  10.316  21.767  0.00  0.00    +0.000 A 
ATOM     13 CL   UNL     1      -0.753  11.424  22.839  0.00  0.00    +0.000 Cl
ATOM     14  C   UNL     1      -0.242  10.388  20.400  0.00  0.00    +0.000 A 
ATOM     15  C   UNL     1       0.384   9.489  19.527  0.00  0.00    +0.000 A 
ATOM     16 CL   UNL     1      -0.089   9.548  17.863  0.00  0.00    +0.000 Cl
ENDBRANCH   8   9
BRANCH   5  17
ATOM     17  N   UNL     1       3.570   4.432  18.438  0.00  0.00    +0.000 N 
ATOM     18  C   UNL     1       3.183   3.487  17.371  0.00  0.00    +0.000 C 
ATOM     19  C   UNL     1       2.748   2.161  18.003  0.00  0.00    +0.000 C 
ATOM     20  O   UNL     1       3.804   1.602  18.805  0.00  0.00    +0.000 OA
ATOM     21  C   UNL     1       4.179   2.515  19.851  0.00  0.00    +0.000 C 
ATOM     22  C   UNL     1       4.642   3.874  19.291  0.00  0.00    +0.000 C 
ENDBRANCH   5  17
TORSDOF 2
ENDMDL
MODEL 5
REMARK VINA RESULT:      -6.2      3.191      6.720
REMARK  Name = 
REMARK  2 active torsions:
REMARK  status: ('A' for Active; 'I' for Inactive)
REMARK    1  A    between atoms: C_5  and  N_6
REMARK    2  A    between atoms: N_14  and  C_15
REMARK                            x       y       z     vdW  Elec       q    Type
REMARK                         _______ _______ _______ _____ _____    ______ ____
ROOT
ATOM      1  O   UNL     1       1.137   5.699  20.627  0.00  0.00    +0.000 OA
ATOM      2  C   UNL     1       2.146   5.935  19.979  0.00  0.00    +0.000 C 
ATOM      3  C   UNL     1       3.153   4.929  19.623  0.00  0.00    +0.000 C 
ATOM      4 CL   UNL     1       3.119   3.371  20.298  0.00  0.00    +0.000 Cl
ATOM      5  C   UNL     1       4.030   5.441  18.751  0.00  0.00    +0.000 C 
ATOM      6  C   UNL     1       3.574   6.855  18.530  0.00  0.00    +0.000 C 
ATOM      7  O   UNL     1       4.097   7.628  17.741  0.00  0.00    +0.000 OA
ATOM      8  N   UNL     1       2.499   7.087  19.335  0.00  0.00    +0.000 N 
ENDROOT
BRANCH   8   9
ATOM      9  C   UNL     1       1.656   8.218  19.245  0.00  0.00    +0.000 A 
ATOM     10  C   UNL     1       1.252   8.658  17.973  0.00  0.00    +0.000 A 
ATOM     11  C   UNL     1       0.357   9.720  17.835  0.00  0.00    +0.000 A 
ATOM     12  C   UNL     1      -0.121  10.372  18.966  0.00  0.00    +0.000 A 
ATOM     13 CL   UNL     1      -1.212  11.689  18.790  0.00  0.00    +0.000 Cl
ATOM     14  C   UNL     1       0.290   9.976  20.236  0.00  0.00    +0.000 A 
ATOM     15  C   UNL     1       1.174   8.899  20.379  0.00  0.00    +0.000 A 
ATOM     16 CL   UNL     1       1.749   8.559  21.976  0.00  0.00    +0.000 Cl
ENDBRANCH   8   9
BRANCH   5  17
ATOM     17  N   UNL     1       5.136   4.894  18.109  0.00  0.00    +0.000 N 
ATOM     18  C   UNL     1       6.480   4.809  18.716  0.00  0.00    +0.000 C 
ATOM     19  C   UNL     1       7.528   5.251  17.689  0.00  0.00    +0.000 C 
ATOM     20  O   UNL     1       7.463   4.437  16.505  0.00  0.00    +0.000 OA
ATOM     21  C   UNL     1       6.159   4.522  15.905  0.00  0.00    +0.000 C 
ATOM     22  C   UNL     1       5.048   4.080  16.877  0.00  0.00    +0.000 C 
ENDBRANCH   5  17
TORSDOF 2
ENDMDL
MODEL 6
REMARK VINA RESULT:      -6.1      0.787      1.272
REMARK  Name = 
REMARK  2 active torsions:
REMARK  status: ('A' for Active; 'I' for Inactive)
REMARK    1  A    between atoms: C_5  and  N_6
REMARK    2  A    between atoms: N_14  and  C_15
REMARK                            x       y       z     vdW  Elec       q    Type
REMARK                         _______ _______ _______ _____ _____    ______ ____
ROOT
ATOM      1  O   UNL     1       4.355   6.994  16.803  0.00  0.00    +0.000 OA
ATOM      2  C   UNL     1       4.244   5.883  17.300  0.00  0.00    +0.000 C 
ATOM      3  C   UNL     1       3.375   5.573  18.440  0.00  0.00    +0.000 C 
ATOM      4 CL   UNL     1       2.616   6.803  19.332  0.00  0.00    +0.000 Cl
ATOM      5  C   UNL     1       3.314   4.249  18.629  0.00  0.00    +0.000 C 
ATOM      6  C   UNL     1       4.193   3.666  17.559  0.00  0.00    +0.000 C 
ATOM      7  O   UNL     1       4.341   2.468  17.371  0.00  0.00    +0.000 OA
ATOM      8  N   UNL     1       4.752   4.694  16.860  0.00  0.00    +0.000 N 
ENDROOT
BRANCH   8   9
ATOM      9  C   UNL     1       5.452   4.551  15.640  0.00  0.00    +0.000 A 
ATOM     10  C   UNL     1       4.753   4.085  14.513  0.00  0.00    +0.000 A 
ATOM     11  C   UNL     1       5.379   4.003  13.268  0.00  0.00    +0.000 A 
ATOM     12  C   UNL     1       6.718   4.357  13.143  0.00  0.00    +0.000 A 
ATOM     13 CL   UNL     1       7.488   4.239  11.611  0.00  0.00    +0.000 Cl
ATOM     14  C   UNL     1       7.440   4.790  14.252  0.00  0.00    +0.000 A 
ATOM     15  C   UNL     1       6.811   4.891  15.499  0.00  0.00    +0.000 A 
ATOM     16 CL   UNL     1       7.807   5.299  16.854  0.00  0.00    +0.000 Cl
ENDBRANCH   8   9
BRANCH   5  17
ATOM     17  N   UNL     1       2.623   3.468  19.549  0.00  0.00    +0.000 N 
ATOM     18  C   UNL     1       1.328   2.815  19.266  0.00  0.00    +0.000 C 
ATOM     19  C   UNL     1       0.383   3.031  20.452  0.00  0.00    +0.000 C 
ATOM     20  O   UNL     1       0.951   2.506  21.664  0.00  0.00    +0.000 OA
ATOM     21  C   UNL     1       2.208   3.143  21.950  0.00  0.00    +0.000 C 
ATOM     22  C   UNL     1       3.221   2.960  20.803  0.00  0.00    +0.000 C 
ENDBRANCH   5  17
TORSDOF 2
ENDMDL
MODEL 7
REMARK VINA RESULT:      -6.1      3.048      4.583
REMARK  Name = 
REMARK  2 active torsions:
REMARK  status: ('A' for Active; 'I' for Inactive)
REMARK    1  A    between atoms: C_5  and  N_6
REMARK    2  A    between atoms: N_14  and  C_15
REMARK                            x       y       z     vdW  Elec       q    Type
REMARK                         _______ _______ _______ _____ _____    ______ ____
ROOT
ATOM      1  O   UNL     1       7.569   5.493  15.343  0.00  0.00    +0.000 OA
ATOM      2  C   UNL     1       6.586   5.437  16.067  0.00  0.00    +0.000 C 
ATOM      3  C   UNL     1       5.580   4.371  16.012  0.00  0.00    +0.000 C 
ATOM      4 CL   UNL     1       5.571   3.231  14.753  0.00  0.00    +0.000 Cl
ATOM      5  C   UNL     1       4.740   4.473  17.049  0.00  0.00    +0.000 C 
ATOM      6  C   UNL     1       5.220   5.672  17.818  0.00  0.00    +0.000 C 
ATOM      7  O   UNL     1       4.734   6.047  18.874  0.00  0.00    +0.000 OA
ATOM      8  N   UNL     1       6.270   6.219  17.142  0.00  0.00    +0.000 N 
ENDROOT
BRANCH   8   9
ATOM      9  C   UNL     1       7.129   7.215  17.660  0.00  0.00    +0.000 A 
ATOM     10  C   UNL     1       7.055   8.512  17.125  0.00  0.00    +0.000 A 
ATOM     11  C   UNL     1       7.825   9.548  17.656  0.00  0.00    +0.000 A 
ATOM     12  C   UNL     1       8.697   9.292  18.708  0.00  0.00    +0.000 A 
ATOM     13 CL   UNL     1       9.654  10.569  19.348  0.00  0.00    +0.000 Cl
ATOM     14  C   UNL     1       8.812   8.008  19.233  0.00  0.00    +0.000 A 
ATOM     15  C   UNL     1       8.028   6.969  18.714  0.00  0.00    +0.000 A 
ATOM     16 CL   UNL     1       8.330   5.377  19.321  0.00  0.00    +0.000 Cl
ENDBRANCH   8   9
BRANCH   5  17
ATOM     17  N   UNL     1       3.651   3.706  17.447  0.00  0.00    +0.000 N 
ATOM     18  C   UNL     1       2.247   4.156  17.348  0.00  0.00    +0.000 C 
ATOM     19  C   UNL     1       1.514   3.821  18.650  0.00  0.00    +0.000 C 
ATOM     20  O   UNL     1       1.566   2.409  18.920  0.00  0.00    +0.000 OA
ATOM     21  C   UNL     1       2.930   1.966  19.027  0.00  0.00    +0.000 C 
ATOM     22  C   UNL     1       3.733   2.260  17.746  0.00  0.00    +0.000 C 
ENDBRANCH   5  17
TORSDOF 2
ENDMDL
MODEL 8
REMARK VINA RESULT:      -6.0      7.181      9.137
REMARK  Name = 
REMARK  2 active torsions:
REMARK  status: ('A' for Active; 'I' for Inactive)
REMARK    1  A    between atoms: C_5  and  N_6
REMARK    2  A    between atoms: N_14  and  C_15
REMARK                            x       y       z     vdW  Elec       q    Type
REMARK                         _______ _______ _______ _____ _____    ______ ____
ROOT
ATOM      1  O   UNL     1      -1.894  10.141  18.664  0.00  0.00    +0.000 OA
ATOM      2  C   UNL     1      -1.211  10.905  19.330  0.00  0.00    +0.000 C 
ATOM      3  C   UNL     1      -1.741  12.059  20.064  0.00  0.00    +0.000 C 
ATOM      4 CL   UNL     1      -3.345  12.578  19.853  0.00  0.00    +0.000 Cl
ATOM      5  C   UNL     1      -0.794  12.582  20.853  0.00  0.00    +0.000 C 
ATOM      6  C   UNL     1       0.419  11.727  20.616  0.00  0.00    +0.000 C 
ATOM      7  O   UNL     1       1.478  11.860  21.212  0.00  0.00    +0.000 OA
ATOM      8  N   UNL     1       0.110  10.803  19.662  0.00  0.00    +0.000 N 
ENDROOT
BRANCH   8   9
ATOM      9  C   UNL     1       0.911   9.685  19.336  0.00  0.00    +0.000 A 
ATOM     10  C   UNL     1       1.520   9.639  18.071  0.00  0.00    +0.000 A 
ATOM     11  C   UNL     1       2.384   8.596  17.731  0.00  0.00    +0.000 A 
ATOM     12  C   UNL     1       2.623   7.573  18.642  0.00  0.00    +0.000 A 
ATOM     13 CL   UNL     1       3.676   6.283  18.213  0.00  0.00    +0.000 Cl
ATOM     14  C   UNL     1       2.006   7.579  19.890  0.00  0.00    +0.000 A 
ATOM     15  C   UNL     1       1.152   8.634  20.241  0.00  0.00    +0.000 A 
ATOM     16 CL   UNL     1       0.312   8.498  21.747  0.00  0.00    +0.000 Cl
ENDBRANCH   8   9
BRANCH   5  17
ATOM     17  N   UNL     1      -0.804  13.650  21.742  0.00  0.00    +0.000 N 
ATOM     18  C   UNL     1      -1.146  13.525  23.174  0.00  0.00    +0.000 C 
ATOM     19  C   UNL     1      -2.095  14.661  23.569  0.00  0.00    +0.000 C 
ATOM     20  O   UNL     1      -1.497  15.944  23.309  0.00  0.00    +0.000 OA
ATOM     21  C   UNL     1      -1.169  16.075  21.916  0.00  0.00    +0.000 C 
ATOM     22  C   UNL     1      -0.205  14.969  21.444  0.00  0.00    +0.000 C 
ENDBRANCH   5  17
TORSDOF 2
ENDMDL
MODEL 9
REMARK VINA RESULT:      -6.0      7.078      9.057
REMARK  Name = 
REMARK  2 active torsions:
REMARK  status: ('A' for Active; 'I' for Inactive)
REMARK    1  A    between atoms: C_5  and  N_6
REMARK    2  A    between atoms: N_14  and  C_15
REMARK                            x       y       z     vdW  Elec       q    Type
REMARK                         _______ _______ _______ _____ _____    ______ ____
ROOT
ATOM      1  O   UNL     1      -1.954  10.022  18.537  0.00  0.00    +0.000 OA
ATOM      2  C   UNL     1      -1.302  10.831  19.182  0.00  0.00    +0.000 C 
ATOM      3  C   UNL     1      -1.875  11.999  19.859  0.00  0.00    +0.000 C 
ATOM      4 CL   UNL     1      -3.488  12.466  19.601  0.00  0.00    +0.000 Cl
ATOM      5  C   UNL     1      -0.955  12.579  20.640  0.00  0.00    +0.000 C 
ATOM      6  C   UNL     1       0.284  11.747  20.458  0.00  0.00    +0.000 C 
ATOM      7  O   UNL     1       1.328  11.934  21.065  0.00  0.00    +0.000 OA
ATOM      8  N   UNL     1       0.015  10.778  19.538  0.00  0.00    +0.000 N 
ENDROOT
BRANCH   8   9
ATOM      9  C   UNL     1       0.850   9.669  19.271  0.00  0.00    +0.000 A 
ATOM     10  C   UNL     1       1.493   9.595  18.024  0.00  0.00    +0.000 A 
ATOM     11  C   UNL     1       2.389   8.563  17.743  0.00  0.00    +0.000 A 
ATOM     12  C   UNL     1       2.629   7.578  18.694  0.00  0.00    +0.000 A 
ATOM     13 CL   UNL     1       3.723   6.300  18.336  0.00  0.00    +0.000 Cl
ATOM     14  C   UNL     1       1.980   7.611  19.925  0.00  0.00    +0.000 A 
ATOM     15  C   UNL     1       1.093   8.656  20.218  0.00  0.00    +0.000 A 
ATOM     16 CL   UNL     1       0.218   8.551  21.707  0.00  0.00    +0.000 Cl
ENDBRANCH   8   9
BRANCH   5  17
ATOM     17  N   UNL     1      -1.008  13.682  21.484  0.00  0.00    +0.000 N 
ATOM     18  C   UNL     1      -0.316  14.959  21.214  0.00  0.00    +0.000 C 
ATOM     19  C   UNL     1       0.376  15.441  22.493  0.00  0.00    +0.000 C 
ATOM     20  O   UNL     1      -0.574  15.605  23.561  0.00  0.00    +0.000 OA
ATOM     21  C   UNL     1      -1.245  14.363  23.835  0.00  0.00    +0.000 C 
ATOM     22  C   UNL     1      -1.977  13.818  22.594  0.00  0.00    +0.000 C 
ENDBRANCH   5  17
TORSDOF 2
ENDMDL
