MODEL 1
REMARK VINA RESULT:      -7.1      0.000      0.000
REMARK  Name = 
REMARK  12 active torsions:
REMARK  status: ('A' for Active; 'I' for Inactive)
REMARK    1  A    between atoms: C_2  and  C_3
REMARK    2  A    between atoms: C_3  and  C_4
REMARK    3  A    between atoms: C_3  and  C_5
REMARK    4  A    between atoms: C_3  and  C_16
REMARK    5  A    between atoms: C_6  and  C_7
REMARK    6  A    between atoms: C_10  and  O_11
REMARK    7  A    between atoms: O_11  and  C_12
REMARK    8  A    between atoms: C_13  and  O_14
REMARK    9  A    between atoms: C_16  and  C_17
REMARK   10  A    between atoms: C_17  and  C_18
REMARK   11  A    between atoms: C_19  and  C_20
REMARK   12  A    between atoms: C_19  and  C_21
REMARK                            x       y       z     vdW  Elec       q    Type
REMARK                         _______ _______ _______ _____ _____    ______ ____
ROOT
ATOM      1  C   UNL     1       2.854   5.234  18.271  0.00  0.00    +0.000 C 
ATOM      2  C   UNL     1       3.221   6.520  18.122  0.00  0.00    +0.000 C 
ENDROOT
BRANCH   2   3
ATOM      3  C   UNL     1       2.454   7.676  18.606  0.00  0.00    +0.000 A 
ATOM      4  C   UNL     1       2.102   8.743  17.767  0.00  0.00    +0.000 A 
ATOM      5  C   UNL     1       1.318   9.805  18.232  0.00  0.00    +0.000 A 
ATOM      6  C   UNL     1       0.854   9.807  19.546  0.00  0.00    +0.000 A 
ATOM      7  C   UNL     1       1.203   8.738  20.379  0.00  0.00    +0.000 A 
ATOM      8  C   UNL     1       1.988   7.682  19.927  0.00  0.00    +0.000 A 
BRANCH   6   9
ATOM      9  O   UNL     1       0.063  10.769  20.117  0.00  0.00    +0.000 OA
ATOM     10  C   UNL     1      -1.179  11.023  19.468  0.00  0.00    +0.000 C 
ENDBRANCH   6   9
BRANCH   7  11
ATOM     11  O   UNL     1       0.760   8.705  21.674  0.00  0.00    +0.000 OA
ATOM     12  H   UNL     1       0.301   9.557  21.806  0.00  0.00    +0.000 HD
ENDBRANCH   7  11
ENDBRANCH   2   3
BRANCH   1  13
ATOM     13  C   UNL     1       3.677   4.031  17.804  0.00  0.00    +0.000 C 
ATOM     14  C   UNL     1       2.690   2.935  17.331  0.00  0.00    +0.000 C 
BRANCH  13  16
ATOM     15  C   UNL     1       4.367   2.608  19.829  0.00  0.00    +0.000 C 
ATOM     16  C   UNL     1       4.587   3.589  18.945  0.00  0.00    +0.000 C 
ENDBRANCH  13  16
BRANCH  13  17
ATOM     17  C   UNL     1       4.566   4.479  16.601  0.00  0.00    +0.000 C 
BRANCH  17  18
ATOM     18  C   UNL     1       6.071   4.519  16.908  0.00  0.00    +0.000 C 
BRANCH  18  19
ATOM     19  C   UNL     1       6.643   5.906  16.826  0.00  0.00    +0.000 C 
ATOM     20  C   UNL     1       7.351   6.531  17.786  0.00  0.00    +0.000 C 
ATOM     21  C   UNL     1       7.774   5.894  19.083  0.00  0.00    +0.000 C 
ATOM     22  C   UNL     1       7.785   7.962  17.623  0.00  0.00    +0.000 C 
ENDBRANCH  18  19
ENDBRANCH  17  18
ENDBRANCH  13  17
ENDBRANCH   1  13
TORSDOF 8
ENDMDL
MODEL 2
REMARK VINA RESULT:      -7.0      3.492      6.507
REMARK  Name = 
REMARK  12 active torsions:
REMARK  status: ('A' for Active; 'I' for Inactive)
REMARK    1  A    between atoms: C_2  and  C_3
REMARK    2  A    between atoms: C_3  and  C_4
REMARK    3  A    between atoms: C_3  and  C_5
REMARK    4  A    between atoms: C_3  and  C_16
REMARK    5  A    between atoms: C_6  and  C_7
REMARK    6  A    between atoms: C_10  and  O_11
REMARK    7  A    between atoms: O_11  and  C_12
REMARK    8  A    between atoms: C_13  and  O_14
REMARK    9  A    between atoms: C_16  and  C_17
REMARK   10  A    between atoms: C_17  and  C_18
REMARK   11  A    between atoms: C_19  and  C_20
REMARK   12  A    between atoms: C_19  and  C_21
REMARK                            x       y       z     vdW  Elec       q    Type
REMARK                         _______ _______ _______ _____ _____    ______ ____
ROOT
ATOM      1  C   UNL     1       3.586   4.256  18.829  0.00  0.00    +0.000 C 
ATOM      2  C   UNL     1       3.650   4.051  17.500  0.00  0.00    +0.000 C 
ENDROOT
BRANCH   2   3
ATOM      3  C   UNL     1       4.816   4.347  16.658  0.00  0.00    +0.000 A 
ATOM      4  C   UNL     1       5.036   3.702  15.433  0.00  0.00    +0.000 A 
ATOM      5  C   UNL     1       6.120   4.044  14.616  0.00  0.00    +0.000 A 
ATOM      6  C   UNL     1       6.995   5.055  15.005  0.00  0.00    +0.000 A 
ATOM      7  C   UNL     1       6.771   5.701  16.225  0.00  0.00    +0.000 A 
ATOM      8  C   UNL     1       5.699   5.362  17.047  0.00  0.00    +0.000 A 
BRANCH   6   9
ATOM      9  O   UNL     1       8.077   5.500  14.290  0.00  0.00    +0.000 OA
ATOM     10  C   UNL     1       7.997   5.348  12.877  0.00  0.00    +0.000 C 
ENDBRANCH   6   9
BRANCH   7  11
ATOM     11  O   UNL     1       7.608   6.702  16.637  0.00  0.00    +0.000 OA
ATOM     12  H   UNL     1       8.199   6.284  17.293  0.00  0.00    +0.000 HD
ENDBRANCH   7  11
ENDBRANCH   2   3
BRANCH   1  13
ATOM     13  C   UNL     1       2.384   3.906  19.710  0.00  0.00    +0.000 C 
ATOM     14  C   UNL     1       2.844   2.848  20.743  0.00  0.00    +0.000 C 
BRANCH  13  16
ATOM     15  C   UNL     1       0.658   2.232  18.805  0.00  0.00    +0.000 C 
ATOM     16  C   UNL     1       1.243   3.436  18.815  0.00  0.00    +0.000 C 
ENDBRANCH  13  16
BRANCH  13  17
ATOM     17  C   UNL     1       1.931   5.198  20.462  0.00  0.00    +0.000 C 
BRANCH  17  18
ATOM     18  C   UNL     1       2.771   6.443  20.140  0.00  0.00    +0.000 C 
BRANCH  18  19
ATOM     19  C   UNL     1       1.949   7.566  19.571  0.00  0.00    +0.000 C 
ATOM     20  C   UNL     1       2.179   8.209  18.410  0.00  0.00    +0.000 C 
ATOM     21  C   UNL     1       3.259   7.839  17.430  0.00  0.00    +0.000 C 
ATOM     22  C   UNL     1       1.338   9.387  17.997  0.00  0.00    +0.000 C 
ENDBRANCH  18  19
ENDBRANCH  17  18
ENDBRANCH  13  17
ENDBRANCH   1  13
TORSDOF 8
ENDMDL
MODEL 3
REMARK VINA RESULT:      -6.9      0.965      1.625
REMARK  Name = 
REMARK  12 active torsions:
REMARK  status: ('A' for Active; 'I' for Inactive)
REMARK    1  A    between atoms: C_2  and  C_3
REMARK    2  A    between atoms: C_3  and  C_4
REMARK    3  A    between atoms: C_3  and  C_5
REMARK    4  A    between atoms: C_3  and  C_16
REMARK    5  A    between atoms: C_6  and  C_7
REMARK    6  A    between atoms: C_10  and  O_11
REMARK    7  A    between atoms: O_11  and  C_12
REMARK    8  A    between atoms: C_13  and  O_14
REMARK    9  A    between atoms: C_16  and  C_17
REMARK   10  A    between atoms: C_17  and  C_18
REMARK   11  A    between atoms: C_19  and  C_20
REMARK   12  A    between atoms: C_19  and  C_21
REMARK                            x       y       z     vdW  Elec       q    Type
REMARK                         _______ _______ _______ _____ _____    ______ ____
ROOT
ATOM      1  C   UNL     1       2.776   5.017  18.212  0.00  0.00    +0.000 C 
ATOM      2  C   UNL     1       3.222   6.116  18.848  0.00  0.00    +0.000 C 
ENDROOT
BRANCH   2   3
ATOM      3  C   UNL     1       2.427   7.326  19.098  0.00  0.00    +0.000 A 
ATOM      4  C   UNL     1       1.789   7.561  20.324  0.00  0.00    +0.000 A 
ATOM      5  C   UNL     1       1.089   8.749  20.562  0.00  0.00    +0.000 A 
ATOM      6  C   UNL     1       1.031   9.734  19.579  0.00  0.00    +0.000 A 
ATOM      7  C   UNL     1       1.672   9.499  18.358  0.00  0.00    +0.000 A 
ATOM      8  C   UNL     1       2.365   8.317  18.110  0.00  0.00    +0.000 A 
BRANCH   6   9
ATOM      9  O   UNL     1       0.400  10.947  19.692  0.00  0.00    +0.000 OA
ATOM     10  C   UNL     1       0.985  11.872  20.602  0.00  0.00    +0.000 C 
ENDBRANCH   6   9
BRANCH   7  11
ATOM     11  O   UNL     1       1.639  10.447  17.371  0.00  0.00    +0.000 OA
ATOM     12  H   UNL     1       0.824  10.259  16.867  0.00  0.00    +0.000 HD
ENDBRANCH   7  11
ENDBRANCH   2   3
BRANCH   1  13
ATOM     13  C   UNL     1       3.594   3.742  17.992  0.00  0.00    +0.000 C 
ATOM     14  C   UNL     1       2.629   2.638  17.494  0.00  0.00    +0.000 C 
BRANCH  13  16
ATOM     15  C   UNL     1       4.349   2.204  19.906  0.00  0.00    +0.000 C 
ATOM     16  C   UNL     1       4.312   3.393  19.291  0.00  0.00    +0.000 C 
ENDBRANCH  13  16
BRANCH  13  17
ATOM     17  C   UNL     1       4.664   4.027  16.891  0.00  0.00    +0.000 C 
BRANCH  17  18
ATOM     18  C   UNL     1       6.078   4.283  17.435  0.00  0.00    +0.000 C 
BRANCH  18  19
ATOM     19  C   UNL     1       6.566   5.676  17.150  0.00  0.00    +0.000 C 
ATOM     20  C   UNL     1       7.367   6.414  17.942  0.00  0.00    +0.000 C 
ATOM     21  C   UNL     1       7.991   5.921  19.219  0.00  0.00    +0.000 C 
ATOM     22  C   UNL     1       7.706   7.838  17.590  0.00  0.00    +0.000 C 
ENDBRANCH  18  19
ENDBRANCH  17  18
ENDBRANCH  13  17
ENDBRANCH   1  13
TORSDOF 8
ENDMDL
MODEL 4
REMARK VINA RESULT:      -6.8      1.428      3.881
REMARK  Name = 
REMARK  12 active torsions:
REMARK  status: ('A' for Active; 'I' for Inactive)
REMARK    1  A    between atoms: C_2  and  C_3
REMARK    2  A    between atoms: C_3  and  C_4
REMARK    3  A    between atoms: C_3  and  C_5
REMARK    4  A    between atoms: C_3  and  C_16
REMARK    5  A    between atoms: C_6  and  C_7
REMARK    6  A    between atoms: C_10  and  O_11
REMARK    7  A    between atoms: O_11  and  C_12
REMARK    8  A    between atoms: C_13  and  O_14
REMARK    9  A    between atoms: C_16  and  C_17
REMARK   10  A    between atoms: C_17  and  C_18
REMARK   11  A    between atoms: C_19  and  C_20
REMARK   12  A    between atoms: C_19  and  C_21
REMARK                            x       y       z     vdW  Elec       q    Type
REMARK                         _______ _______ _______ _____ _____    ______ ____
ROOT
ATOM      1  C   UNL     1       4.482   6.506  18.308  0.00  0.00    +0.000 C 
ATOM      2  C   UNL     1       3.363   7.047  17.790  0.00  0.00    +0.000 C 
ENDROOT
BRANCH   2   3
ATOM      3  C   UNL     1       2.391   7.852  18.540  0.00  0.00    +0.000 A 
ATOM      4  C   UNL     1       2.069   7.581  19.878  0.00  0.00    +0.000 A 
ATOM      5  C   UNL     1       1.188   8.399  20.593  0.00  0.00    +0.000 A 
ATOM      6  C   UNL     1       0.626   9.519  19.985  0.00  0.00    +0.000 A 
ATOM      7  C   UNL     1       0.952   9.791  18.652  0.00  0.00    +0.000 A 
ATOM      8  C   UNL     1       1.823   8.978  17.931  0.00  0.00    +0.000 A 
BRANCH   6   9
ATOM      9  O   UNL     1      -0.230  10.411  20.578  0.00  0.00    +0.000 OA
ATOM     10  C   UNL     1      -0.035  10.632  21.971  0.00  0.00    +0.000 C 
ENDBRANCH   6   9
BRANCH   7  11
ATOM     11  O   UNL     1       0.422  10.886  18.024  0.00  0.00    +0.000 OA
ATOM     12  H   UNL     1       1.191  11.360  17.652  0.00  0.00    +0.000 HD
ENDBRANCH   7  11
ENDBRANCH   2   3
BRANCH   1  13
ATOM     13  C   UNL     1       5.514   5.703  17.513  0.00  0.00    +0.000 C 
ATOM     14  C   UNL     1       6.894   6.379  17.707  0.00  0.00    +0.000 C 
BRANCH  13  16
ATOM     15  C   UNL     1       5.798   5.292  14.993  0.00  0.00    +0.000 C 
ATOM     16  C   UNL     1       5.063   5.633  16.058  0.00  0.00    +0.000 C 
ENDBRANCH  13  16
BRANCH  13  17
ATOM     17  C   UNL     1       5.564   4.254  18.091  0.00  0.00    +0.000 C 
BRANCH  17  18
ATOM     18  C   UNL     1       4.311   3.413  17.798  0.00  0.00    +0.000 C 
BRANCH  18  19
ATOM     19  C   UNL     1       3.349   3.385  18.953  0.00  0.00    +0.000 C 
ATOM     20  C   UNL     1       2.058   3.767  18.919  0.00  0.00    +0.000 C 
ATOM     21  C   UNL     1       1.330   4.203  17.676  0.00  0.00    +0.000 C 
ATOM     22  C   UNL     1       1.222   3.785  20.171  0.00  0.00    +0.000 C 
ENDBRANCH  18  19
ENDBRANCH  17  18
ENDBRANCH  13  17
ENDBRANCH   1  13
TORSDOF 8
ENDMDL
MODEL 5
REMARK VINA RESULT:      -6.8      1.419      3.757
REMARK  Name = 
REMARK  12 active torsions:
REMARK  status: ('A' for Active; 'I' for Inactive)
REMARK    1  A    between atoms: C_2  and  C_3
REMARK    2  A    between atoms: C_3  and  C_4
REMARK    3  A    between atoms: C_3  and  C_5
REMARK    4  A    between atoms: C_3  and  C_16
REMARK    5  A    between atoms: C_6  and  C_7
REMARK    6  A    between atoms: C_10  and  O_11
REMARK    7  A    between atoms: O_11  and  C_12
REMARK    8  A    between atoms: C_13  and  O_14
REMARK    9  A    between atoms: C_16  and  C_17
REMARK   10  A    between atoms: C_17  and  C_18
REMARK   11  A    between atoms: C_19  and  C_20
REMARK   12  A    between atoms: C_19  and  C_21
REMARK                            x       y       z     vdW  Elec       q    Type
REMARK                         _______ _______ _______ _____ _____    ______ ____
ROOT
ATOM      1  C   UNL     1       3.046   5.735  17.841  0.00  0.00    +0.000 C 
ATOM      2  C   UNL     1       3.333   6.933  18.384  0.00  0.00    +0.000 C 
ENDROOT
BRANCH   2   3
ATOM      3  C   UNL     1       2.342   7.967  18.712  0.00  0.00    +0.000 A 
ATOM      4  C   UNL     1       1.785   8.804  17.735  0.00  0.00    +0.000 A 
ATOM      5  C   UNL     1       0.796   9.740  18.059  0.00  0.00    +0.000 A 
ATOM      6  C   UNL     1       0.334   9.842  19.369  0.00  0.00    +0.000 A 
ATOM      7  C   UNL     1       0.889   9.003  20.341  0.00  0.00    +0.000 A 
ATOM      8  C   UNL     1       1.877   8.073  20.029  0.00  0.00    +0.000 A 
BRANCH   6   9
ATOM      9  O   UNL     1      -0.641  10.698  19.812  0.00  0.00    +0.000 OA
ATOM     10  C   UNL     1      -1.315  11.450  18.809  0.00  0.00    +0.000 C 
ENDBRANCH   6   9
BRANCH   7  11
ATOM     11  O   UNL     1       0.455   9.072  21.637  0.00  0.00    +0.000 OA
ATOM     12  H   UNL     1       1.167   9.537  22.118  0.00  0.00    +0.000 HD
ENDBRANCH   7  11
ENDBRANCH   2   3
BRANCH   1  13
ATOM     13  C   UNL     1       4.077   4.643  17.541  0.00  0.00    +0.000 C 
ATOM     14  C   UNL     1       5.018   4.528  18.766  0.00  0.00    +0.000 C 
BRANCH  13  16
ATOM     15  C   UNL     1       6.104   5.222  16.073  0.00  0.00    +0.000 C 
ATOM     16  C   UNL     1       4.796   4.993  16.243  0.00  0.00    +0.000 C 
ENDBRANCH  13  16
BRANCH  13  17
ATOM     17  C   UNL     1       3.320   3.291  17.344  0.00  0.00    +0.000 C 
BRANCH  17  18
ATOM     18  C   UNL     1       1.891   3.280  17.909  0.00  0.00    +0.000 C 
BRANCH  18  19
ATOM     19  C   UNL     1       1.803   2.610  19.251  0.00  0.00    +0.000 C 
ATOM     20  C   UNL     1       1.521   3.213  20.422  0.00  0.00    +0.000 C 
ATOM     21  C   UNL     1       1.147   4.664  20.565  0.00  0.00    +0.000 C 
ATOM     22  C   UNL     1       1.560   2.448  21.718  0.00  0.00    +0.000 C 
ENDBRANCH  18  19
ENDBRANCH  17  18
ENDBRANCH  13  17
ENDBRANCH   1  13
TORSDOF 8
ENDMDL
MODEL 6
REMARK VINA RESULT:      -6.8      1.803      4.095
REMARK  Name = 
REMARK  12 active torsions:
REMARK  status: ('A' for Active; 'I' for Inactive)
REMARK    1  A    between atoms: C_2  and  C_3
REMARK    2  A    between atoms: C_3  and  C_4
REMARK    3  A    between atoms: C_3  and  C_5
REMARK    4  A    between atoms: C_3  and  C_16
REMARK    5  A    between atoms: C_6  and  C_7
REMARK    6  A    between atoms: C_10  and  O_11
REMARK    7  A    between atoms: O_11  and  C_12
REMARK    8  A    between atoms: C_13  and  O_14
REMARK    9  A    between atoms: C_16  and  C_17
REMARK   10  A    between atoms: C_17  and  C_18
REMARK   11  A    between atoms: C_19  and  C_20
REMARK   12  A    between atoms: C_19  and  C_21
REMARK                            x       y       z     vdW  Elec       q    Type
REMARK                         _______ _______ _______ _____ _____    ______ ____
ROOT
ATOM      1  C   UNL     1       3.133   6.523  18.476  0.00  0.00    +0.000 C 
ATOM      2  C   UNL     1       2.706   7.715  18.019  0.00  0.00    +0.000 C 
ENDROOT
BRANCH   2   3
ATOM      3  C   UNL     1       1.715   8.568  18.689  0.00  0.00    +0.000 A 
ATOM      4  C   UNL     1       1.489   8.506  20.071  0.00  0.00    +0.000 A 
ATOM      5  C   UNL     1       0.586   9.372  20.699  0.00  0.00    +0.000 A 
ATOM      6  C   UNL     1      -0.095  10.331  19.953  0.00  0.00    +0.000 A 
ATOM      7  C   UNL     1       0.136  10.394  18.575  0.00  0.00    +0.000 A 
ATOM      8  C   UNL     1       1.027   9.532  17.941  0.00  0.00    +0.000 A 
BRANCH   6   9
ATOM      9  O   UNL     1      -0.985  11.249  20.446  0.00  0.00    +0.000 OA
ATOM     10  C   UNL     1      -1.001  11.405  21.861  0.00  0.00    +0.000 C 
ENDBRANCH   6   9
BRANCH   7  11
ATOM     11  O   UNL     1      -0.512  11.327  17.811  0.00  0.00    +0.000 OA
ATOM     12  H   UNL     1      -0.354  11.052  16.887  0.00  0.00    +0.000 HD
ENDBRANCH   7  11
ENDBRANCH   2   3
BRANCH   1  13
ATOM     13  C   UNL     1       4.197   5.657  17.797  0.00  0.00    +0.000 C 
ATOM     14  C   UNL     1       5.243   5.262  18.868  0.00  0.00    +0.000 C 
BRANCH  13  16
ATOM     15  C   UNL     1       5.441   5.940  15.566  0.00  0.00    +0.000 C 
ATOM     16  C   UNL     1       4.782   6.434  16.622  0.00  0.00    +0.000 C 
ENDBRANCH  13  16
BRANCH  13  17
ATOM     17  C   UNL     1       3.507   4.367  17.249  0.00  0.00    +0.000 C 
BRANCH  17  18
ATOM     18  C   UNL     1       2.072   4.156  17.755  0.00  0.00    +0.000 C 
BRANCH  18  19
ATOM     19  C   UNL     1       1.998   3.188  18.902  0.00  0.00    +0.000 C 
ATOM     20  C   UNL     1       1.662   3.486  20.172  0.00  0.00    +0.000 C 
ATOM     21  C   UNL     1       1.205   4.842  20.636  0.00  0.00    +0.000 C 
ATOM     22  C   UNL     1       1.721   2.442  21.255  0.00  0.00    +0.000 C 
ENDBRANCH  18  19
ENDBRANCH  17  18
ENDBRANCH  13  17
ENDBRANCH   1  13
TORSDOF 8
ENDMDL
MODEL 7
REMARK VINA RESULT:      -6.8      1.847      4.037
REMARK  Name = 
REMARK  12 active torsions:
REMARK  status: ('A' for Active; 'I' for Inactive)
REMARK    1  A    between atoms: C_2  and  C_3
REMARK    2  A    between atoms: C_3  and  C_4
REMARK    3  A    between atoms: C_3  and  C_5
REMARK    4  A    between atoms: C_3  and  C_16
REMARK    5  A    between atoms: C_6  and  C_7
REMARK    6  A    between atoms: C_10  and  O_11
REMARK    7  A    between atoms: O_11  and  C_12
REMARK    8  A    between atoms: C_13  and  O_14
REMARK    9  A    between atoms: C_16  and  C_17
REMARK   10  A    between atoms: C_17  and  C_18
REMARK   11  A    between atoms: C_19  and  C_20
REMARK   12  A    between atoms: C_19  and  C_21
REMARK                            x       y       z     vdW  Elec       q    Type
REMARK                         _______ _______ _______ _____ _____    ______ ____
ROOT
ATOM      1  C   UNL     1       3.522   5.473  17.557  0.00  0.00    +0.000 C 
ATOM      2  C   UNL     1       3.417   6.057  18.765  0.00  0.00    +0.000 C 
ENDROOT
BRANCH   2   3
ATOM      3  C   UNL     1       2.559   7.208  19.072  0.00  0.00    +0.000 A 
ATOM      4  C   UNL     1       1.946   7.371  20.323  0.00  0.00    +0.000 A 
ATOM      5  C   UNL     1       1.183   8.507  20.616  0.00  0.00    +0.000 A 
ATOM      6  C   UNL     1       1.035   9.513  19.663  0.00  0.00    +0.000 A 
ATOM      7  C   UNL     1       1.651   9.350  18.418  0.00  0.00    +0.000 A 
ATOM      8  C   UNL     1       2.406   8.220  18.116  0.00  0.00    +0.000 A 
BRANCH   6   9
ATOM      9  O   UNL     1       0.336  10.681  19.830  0.00  0.00    +0.000 OA
ATOM     10  C   UNL     1      -0.416  10.792  21.034  0.00  0.00    +0.000 C 
ENDBRANCH   6   9
BRANCH   7  11
ATOM     11  O   UNL     1       1.531  10.321  17.460  0.00  0.00    +0.000 OA
ATOM     12  H   UNL     1       0.840  10.924  17.797  0.00  0.00    +0.000 HD
ENDBRANCH   7  11
ENDBRANCH   2   3
BRANCH   1  13
ATOM     13  C   UNL     1       4.385   4.246  17.251  0.00  0.00    +0.000 C 
ATOM     14  C   UNL     1       5.354   4.038  18.441  0.00  0.00    +0.000 C 
BRANCH  13  16
ATOM     15  C   UNL     1       6.249   3.934  15.510  0.00  0.00    +0.000 C 
ATOM     16  C   UNL     1       5.089   4.464  15.916  0.00  0.00    +0.000 C 
ENDBRANCH  13  16
BRANCH  13  17
ATOM     17  C   UNL     1       3.449   3.003  17.125  0.00  0.00    +0.000 C 
BRANCH  17  18
ATOM     18  C   UNL     1       2.137   3.118  17.917  0.00  0.00    +0.000 C 
BRANCH  18  19
ATOM     19  C   UNL     1       2.244   2.544  19.302  0.00  0.00    +0.000 C 
ATOM     20  C   UNL     1       1.658   3.034  20.412  0.00  0.00    +0.000 C 
ATOM     21  C   UNL     1       0.708   4.201  20.429  0.00  0.00    +0.000 C 
ATOM     22  C   UNL     1       1.923   2.425  21.762  0.00  0.00    +0.000 C 
ENDBRANCH  18  19
ENDBRANCH  17  18
ENDBRANCH  13  17
ENDBRANCH   1  13
TORSDOF 8
ENDMDL
MODEL 8
REMARK VINA RESULT:      -6.8      1.467      3.681
REMARK  Name = 
REMARK  12 active torsions:
REMARK  status: ('A' for Active; 'I' for Inactive)
REMARK    1  A    between atoms: C_2  and  C_3
REMARK    2  A    between atoms: C_3  and  C_4
REMARK    3  A    between atoms: C_3  and  C_5
REMARK    4  A    between atoms: C_3  and  C_16
REMARK    5  A    between atoms: C_6  and  C_7
REMARK    6  A    between atoms: C_10  and  O_11
REMARK    7  A    between atoms: O_11  and  C_12
REMARK    8  A    between atoms: C_13  and  O_14
REMARK    9  A    between atoms: C_16  and  C_17
REMARK   10  A    between atoms: C_17  and  C_18
REMARK   11  A    between atoms: C_19  and  C_20
REMARK   12  A    between atoms: C_19  and  C_21
REMARK                            x       y       z     vdW  Elec       q    Type
REMARK                         _______ _______ _______ _____ _____    ______ ____
ROOT
ATOM      1  C   UNL     1       4.280   6.212  17.789  0.00  0.00    +0.000 C 
ATOM      2  C   UNL     1       2.958   6.365  17.991  0.00  0.00    +0.000 C 
ENDROOT
BRANCH   2   3
ATOM      3  C   UNL     1       2.326   7.559  18.569  0.00  0.00    +0.000 A 
ATOM      4  C   UNL     1       1.986   8.675  17.791  0.00  0.00    +0.000 A 
ATOM      5  C   UNL     1       1.328   9.776  18.350  0.00  0.00    +0.000 A 
ATOM      6  C   UNL     1       0.982   9.771  19.699  0.00  0.00    +0.000 A 
ATOM      7  C   UNL     1       1.318   8.655  20.472  0.00  0.00    +0.000 A 
ATOM      8  C   UNL     1       1.979   7.558  19.926  0.00  0.00    +0.000 A 
BRANCH   6   9
ATOM      9  O   UNL     1       0.319  10.772  20.362  0.00  0.00    +0.000 OA
ATOM     10  C   UNL     1       1.056  11.970  20.581  0.00  0.00    +0.000 C 
ENDBRANCH   6   9
BRANCH   7  11
ATOM     11  O   UNL     1       0.989   8.614  21.800  0.00  0.00    +0.000 OA
ATOM     12  H   UNL     1       0.785   7.676  21.981  0.00  0.00    +0.000 HD
ENDBRANCH   7  11
ENDBRANCH   2   3
BRANCH   1  13
ATOM     13  C   UNL     1       4.929   4.984  17.147  0.00  0.00    +0.000 C 
ATOM     14  C   UNL     1       6.113   4.548  18.045  0.00  0.00    +0.000 C 
BRANCH  13  16
ATOM     15  C   UNL     1       5.484   4.500  14.685  0.00  0.00    +0.000 C 
ATOM     16  C   UNL     1       5.337   5.336  15.720  0.00  0.00    +0.000 C 
ENDBRANCH  13  16
BRANCH  13  17
ATOM     17  C   UNL     1       3.871   3.836  17.096  0.00  0.00    +0.000 C 
BRANCH  17  18
ATOM     18  C   UNL     1       4.003   2.805  18.227  0.00  0.00    +0.000 C 
BRANCH  18  19
ATOM     19  C   UNL     1       3.250   3.203  19.465  0.00  0.00    +0.000 C 
ATOM     20  C   UNL     1       1.919   3.106  19.650  0.00  0.00    +0.000 C 
ATOM     21  C   UNL     1       0.965   2.484  18.667  0.00  0.00    +0.000 C 
ATOM     22  C   UNL     1       1.270   3.632  20.902  0.00  0.00    +0.000 C 
ENDBRANCH  18  19
ENDBRANCH  17  18
ENDBRANCH  13  17
ENDBRANCH   1  13
TORSDOF 8
ENDMDL
MODEL 9
REMARK VINA RESULT:      -6.8      1.498      2.286
REMARK  Name = 
REMARK  12 active torsions:
REMARK  status: ('A' for Active; 'I' for Inactive)
REMARK    1  A    between atoms: C_2  and  C_3
REMARK    2  A    between atoms: C_3  and  C_4
REMARK    3  A    between atoms: C_3  and  C_5
REMARK    4  A    between atoms: C_3  and  C_16
REMARK    5  A    between atoms: C_6  and  C_7
REMARK    6  A    between atoms: C_10  and  O_11
REMARK    7  A    between atoms: O_11  and  C_12
REMARK    8  A    between atoms: C_13  and  O_14
REMARK    9  A    between atoms: C_16  and  C_17
REMARK   10  A    between atoms: C_17  and  C_18
REMARK   11  A    between atoms: C_19  and  C_20
REMARK   12  A    between atoms: C_19  and  C_21
REMARK                            x       y       z     vdW  Elec       q    Type
REMARK                         _______ _______ _______ _____ _____    ______ ____
ROOT
ATOM      1  C   UNL     1       2.096   4.918  19.010  0.00  0.00    +0.000 C 
ATOM      2  C   UNL     1       2.755   6.071  19.232  0.00  0.00    +0.000 C 
ENDROOT
BRANCH   2   3
ATOM      3  C   UNL     1       2.123   7.390  19.367  0.00  0.00    +0.000 A 
ATOM      4  C   UNL     1       1.469   7.789  20.541  0.00  0.00    +0.000 A 
ATOM      5  C   UNL     1       0.928   9.074  20.670  0.00  0.00    +0.000 A 
ATOM      6  C   UNL     1       1.051   9.990  19.629  0.00  0.00    +0.000 A 
ATOM      7  C   UNL     1       1.708   9.591  18.460  0.00  0.00    +0.000 A 
ATOM      8  C   UNL     1       2.243   8.313  18.320  0.00  0.00    +0.000 A 
BRANCH   6   9
ATOM      9  O   UNL     1       0.589  11.281  19.636  0.00  0.00    +0.000 OA
ATOM     10  C   UNL     1       1.238  12.171  20.537  0.00  0.00    +0.000 C 
ENDBRANCH   6   9
BRANCH   7  11
ATOM     11  O   UNL     1       1.851  10.468  17.419  0.00  0.00    +0.000 OA
ATOM     12  H   UNL     1       2.349   9.974  16.739  0.00  0.00    +0.000 HD
ENDBRANCH   7  11
ENDBRANCH   2   3
BRANCH   1  13
ATOM     13  C   UNL     1       2.754   3.540  18.913  0.00  0.00    +0.000 C 
ATOM     14  C   UNL     1       2.616   3.048  17.451  0.00  0.00    +0.000 C 
BRANCH  13  16
ATOM     15  C   UNL     1       1.551   2.956  21.107  0.00  0.00    +0.000 C 
ATOM     16  C   UNL     1       2.104   2.615  19.937  0.00  0.00    +0.000 C 
ENDBRANCH  13  16
BRANCH  13  17
ATOM     17  C   UNL     1       4.268   3.690  19.266  0.00  0.00    +0.000 C 
BRANCH  17  18
ATOM     18  C   UNL     1       5.197   3.761  18.044  0.00  0.00    +0.000 C 
BRANCH  18  19
ATOM     19  C   UNL     1       6.179   4.896  18.128  0.00  0.00    +0.000 C 
ATOM     20  C   UNL     1       6.159   6.020  17.386  0.00  0.00    +0.000 C 
ATOM     21  C   UNL     1       5.076   6.372  16.402  0.00  0.00    +0.000 C 
ATOM     22  C   UNL     1       7.260   7.040  17.495  0.00  0.00    +0.000 C 
ENDBRANCH  18  19
ENDBRANCH  17  18
ENDBRANCH  13  17
ENDBRANCH   1  13
TORSDOF 8
ENDMDL
