MODEL 1
REMARK VINA RESULT:      -8.2      0.000      0.000
REMARK  Name = 
REMARK  5 active torsions:
REMARK  status: ('A' for Active; 'I' for Inactive)
REMARK    1  A    between atoms: C_1  and  O_2
REMARK    2  A    between atoms: O_2  and  C_3
REMARK    3  A    between atoms: C_6  and  C_7
REMARK    4  A    between atoms: C_19  and  O_20
REMARK    5  A    between atoms: O_20  and  C_21
REMARK                            x       y       z     vdW  Elec       q    Type
REMARK                         _______ _______ _______ _____ _____    ______ ____
ROOT
ATOM      1  C   UNL     1       3.125   6.778  18.451  0.00  0.00    +0.000 A 
ATOM      2  C   UNL     1       2.560   7.932  18.031  0.00  0.00    +0.000 A 
ATOM      3  C   UNL     1       1.599   8.668  18.849  0.00  0.00    +0.000 A 
ATOM      4  C   UNL     1       0.883   9.755  18.341  0.00  0.00    +0.000 A 
ATOM      5  C   UNL     1      -0.001  10.449  19.165  0.00  0.00    +0.000 A 
ATOM      6  C   UNL     1      -0.143  10.088  20.508  0.00  0.00    +0.000 A 
ATOM      7  C   UNL     1       0.570   9.002  21.018  0.00  0.00    +0.000 A 
ATOM      8  C   UNL     1       1.409   8.279  20.177  0.00  0.00    +0.000 A 
ATOM      9  N   UNL     1       2.015   7.105  20.629  0.00  0.00    +0.000 N 
ATOM     10  C   UNL     1       2.723   6.261  19.818  0.00  0.00    +0.000 A 
ATOM     11  O   UNL     1       3.022   5.137  20.218  0.00  0.00    +0.000 OA
ATOM     12  H   UNL     1       1.803   6.749  21.551  0.00  0.00    +0.000 HD
ENDROOT
BRANCH   1  16
ATOM     13  C   UNL     1       6.058   4.760  15.998  0.00  0.00    +0.000 A 
ATOM     14  C   UNL     1       4.815   4.175  16.269  0.00  0.00    +0.000 A 
ATOM     15  C   UNL     1       3.858   4.842  17.040  0.00  0.00    +0.000 A 
ATOM     16  C   UNL     1       4.131   6.081  17.619  0.00  0.00    +0.000 A 
ATOM     17  C   UNL     1       5.408   6.620  17.397  0.00  0.00    +0.000 A 
ATOM     18  C   UNL     1       6.376   5.982  16.605  0.00  0.00    +0.000 A 
BRANCH  13  20
ATOM     19  C   UNL     1       6.571   4.048  13.800  0.00  0.00    +0.000 C 
ATOM     20  O   UNL     1       6.962   4.143  15.173  0.00  0.00    +0.000 OA
ENDBRANCH  13  20
BRANCH  18  21
ATOM     21  O   UNL     1       7.528   6.717  16.546  0.00  0.00    +0.000 OA
ATOM     22  C   UNL     1       7.747   7.758  17.477  0.00  0.00    +0.000 C 
ENDBRANCH  18  21
ENDBRANCH   1  16
TORSDOF 3
ENDMDL
MODEL 2
REMARK VINA RESULT:      -8.0      2.501      7.180
REMARK  Name = 
REMARK  5 active torsions:
REMARK  status: ('A' for Active; 'I' for Inactive)
REMARK    1  A    between atoms: C_1  and  O_2
REMARK    2  A    between atoms: O_2  and  C_3
REMARK    3  A    between atoms: C_6  and  C_7
REMARK    4  A    between atoms: C_19  and  O_20
REMARK    5  A    between atoms: O_20  and  C_21
REMARK                            x       y       z     vdW  Elec       q    Type
REMARK                         _______ _______ _______ _____ _____    ______ ____
ROOT
ATOM      1  C   UNL     1       5.266   4.875  16.638  0.00  0.00    +0.000 A 
ATOM      2  C   UNL     1       5.042   4.095  15.556  0.00  0.00    +0.000 A 
ATOM      3  C   UNL     1       5.841   4.213  14.338  0.00  0.00    +0.000 A 
ATOM      4  C   UNL     1       5.493   3.538  13.165  0.00  0.00    +0.000 A 
ATOM      5  C   UNL     1       6.300   3.652  12.035  0.00  0.00    +0.000 A 
ATOM      6  C   UNL     1       7.477   4.405  12.083  0.00  0.00    +0.000 A 
ATOM      7  C   UNL     1       7.826   5.080  13.252  0.00  0.00    +0.000 A 
ATOM      8  C   UNL     1       6.989   5.007  14.361  0.00  0.00    +0.000 A 
ATOM      9  N   UNL     1       7.245   5.792  15.487  0.00  0.00    +0.000 N 
ATOM     10  C   UNL     1       6.386   5.892  16.547  0.00  0.00    +0.000 A 
ATOM     11  O   UNL     1       6.553   6.775  17.388  0.00  0.00    +0.000 OA
ATOM     12  H   UNL     1       8.009   6.454  15.480  0.00  0.00    +0.000 HD
ENDROOT
BRANCH   1  16
ATOM     13  C   UNL     1       2.961   4.377  20.262  0.00  0.00    +0.000 A 
ATOM     14  C   UNL     1       3.721   3.325  19.737  0.00  0.00    +0.000 A 
ATOM     15  C   UNL     1       4.487   3.497  18.580  0.00  0.00    +0.000 A 
ATOM     16  C   UNL     1       4.470   4.700  17.874  0.00  0.00    +0.000 A 
ATOM     17  C   UNL     1       3.646   5.720  18.374  0.00  0.00    +0.000 A 
ATOM     18  C   UNL     1       2.889   5.580  19.548  0.00  0.00    +0.000 A 
BRANCH  13  20
ATOM     19  C   UNL     1       1.564   3.002  21.589  0.00  0.00    +0.000 C 
ATOM     20  O   UNL     1       2.279   4.232  21.442  0.00  0.00    +0.000 OA
ENDBRANCH  13  20
BRANCH  18  21
ATOM     21  O   UNL     1       2.180   6.718  19.817  0.00  0.00    +0.000 OA
ATOM     22  C   UNL     1       2.235   7.810  18.920  0.00  0.00    +0.000 C 
ENDBRANCH  18  21
ENDBRANCH   1  16
TORSDOF 3
ENDMDL
MODEL 3
REMARK VINA RESULT:      -7.7      3.330      7.328
REMARK  Name = 
REMARK  5 active torsions:
REMARK  status: ('A' for Active; 'I' for Inactive)
REMARK    1  A    between atoms: C_1  and  O_2
REMARK    2  A    between atoms: O_2  and  C_3
REMARK    3  A    between atoms: C_6  and  C_7
REMARK    4  A    between atoms: C_19  and  O_20
REMARK    5  A    between atoms: O_20  and  C_21
REMARK                            x       y       z     vdW  Elec       q    Type
REMARK                         _______ _______ _______ _____ _____    ______ ____
ROOT
ATOM      1  C   UNL     1       5.272   4.825  16.518  0.00  0.00    +0.000 A 
ATOM      2  C   UNL     1       5.060   4.047  15.433  0.00  0.00    +0.000 A 
ATOM      3  C   UNL     1       5.861   4.177  14.217  0.00  0.00    +0.000 A 
ATOM      4  C   UNL     1       5.523   3.503  13.041  0.00  0.00    +0.000 A 
ATOM      5  C   UNL     1       6.332   3.630  11.913  0.00  0.00    +0.000 A 
ATOM      6  C   UNL     1       7.501   4.396  11.967  0.00  0.00    +0.000 A 
ATOM      7  C   UNL     1       7.839   5.070  13.140  0.00  0.00    +0.000 A 
ATOM      8  C   UNL     1       7.000   4.984  14.246  0.00  0.00    +0.000 A 
ATOM      9  N   UNL     1       7.244   5.768  15.375  0.00  0.00    +0.000 N 
ATOM     10  C   UNL     1       6.381   5.854  16.434  0.00  0.00    +0.000 A 
ATOM     11  O   UNL     1       6.536   6.736  17.278  0.00  0.00    +0.000 OA
ATOM     12  H   UNL     1       8.001   6.438  15.373  0.00  0.00    +0.000 HD
ENDROOT
BRANCH   1  16
ATOM     13  C   UNL     1       2.933   4.252  20.109  0.00  0.00    +0.000 A 
ATOM     14  C   UNL     1       2.609   5.253  19.186  0.00  0.00    +0.000 A 
ATOM     15  C   UNL     1       3.350   5.419  18.012  0.00  0.00    +0.000 A 
ATOM     16  C   UNL     1       4.475   4.637  17.751  0.00  0.00    +0.000 A 
ATOM     17  C   UNL     1       4.829   3.686  18.721  0.00  0.00    +0.000 A 
ATOM     18  C   UNL     1       4.084   3.483  19.895  0.00  0.00    +0.000 A 
BRANCH  13  20
ATOM     19  C   UNL     1       1.295   2.894  21.147  0.00  0.00    +0.000 C 
ATOM     20  O   UNL     1       2.155   4.036  21.216  0.00  0.00    +0.000 OA
ENDBRANCH  13  20
BRANCH  18  21
ATOM     21  O   UNL     1       4.637   2.499  20.665  0.00  0.00    +0.000 OA
ATOM     22  C   UNL     1       4.804   1.198  20.135  0.00  0.00    +0.000 C 
ENDBRANCH  18  21
ENDBRANCH   1  16
TORSDOF 3
ENDMDL
MODEL 4
REMARK VINA RESULT:      -7.6      1.302      2.381
REMARK  Name = 
REMARK  5 active torsions:
REMARK  status: ('A' for Active; 'I' for Inactive)
REMARK    1  A    between atoms: C_1  and  O_2
REMARK    2  A    between atoms: O_2  and  C_3
REMARK    3  A    between atoms: C_6  and  C_7
REMARK    4  A    between atoms: C_19  and  O_20
REMARK    5  A    between atoms: O_20  and  C_21
REMARK                            x       y       z     vdW  Elec       q    Type
REMARK                         _______ _______ _______ _____ _____    ______ ____
ROOT
ATOM      1  C   UNL     1       2.658   6.962  18.649  0.00  0.00    +0.000 A 
ATOM      2  C   UNL     1       2.243   8.161  18.181  0.00  0.00    +0.000 A 
ATOM      3  C   UNL     1       1.426   9.067  18.985  0.00  0.00    +0.000 A 
ATOM      4  C   UNL     1       0.851  10.216  18.437  0.00  0.00    +0.000 A 
ATOM      5  C   UNL     1       0.104  11.070  19.247  0.00  0.00    +0.000 A 
ATOM      6  C   UNL     1      -0.035  10.804  20.612  0.00  0.00    +0.000 A 
ATOM      7  C   UNL     1       0.538   9.657  21.161  0.00  0.00    +0.000 A 
ATOM      8  C   UNL     1       1.236   8.779  20.338  0.00  0.00    +0.000 A 
ATOM      9  N   UNL     1       1.688   7.556  20.838  0.00  0.00    +0.000 N 
ATOM     10  C   UNL     1       2.241   6.580  20.055  0.00  0.00    +0.000 A 
ATOM     11  O   UNL     1       2.395   5.447  20.510  0.00  0.00    +0.000 OA
ATOM     12  H   UNL     1       1.465   7.283  21.785  0.00  0.00    +0.000 HD
ENDROOT
BRANCH   1  16
ATOM     13  C   UNL     1       5.204   4.401  16.272  0.00  0.00    +0.000 A 
ATOM     14  C   UNL     1       5.280   5.796  16.168  0.00  0.00    +0.000 A 
ATOM     15  C   UNL     1       4.474   6.622  16.958  0.00  0.00    +0.000 A 
ATOM     16  C   UNL     1       3.524   6.087  17.828  0.00  0.00    +0.000 A 
ATOM     17  C   UNL     1       3.411   4.688  17.866  0.00  0.00    +0.000 A 
ATOM     18  C   UNL     1       4.227   3.838  17.102  0.00  0.00    +0.000 A 
BRANCH  13  20
ATOM     19  C   UNL     1       6.261   3.979  14.197  0.00  0.00    +0.000 C 
ATOM     20  O   UNL     1       6.053   3.595  15.559  0.00  0.00    +0.000 OA
ENDBRANCH  13  20
BRANCH  18  21
ATOM     21  O   UNL     1       3.918   2.525  17.327  0.00  0.00    +0.000 OA
ATOM     22  C   UNL     1       2.652   2.180  17.854  0.00  0.00    +0.000 C 
ENDBRANCH  18  21
ENDBRANCH   1  16
TORSDOF 3
ENDMDL
MODEL 5
REMARK VINA RESULT:      -7.5      2.077      3.577
REMARK  Name = 
REMARK  5 active torsions:
REMARK  status: ('A' for Active; 'I' for Inactive)
REMARK    1  A    between atoms: C_1  and  O_2
REMARK    2  A    between atoms: O_2  and  C_3
REMARK    3  A    between atoms: C_6  and  C_7
REMARK    4  A    between atoms: C_19  and  O_20
REMARK    5  A    between atoms: O_20  and  C_21
REMARK                            x       y       z     vdW  Elec       q    Type
REMARK                         _______ _______ _______ _____ _____    ______ ____
ROOT
ATOM      1  C   UNL     1       2.109   7.827  19.028  0.00  0.00    +0.000 A 
ATOM      2  C   UNL     1       1.740   7.717  20.325  0.00  0.00    +0.000 A 
ATOM      3  C   UNL     1       0.977   8.761  21.005  0.00  0.00    +0.000 A 
ATOM      4  C   UNL     1       0.756   8.728  22.384  0.00  0.00    +0.000 A 
ATOM      5  C   UNL     1      -0.004   9.728  22.989  0.00  0.00    +0.000 A 
ATOM      6  C   UNL     1      -0.581  10.739  22.214  0.00  0.00    +0.000 A 
ATOM      7  C   UNL     1      -0.361  10.775  20.837  0.00  0.00    +0.000 A 
ATOM      8  C   UNL     1       0.443   9.806  20.247  0.00  0.00    +0.000 A 
ATOM      9  N   UNL     1       0.794   9.910  18.900  0.00  0.00    +0.000 N 
ATOM     10  C   UNL     1       1.702   9.087  18.291  0.00  0.00    +0.000 A 
ATOM     11  O   UNL     1       2.142   9.379  17.180  0.00  0.00    +0.000 OA
ATOM     12  H   UNL     1       0.507  10.717  18.362  0.00  0.00    +0.000 HD
ENDROOT
BRANCH   1  16
ATOM     13  C   UNL     1       4.251   4.613  17.085  0.00  0.00    +0.000 A 
ATOM     14  C   UNL     1       4.814   5.890  17.206  0.00  0.00    +0.000 A 
ATOM     15  C   UNL     1       4.130   6.920  17.859  0.00  0.00    +0.000 A 
ATOM     16  C   UNL     1       2.840   6.731  18.355  0.00  0.00    +0.000 A 
ATOM     17  C   UNL     1       2.262   5.467  18.161  0.00  0.00    +0.000 A 
ATOM     18  C   UNL     1       2.939   4.409  17.532  0.00  0.00    +0.000 A 
BRANCH  13  20
ATOM     19  C   UNL     1       5.866   3.961  15.483  0.00  0.00    +0.000 C 
ATOM     20  O   UNL     1       4.956   3.583  16.520  0.00  0.00    +0.000 OA
ENDBRANCH  13  20
BRANCH  18  21
ATOM     21  O   UNL     1       2.158   3.288  17.475  0.00  0.00    +0.000 OA
ATOM     22  C   UNL     1       1.173   3.065  18.465  0.00  0.00    +0.000 C 
ENDBRANCH  18  21
ENDBRANCH   1  16
TORSDOF 3
ENDMDL
MODEL 6
REMARK VINA RESULT:      -7.5      3.749      7.497
REMARK  Name = 
REMARK  5 active torsions:
REMARK  status: ('A' for Active; 'I' for Inactive)
REMARK    1  A    between atoms: C_1  and  O_2
REMARK    2  A    between atoms: O_2  and  C_3
REMARK    3  A    between atoms: C_6  and  C_7
REMARK    4  A    between atoms: C_19  and  O_20
REMARK    5  A    between atoms: O_20  and  C_21
REMARK                            x       y       z     vdW  Elec       q    Type
REMARK                         _______ _______ _______ _____ _____    ______ ____
ROOT
ATOM      1  C   UNL     1       5.225   4.858  16.430  0.00  0.00    +0.000 A 
ATOM      2  C   UNL     1       5.026   4.060  15.357  0.00  0.00    +0.000 A 
ATOM      3  C   UNL     1       5.851   4.157  14.155  0.00  0.00    +0.000 A 
ATOM      4  C   UNL     1       5.529   3.462  12.986  0.00  0.00    +0.000 A 
ATOM      5  C   UNL     1       6.360   3.558  11.872  0.00  0.00    +0.000 A 
ATOM      6  C   UNL     1       7.536   4.312  11.933  0.00  0.00    +0.000 A 
ATOM      7  C   UNL     1       7.859   5.008  13.098  0.00  0.00    +0.000 A 
ATOM      8  C   UNL     1       6.997   4.953  14.189  0.00  0.00    +0.000 A 
ATOM      9  N   UNL     1       7.228   5.757  15.307  0.00  0.00    +0.000 N 
ATOM     10  C   UNL     1       6.346   5.874  16.346  0.00  0.00    +0.000 A 
ATOM     11  O   UNL     1       6.494   6.772  17.175  0.00  0.00    +0.000 OA
ATOM     12  H   UNL     1       7.991   6.420  15.305  0.00  0.00    +0.000 HD
ENDROOT
BRANCH   1  16
ATOM     13  C   UNL     1       2.810   4.429  19.990  0.00  0.00    +0.000 A 
ATOM     14  C   UNL     1       4.149   4.831  20.068  0.00  0.00    +0.000 A 
ATOM     15  C   UNL     1       4.919   4.995  18.913  0.00  0.00    +0.000 A 
ATOM     16  C   UNL     1       4.402   4.703  17.651  0.00  0.00    +0.000 A 
ATOM     17  C   UNL     1       3.081   4.231  17.597  0.00  0.00    +0.000 A 
ATOM     18  C   UNL     1       2.279   4.083  18.741  0.00  0.00    +0.000 A 
BRANCH  13  20
ATOM     19  C   UNL     1       2.118   3.116  21.834  0.00  0.00    +0.000 C 
ATOM     20  O   UNL     1       2.032   4.350  21.116  0.00  0.00    +0.000 OA
ENDBRANCH  13  20
BRANCH  18  21
ATOM     21  O   UNL     1       1.038   3.614  18.414  0.00  0.00    +0.000 OA
ATOM     22  C   UNL     1       0.711   2.259  18.653  0.00  0.00    +0.000 C 
ENDBRANCH  18  21
ENDBRANCH   1  16
TORSDOF 3
ENDMDL
MODEL 7
REMARK VINA RESULT:      -7.4      2.943      4.106
REMARK  Name = 
REMARK  5 active torsions:
REMARK  status: ('A' for Active; 'I' for Inactive)
REMARK    1  A    between atoms: C_1  and  O_2
REMARK    2  A    between atoms: O_2  and  C_3
REMARK    3  A    between atoms: C_6  and  C_7
REMARK    4  A    between atoms: C_19  and  O_20
REMARK    5  A    between atoms: O_20  and  C_21
REMARK                            x       y       z     vdW  Elec       q    Type
REMARK                         _______ _______ _______ _____ _____    ______ ____
ROOT
ATOM      1  C   UNL     1       4.139   4.657  17.993  0.00  0.00    +0.000 A 
ATOM      2  C   UNL     1       4.224   3.605  18.839  0.00  0.00    +0.000 A 
ATOM      3  C   UNL     1       3.202   3.339  19.849  0.00  0.00    +0.000 A 
ATOM      4  C   UNL     1       3.383   2.365  20.836  0.00  0.00    +0.000 A 
ATOM      5  C   UNL     1       2.370   2.121  21.762  0.00  0.00    +0.000 A 
ATOM      6  C   UNL     1       1.159   2.816  21.681  0.00  0.00    +0.000 A 
ATOM      7  C   UNL     1       0.977   3.788  20.698  0.00  0.00    +0.000 A 
ATOM      8  C   UNL     1       2.012   4.067  19.811  0.00  0.00    +0.000 A 
ATOM      9  N   UNL     1       1.903   5.135  18.918  0.00  0.00    +0.000 N 
ATOM     10  C   UNL     1       2.933   5.565  18.128  0.00  0.00    +0.000 A 
ATOM     11  O   UNL     1       2.849   6.648  17.548  0.00  0.00    +0.000 OA
ATOM     12  H   UNL     1       1.094   5.741  18.949  0.00  0.00    +0.000 HD
ENDROOT
BRANCH   1  16
ATOM     13  C   UNL     1       7.124   5.309  14.935  0.00  0.00    +0.000 A 
ATOM     14  C   UNL     1       6.176   4.286  14.814  0.00  0.00    +0.000 A 
ATOM     15  C   UNL     1       5.194   4.095  15.791  0.00  0.00    +0.000 A 
ATOM     16  C   UNL     1       5.165   4.872  16.949  0.00  0.00    +0.000 A 
ATOM     17  C   UNL     1       6.168   5.845  17.088  0.00  0.00    +0.000 A 
ATOM     18  C   UNL     1       7.148   6.074  16.108  0.00  0.00    +0.000 A 
BRANCH  13  20
ATOM     19  C   UNL     1       7.664   5.058  12.644  0.00  0.00    +0.000 C 
ATOM     20  O   UNL     1       8.032   5.549  13.936  0.00  0.00    +0.000 OA
ENDBRANCH  13  20
BRANCH  18  21
ATOM     21  O   UNL     1       7.998   7.075  16.485  0.00  0.00    +0.000 OA
ATOM     22  C   UNL     1       7.712   7.847  17.636  0.00  0.00    +0.000 C 
ENDBRANCH  18  21
ENDBRANCH   1  16
TORSDOF 3
ENDMDL
MODEL 8
REMARK VINA RESULT:      -7.4      2.571      7.344
REMARK  Name = 
REMARK  5 active torsions:
REMARK  status: ('A' for Active; 'I' for Inactive)
REMARK    1  A    between atoms: C_1  and  O_2
REMARK    2  A    between atoms: O_2  and  C_3
REMARK    3  A    between atoms: C_6  and  C_7
REMARK    4  A    between atoms: C_19  and  O_20
REMARK    5  A    between atoms: O_20  and  C_21
REMARK                            x       y       z     vdW  Elec       q    Type
REMARK                         _______ _______ _______ _____ _____    ______ ____
ROOT
ATOM      1  C   UNL     1       5.098   5.350  16.264  0.00  0.00    +0.000 A 
ATOM      2  C   UNL     1       4.738   4.509  15.269  0.00  0.00    +0.000 A 
ATOM      3  C   UNL     1       5.575   4.298  14.090  0.00  0.00    +0.000 A 
ATOM      4  C   UNL     1       5.118   3.574  12.986  0.00  0.00    +0.000 A 
ATOM      5  C   UNL     1       5.961   3.369  11.895  0.00  0.00    +0.000 A 
ATOM      6  C   UNL     1       7.274   3.849  11.919  0.00  0.00    +0.000 A 
ATOM      7  C   UNL     1       7.732   4.573  13.020  0.00  0.00    +0.000 A 
ATOM      8  C   UNL     1       6.870   4.822  14.083  0.00  0.00    +0.000 A 
ATOM      9  N   UNL     1       7.262   5.666  15.123  0.00  0.00    +0.000 N 
ATOM     10  C   UNL     1       6.418   6.081  16.117  0.00  0.00    +0.000 A 
ATOM     11  O   UNL     1       6.753   7.004  16.858  0.00  0.00    +0.000 OA
ATOM     12  H   UNL     1       8.154   6.141  15.081  0.00  0.00    +0.000 HD
ENDROOT
BRANCH   1  16
ATOM     13  C   UNL     1       2.601   5.790  19.766  0.00  0.00    +0.000 A 
ATOM     14  C   UNL     1       2.781   6.849  18.867  0.00  0.00    +0.000 A 
ATOM     15  C   UNL     1       3.566   6.695  17.721  0.00  0.00    +0.000 A 
ATOM     16  C   UNL     1       4.251   5.506  17.467  0.00  0.00    +0.000 A 
ATOM     17  C   UNL     1       4.118   4.480  18.416  0.00  0.00    +0.000 A 
ATOM     18  C   UNL     1       3.313   4.602  19.561  0.00  0.00    +0.000 A 
BRANCH  13  20
ATOM     19  C   UNL     1       1.227   7.225  21.052  0.00  0.00    +0.000 C 
ATOM     20  O   UNL     1       1.764   5.916  20.843  0.00  0.00    +0.000 OA
ENDBRANCH  13  20
BRANCH  18  21
ATOM     21  O   UNL     1       3.354   3.462  20.315  0.00  0.00    +0.000 OA
ATOM     22  C   UNL     1       4.261   2.429  19.983  0.00  0.00    +0.000 C 
ENDBRANCH  18  21
ENDBRANCH   1  16
TORSDOF 3
ENDMDL
MODEL 9
REMARK VINA RESULT:      -7.4      2.382      3.232
REMARK  Name = 
REMARK  5 active torsions:
REMARK  status: ('A' for Active; 'I' for Inactive)
REMARK    1  A    between atoms: C_1  and  O_2
REMARK    2  A    between atoms: O_2  and  C_3
REMARK    3  A    between atoms: C_6  and  C_7
REMARK    4  A    between atoms: C_19  and  O_20
REMARK    5  A    between atoms: O_20  and  C_21
REMARK                            x       y       z     vdW  Elec       q    Type
REMARK                         _______ _______ _______ _____ _____    ______ ____
ROOT
ATOM      1  C   UNL     1       1.986   7.491  19.426  0.00  0.00    +0.000 A 
ATOM      2  C   UNL     1       1.440   7.631  20.656  0.00  0.00    +0.000 A 
ATOM      3  C   UNL     1       0.798   8.873  21.082  0.00  0.00    +0.000 A 
ATOM      4  C   UNL     1       0.401   9.076  22.406  0.00  0.00    +0.000 A 
ATOM      5  C   UNL     1      -0.237  10.263  22.763  0.00  0.00    +0.000 A 
ATOM      6  C   UNL     1      -0.518  11.231  21.795  0.00  0.00    +0.000 A 
ATOM      7  C   UNL     1      -0.121  11.031  20.472  0.00  0.00    +0.000 A 
ATOM      8  C   UNL     1       0.564   9.869  20.132  0.00  0.00    +0.000 A 
ATOM      9  N   UNL     1       1.097   9.718  18.850  0.00  0.00    +0.000 N 
ATOM     10  C   UNL     1       1.912   8.680  18.490  0.00  0.00    +0.000 A 
ATOM     11  O   UNL     1       2.536   8.732  17.430  0.00  0.00    +0.000 OA
ATOM     12  H   UNL     1       1.032  10.474  18.182  0.00  0.00    +0.000 HD
ENDROOT
BRANCH   1  16
ATOM     13  C   UNL     1       3.755   3.747  18.183  0.00  0.00    +0.000 A 
ATOM     14  C   UNL     1       2.404   4.026  17.941  0.00  0.00    +0.000 A 
ATOM     15  C   UNL     1       1.842   5.248  18.319  0.00  0.00    +0.000 A 
ATOM     16  C   UNL     1       2.587   6.205  19.008  0.00  0.00    +0.000 A 
ATOM     17  C   UNL     1       3.920   5.880  19.308  0.00  0.00    +0.000 A 
ATOM     18  C   UNL     1       4.514   4.670  18.914  0.00  0.00    +0.000 A 
BRANCH  13  20
ATOM     19  C   UNL     1       3.711   1.381  18.207  0.00  0.00    +0.000 C 
ATOM     20  O   UNL     1       4.325   2.584  17.736  0.00  0.00    +0.000 OA
ENDBRANCH  13  20
BRANCH  18  21
ATOM     21  O   UNL     1       5.816   4.604  19.325  0.00  0.00    +0.000 OA
ATOM     22  C   UNL     1       6.832   5.206  18.546  0.00  0.00    +0.000 C 
ENDBRANCH  18  21
ENDBRANCH   1  16
TORSDOF 3
ENDMDL
