MODEL 1
REMARK VINA RESULT:      -7.2      0.000      0.000
REMARK  Name = 
REMARK  8 active torsions:
REMARK  status: ('A' for Active; 'I' for Inactive)
REMARK    1  A    between atoms: C_1  and  C_2
REMARK    2  A    between atoms: C_2  and  C_3
REMARK    3  A    between atoms: C_3  and  C_4
REMARK    4  A    between atoms: C_4  and  C_5
REMARK    5  A    between atoms: C_5  and  S_6
REMARK    6  A    between atoms: N_7  and  C_8
REMARK    7  A    between atoms: C_8  and  C_9
REMARK    8  A    between atoms: N_11  and  C_12
REMARK                            x       y       z     vdW  Elec       q    Type
REMARK                         _______ _______ _______ _____ _____    ______ ____
ROOT
ATOM      1  C   UNL     1       4.003   3.839  18.804  0.00  0.00    +0.000 C 
ATOM      2  C   UNL     1       4.017   5.322  19.091  0.00  0.00    +0.000 C 
ATOM      3  N   UNL     1       2.677   5.718  18.776  0.00  0.00    +0.000 N 
ATOM      4  C   UNL     1       2.087   4.740  17.987  0.00  0.00    +0.000 C 
ATOM      5  O   UNL     1       1.007   4.772  17.416  0.00  0.00    +0.000 OA
ATOM      6  O   UNL     1       2.934   3.675  17.863  0.00  0.00    +0.000 OA
ENDROOT
BRANCH   3   7
ATOM      7  C   UNL     1       2.142   6.989  19.084  0.00  0.00    +0.000 A 
ATOM      8  C   UNL     1       2.045   7.992  18.117  0.00  0.00    +0.000 A 
ATOM      9  C   UNL     1       1.523   9.247  18.436  0.00  0.00    +0.000 A 
ATOM     10  F   UNL     1       1.471  10.164  17.457  0.00  0.00    +0.000 F 
ATOM     11  C   UNL     1       1.087   9.568  19.728  0.00  0.00    +0.000 A 
ATOM     12  C   UNL     1       1.170   8.543  20.689  0.00  0.00    +0.000 A 
ATOM     13  C   UNL     1       1.683   7.278  20.375  0.00  0.00    +0.000 A 
ATOM     14  O   UNL     1       0.763   8.704  21.999  0.00  0.00    +0.000 OA
ATOM     15  C   UNL     1      -0.174   9.784  22.141  0.00  0.00    +0.000 C 
ATOM     16  C   UNL     1       0.337  11.066  21.482  0.00  0.00    +0.000 C 
ATOM     17  C   UNL     1      -0.687  12.196  21.493  0.00  0.00    +0.000 C 
ATOM     18  C   UNL     1      -0.917  12.609  20.042  0.00  0.00    +0.000 C 
ATOM     19  C   UNL     1      -0.089  11.683  19.160  0.00  0.00    +0.000 C 
ATOM     20  N   UNL     1       0.633  10.829  20.080  0.00  0.00    +0.000 N 
ENDBRANCH   3   7
BRANCH   1  21
ATOM     21  C   UNL     1       5.321   3.352  18.203  0.00  0.00    +0.000 C 
BRANCH  21  23
ATOM     22  C   UNL     1       6.101   4.203  16.120  0.00  0.00    +0.000 C 
ATOM     23  N   UNL     1       5.246   3.482  16.751  0.00  0.00    +0.000 NA
BRANCH  22  24
ATOM     24  S   UNL     1       5.905   4.220  14.372  0.00  0.00    +0.000 S 
ATOM     25  H   UNL     1       5.930   5.536  14.154  0.00  0.00    +0.000 HD
ENDBRANCH  22  24
BRANCH  22  26
ATOM     26  C   UNL     1       7.290   4.913  16.753  0.00  0.00    +0.000 C 
BRANCH  26  27
ATOM     27  C   UNL     1       7.253   6.430  16.918  0.00  0.00    +0.000 C 
BRANCH  27  29
ATOM     28  C   UNL     1       7.860   5.741  19.254  0.00  0.00    +0.000 C 
ATOM     29  C   UNL     1       7.760   6.904  18.280  0.00  0.00    +0.000 C 
ENDBRANCH  27  29
ENDBRANCH  26  27
ENDBRANCH  22  26
ENDBRANCH  21  23
ENDBRANCH   1  21
TORSDOF 7
ENDMDL
MODEL 2
REMARK VINA RESULT:      -7.2      1.521      2.151
REMARK  Name = 
REMARK  8 active torsions:
REMARK  status: ('A' for Active; 'I' for Inactive)
REMARK    1  A    between atoms: C_1  and  C_2
REMARK    2  A    between atoms: C_2  and  C_3
REMARK    3  A    between atoms: C_3  and  C_4
REMARK    4  A    between atoms: C_4  and  C_5
REMARK    5  A    between atoms: C_5  and  S_6
REMARK    6  A    between atoms: N_7  and  C_8
REMARK    7  A    between atoms: C_8  and  C_9
REMARK    8  A    between atoms: N_11  and  C_12
REMARK                            x       y       z     vdW  Elec       q    Type
REMARK                         _______ _______ _______ _____ _____    ______ ____
ROOT
ATOM      1  C   UNL     1       3.971   4.009  19.230  0.00  0.00    +0.000 C 
ATOM      2  C   UNL     1       3.938   5.468  19.620  0.00  0.00    +0.000 C 
ATOM      3  N   UNL     1       2.646   5.888  19.166  0.00  0.00    +0.000 N 
ATOM      4  C   UNL     1       2.169   4.970  18.241  0.00  0.00    +0.000 C 
ATOM      5  O   UNL     1       1.169   5.044  17.541  0.00  0.00    +0.000 OA
ATOM      6  O   UNL     1       3.032   3.914  18.150  0.00  0.00    +0.000 OA
ENDROOT
BRANCH   3   7
ATOM      7  C   UNL     1       2.068   7.135  19.492  0.00  0.00    +0.000 A 
ATOM      8  C   UNL     1       1.390   7.331  20.697  0.00  0.00    +0.000 A 
ATOM      9  C   UNL     1       0.815   8.566  21.004  0.00  0.00    +0.000 A 
ATOM     10  F   UNL     1       0.172   8.675  22.177  0.00  0.00    +0.000 F 
ATOM     11  C   UNL     1       0.875   9.656  20.126  0.00  0.00    +0.000 A 
ATOM     12  C   UNL     1       1.578   9.453  18.923  0.00  0.00    +0.000 A 
ATOM     13  C   UNL     1       2.165   8.221  18.612  0.00  0.00    +0.000 A 
ATOM     14  O   UNL     1       1.735  10.438  17.968  0.00  0.00    +0.000 OA
ATOM     15  C   UNL     1       1.569  11.753  18.521  0.00  0.00    +0.000 C 
ATOM     16  C   UNL     1       0.276  11.867  19.331  0.00  0.00    +0.000 C 
ATOM     17  C   UNL     1       0.132  13.206  20.046  0.00  0.00    +0.000 C 
ATOM     18  C   UNL     1      -0.021  12.908  21.534  0.00  0.00    +0.000 C 
ATOM     19  C   UNL     1       0.104  11.401  21.720  0.00  0.00    +0.000 C 
ATOM     20  N   UNL     1       0.250  10.866  20.382  0.00  0.00    +0.000 N 
ENDBRANCH   3   7
BRANCH   1  21
ATOM     21  C   UNL     1       5.358   3.563  18.768  0.00  0.00    +0.000 C 
BRANCH  21  23
ATOM     22  C   UNL     1       6.524   4.549  16.940  0.00  0.00    +0.000 C 
ATOM     23  N   UNL     1       5.504   3.887  17.352  0.00  0.00    +0.000 NA
BRANCH  22  24
ATOM     24  S   UNL     1       6.577   4.817  15.203  0.00  0.00    +0.000 S 
ATOM     25  H   UNL     1       5.327   5.233  14.999  0.00  0.00    +0.000 HD
ENDBRANCH  22  24
BRANCH  22  26
ATOM     26  C   UNL     1       7.695   4.990  17.808  0.00  0.00    +0.000 C 
BRANCH  26  27
ATOM     27  C   UNL     1       7.652   6.361  18.478  0.00  0.00    +0.000 C 
BRANCH  27  29
ATOM     28  C   UNL     1       8.219   8.766  18.041  0.00  0.00    +0.000 C 
ATOM     29  C   UNL     1       7.552   7.518  17.485  0.00  0.00    +0.000 C 
ENDBRANCH  27  29
ENDBRANCH  26  27
ENDBRANCH  22  26
ENDBRANCH  21  23
ENDBRANCH   1  21
TORSDOF 7
ENDMDL
MODEL 3
REMARK VINA RESULT:      -7.2      1.488      2.176
REMARK  Name = 
REMARK  8 active torsions:
REMARK  status: ('A' for Active; 'I' for Inactive)
REMARK    1  A    between atoms: C_1  and  C_2
REMARK    2  A    between atoms: C_2  and  C_3
REMARK    3  A    between atoms: C_3  and  C_4
REMARK    4  A    between atoms: C_4  and  C_5
REMARK    5  A    between atoms: C_5  and  S_6
REMARK    6  A    between atoms: N_7  and  C_8
REMARK    7  A    between atoms: C_8  and  C_9
REMARK    8  A    between atoms: N_11  and  C_12
REMARK                            x       y       z     vdW  Elec       q    Type
REMARK                         _______ _______ _______ _____ _____    ______ ____
ROOT
ATOM      1  C   UNL     1       4.528   4.464  19.019  0.00  0.00    +0.000 C 
ATOM      2  C   UNL     1       4.316   5.920  19.361  0.00  0.00    +0.000 C 
ATOM      3  N   UNL     1       2.930   6.117  19.057  0.00  0.00    +0.000 N 
ATOM      4  C   UNL     1       2.496   5.091  18.229  0.00  0.00    +0.000 C 
ATOM      5  O   UNL     1       1.422   4.979  17.656  0.00  0.00    +0.000 OA
ATOM      6  O   UNL     1       3.495   4.174  18.068  0.00  0.00    +0.000 OA
ENDROOT
BRANCH   3   7
ATOM      7  C   UNL     1       2.208   7.278  19.410  0.00  0.00    +0.000 A 
ATOM      8  C   UNL     1       1.943   8.284  18.478  0.00  0.00    +0.000 A 
ATOM      9  C   UNL     1       1.235   9.431  18.842  0.00  0.00    +0.000 A 
ATOM     10  F   UNL     1       1.027  10.358  17.893  0.00  0.00    +0.000 F 
ATOM     11  C   UNL     1       0.771   9.639  20.147  0.00  0.00    +0.000 A 
ATOM     12  C   UNL     1       1.026   8.610  21.073  0.00  0.00    +0.000 A 
ATOM     13  C   UNL     1       1.726   7.452  20.714  0.00  0.00    +0.000 A 
ATOM     14  O   UNL     1       0.616   8.666  22.391  0.00  0.00    +0.000 OA
ATOM     15  C   UNL     1      -0.476   9.580  22.575  0.00  0.00    +0.000 C 
ATOM     16  C   UNL     1      -0.180  10.947  21.955  0.00  0.00    +0.000 C 
ATOM     17  C   UNL     1      -1.368  11.901  22.011  0.00  0.00    +0.000 C 
ATOM     18  C   UNL     1      -1.679  12.318  20.577  0.00  0.00    +0.000 C 
ATOM     19  C   UNL     1      -0.728  11.561  19.658  0.00  0.00    +0.000 C 
ATOM     20  N   UNL     1       0.130  10.802  20.543  0.00  0.00    +0.000 N 
ENDBRANCH   3   7
BRANCH   1  21
ATOM     21  C   UNL     1       5.904   4.207  18.405  0.00  0.00    +0.000 C 
BRANCH  21  23
ATOM     22  C   UNL     1       6.765   6.134  17.302  0.00  0.00    +0.000 C 
ATOM     23  N   UNL     1       6.649   5.463  18.390  0.00  0.00    +0.000 NA
BRANCH  22  24
ATOM     24  S   UNL     1       7.650   7.646  17.458  0.00  0.00    +0.000 S 
ATOM     25  H   UNL     1       8.857   7.245  17.057  0.00  0.00    +0.000 HD
ENDBRANCH  22  24
BRANCH  22  26
ATOM     26  C   UNL     1       6.112   5.776  15.973  0.00  0.00    +0.000 C 
BRANCH  26  27
ATOM     27  C   UNL     1       6.872   4.904  14.979  0.00  0.00    +0.000 C 
BRANCH  27  29
ATOM     28  C   UNL     1       6.276   3.713  12.852  0.00  0.00    +0.000 C 
ATOM     29  C   UNL     1       6.009   3.813  14.345  0.00  0.00    +0.000 C 
ENDBRANCH  27  29
ENDBRANCH  26  27
ENDBRANCH  22  26
ENDBRANCH  21  23
ENDBRANCH   1  21
TORSDOF 7
ENDMDL
MODEL 4
REMARK VINA RESULT:      -7.2      1.403      1.766
REMARK  Name = 
REMARK  8 active torsions:
REMARK  status: ('A' for Active; 'I' for Inactive)
REMARK    1  A    between atoms: C_1  and  C_2
REMARK    2  A    between atoms: C_2  and  C_3
REMARK    3  A    between atoms: C_3  and  C_4
REMARK    4  A    between atoms: C_4  and  C_5
REMARK    5  A    between atoms: C_5  and  S_6
REMARK    6  A    between atoms: N_7  and  C_8
REMARK    7  A    between atoms: C_8  and  C_9
REMARK    8  A    between atoms: N_11  and  C_12
REMARK                            x       y       z     vdW  Elec       q    Type
REMARK                         _______ _______ _______ _____ _____    ______ ____
ROOT
ATOM      1  C   UNL     1       3.978   4.095  19.398  0.00  0.00    +0.000 C 
ATOM      2  C   UNL     1       3.912   5.566  19.738  0.00  0.00    +0.000 C 
ATOM      3  N   UNL     1       2.643   5.956  19.201  0.00  0.00    +0.000 N 
ATOM      4  C   UNL     1       2.224   5.004  18.283  0.00  0.00    +0.000 C 
ATOM      5  O   UNL     1       1.264   5.046  17.527  0.00  0.00    +0.000 OA
ATOM      6  O   UNL     1       3.100   3.956  18.273  0.00  0.00    +0.000 OA
ENDROOT
BRANCH   3   7
ATOM      7  C   UNL     1       2.036   7.207  19.455  0.00  0.00    +0.000 A 
ATOM      8  C   UNL     1       1.919   8.176  18.456  0.00  0.00    +0.000 A 
ATOM      9  C   UNL     1       1.325   9.412  18.722  0.00  0.00    +0.000 A 
ATOM     10  F   UNL     1       1.257  10.296  17.714  0.00  0.00    +0.000 F 
ATOM     11  C   UNL     1       0.835   9.747  19.990  0.00  0.00    +0.000 A 
ATOM     12  C   UNL     1       0.940   8.756  20.984  0.00  0.00    +0.000 A 
ATOM     13  C   UNL     1       1.525   7.510  20.724  0.00  0.00    +0.000 A 
ATOM     14  O   UNL     1       0.486   8.934  22.277  0.00  0.00    +0.000 OA
ATOM     15  C   UNL     1      -0.506   9.968  22.359  0.00  0.00    +0.000 C 
ATOM     16  C   UNL     1      -0.041  11.256  21.676  0.00  0.00    +0.000 C 
ATOM     17  C   UNL     1      -1.119  12.332  21.624  0.00  0.00    +0.000 C 
ATOM     18  C   UNL     1      -1.327  12.691  20.155  0.00  0.00    +0.000 C 
ATOM     19  C   UNL     1      -0.427  11.783  19.326  0.00  0.00    +0.000 C 
ATOM     20  N   UNL     1       0.308  10.993  20.291  0.00  0.00    +0.000 N 
ENDBRANCH   3   7
BRANCH   1  21
ATOM     21  C   UNL     1       5.392   3.649  19.028  0.00  0.00    +0.000 C 
BRANCH  21  23
ATOM     22  C   UNL     1       7.141   5.101  18.315  0.00  0.00    +0.000 C 
ATOM     23  N   UNL     1       6.303   4.772  19.231  0.00  0.00    +0.000 NA
BRANCH  22  24
ATOM     24  S   UNL     1       8.134   6.502  18.693  0.00  0.00    +0.000 S 
ATOM     25  H   UNL     1       9.320   5.909  18.830  0.00  0.00    +0.000 HD
ENDBRANCH  22  24
BRANCH  22  26
ATOM     26  C   UNL     1       7.239   4.455  16.939  0.00  0.00    +0.000 C 
BRANCH  26  27
ATOM     27  C   UNL     1       6.718   5.212  15.721  0.00  0.00    +0.000 C 
BRANCH  27  29
ATOM     28  C   UNL     1       4.840   6.783  16.271  0.00  0.00    +0.000 C 
ATOM     29  C   UNL     1       5.203   5.409  15.732  0.00  0.00    +0.000 C 
ENDBRANCH  27  29
ENDBRANCH  26  27
ENDBRANCH  22  26
ENDBRANCH  21  23
ENDBRANCH   1  21
TORSDOF 7
ENDMDL
MODEL 5
REMARK VINA RESULT:      -7.1      2.013      3.018
REMARK  Name = 
REMARK  8 active torsions:
REMARK  status: ('A' for Active; 'I' for Inactive)
REMARK    1  A    between atoms: C_1  and  C_2
REMARK    2  A    between atoms: C_2  and  C_3
REMARK    3  A    between atoms: C_3  and  C_4
REMARK    4  A    between atoms: C_4  and  C_5
REMARK    5  A    between atoms: C_5  and  S_6
REMARK    6  A    between atoms: N_7  and  C_8
REMARK    7  A    between atoms: C_8  and  C_9
REMARK    8  A    between atoms: N_11  and  C_12
REMARK                            x       y       z     vdW  Elec       q    Type
REMARK                         _______ _______ _______ _____ _____    ______ ____
ROOT
ATOM      1  C   UNL     1       5.007   4.583  17.671  0.00  0.00    +0.000 C 
ATOM      2  C   UNL     1       4.261   5.881  17.466  0.00  0.00    +0.000 C 
ATOM      3  N   UNL     1       3.378   5.918  18.594  0.00  0.00    +0.000 N 
ATOM      4  C   UNL     1       3.270   4.643  19.130  0.00  0.00    +0.000 C 
ATOM      5  O   UNL     1       2.518   4.248  20.009  0.00  0.00    +0.000 OA
ATOM      6  O   UNL     1       4.123   3.796  18.481  0.00  0.00    +0.000 OA
ENDROOT
BRANCH   3   7
ATOM      7  C   UNL     1       2.617   7.052  18.955  0.00  0.00    +0.000 A 
ATOM      8  C   UNL     1       2.311   8.051  18.027  0.00  0.00    +0.000 A 
ATOM      9  C   UNL     1       1.565   9.171  18.399  0.00  0.00    +0.000 A 
ATOM     10  F   UNL     1       1.320  10.093  17.455  0.00  0.00    +0.000 F 
ATOM     11  C   UNL     1       1.101   9.358  19.707  0.00  0.00    +0.000 A 
ATOM     12  C   UNL     1       1.397   8.336  20.629  0.00  0.00    +0.000 A 
ATOM     13  C   UNL     1       2.136   7.205  20.262  0.00  0.00    +0.000 A 
ATOM     14  O   UNL     1       0.992   8.372  21.949  0.00  0.00    +0.000 OA
ATOM     15  C   UNL     1      -0.130   9.247  22.142  0.00  0.00    +0.000 C 
ATOM     16  C   UNL     1       0.113  10.625  21.525  0.00  0.00    +0.000 C 
ATOM     17  C   UNL     1      -1.107  11.537  21.590  0.00  0.00    +0.000 C 
ATOM     18  C   UNL     1      -1.441  11.947  20.159  0.00  0.00    +0.000 C 
ATOM     19  C   UNL     1      -0.468  11.227  19.233  0.00  0.00    +0.000 C 
ATOM     20  N   UNL     1       0.421  10.496  20.111  0.00  0.00    +0.000 N 
ENDBRANCH   3   7
BRANCH   1  21
ATOM     21  C   UNL     1       5.297   3.867  16.352  0.00  0.00    +0.000 C 
BRANCH  21  23
ATOM     22  C   UNL     1       6.528   4.469  14.403  0.00  0.00    +0.000 C 
ATOM     23  N   UNL     1       6.389   4.562  15.676  0.00  0.00    +0.000 NA
BRANCH  22  24
ATOM     24  S   UNL     1       7.861   5.400  13.735  0.00  0.00    +0.000 S 
ATOM     25  H   UNL     1       8.837   4.495  13.824  0.00  0.00    +0.000 HD
ENDBRANCH  22  24
BRANCH  22  26
ATOM     26  C   UNL     1       5.580   3.730  13.467  0.00  0.00    +0.000 C 
BRANCH  26  27
ATOM     27  C   UNL     1       6.102   3.216  12.129  0.00  0.00    +0.000 C 
BRANCH  27  29
ATOM     28  C   UNL     1       3.849   3.216  11.024  0.00  0.00    +0.000 C 
ATOM     29  C   UNL     1       5.078   2.385  11.357  0.00  0.00    +0.000 C 
ENDBRANCH  27  29
ENDBRANCH  26  27
ENDBRANCH  22  26
ENDBRANCH  21  23
ENDBRANCH   1  21
TORSDOF 7
ENDMDL
MODEL 6
REMARK VINA RESULT:      -7.0      3.395      4.808
REMARK  Name = 
REMARK  8 active torsions:
REMARK  status: ('A' for Active; 'I' for Inactive)
REMARK    1  A    between atoms: C_1  and  C_2
REMARK    2  A    between atoms: C_2  and  C_3
REMARK    3  A    between atoms: C_3  and  C_4
REMARK    4  A    between atoms: C_4  and  C_5
REMARK    5  A    between atoms: C_5  and  S_6
REMARK    6  A    between atoms: N_7  and  C_8
REMARK    7  A    between atoms: C_8  and  C_9
REMARK    8  A    between atoms: N_11  and  C_12
REMARK                            x       y       z     vdW  Elec       q    Type
REMARK                         _______ _______ _______ _____ _____    ______ ____
ROOT
ATOM      1  C   UNL     1       6.217   4.871  15.128  0.00  0.00    +0.000 C 
ATOM      2  C   UNL     1       5.384   6.042  15.594  0.00  0.00    +0.000 C 
ATOM      3  N   UNL     1       4.566   5.459  16.616  0.00  0.00    +0.000 N 
ATOM      4  C   UNL     1       4.566   4.080  16.468  0.00  0.00    +0.000 C 
ATOM      5  O   UNL     1       3.890   3.251  17.060  0.00  0.00    +0.000 OA
ATOM      6  O   UNL     1       5.430   3.722  15.472  0.00  0.00    +0.000 OA
ENDROOT
BRANCH   3   7
ATOM      7  C   UNL     1       3.759   6.213  17.498  0.00  0.00    +0.000 A 
ATOM      8  C   UNL     1       3.392   5.720  18.751  0.00  0.00    +0.000 A 
ATOM      9  C   UNL     1       2.587   6.471  19.610  0.00  0.00    +0.000 A 
ATOM     10  F   UNL     1       2.267   5.926  20.794  0.00  0.00    +0.000 F 
ATOM     11  C   UNL     1       2.100   7.737  19.260  0.00  0.00    +0.000 A 
ATOM     12  C   UNL     1       2.494   8.233  18.003  0.00  0.00    +0.000 A 
ATOM     13  C   UNL     1       3.309   7.491  17.140  0.00  0.00    +0.000 A 
ATOM     14  O   UNL     1       2.107   9.471  17.528  0.00  0.00    +0.000 OA
ATOM     15  C   UNL     1       1.721  10.357  18.590  0.00  0.00    +0.000 C 
ATOM     16  C   UNL     1       0.706   9.703  19.530  0.00  0.00    +0.000 C 
ATOM     17  C   UNL     1       0.374  10.562  20.746  0.00  0.00    +0.000 C 
ATOM     18  C   UNL     1       0.706   9.736  21.985  0.00  0.00    +0.000 C 
ATOM     19  C   UNL     1       1.302   8.415  21.515  0.00  0.00    +0.000 C 
ATOM     20  N   UNL     1       1.243   8.466  20.069  0.00  0.00    +0.000 N 
ENDBRANCH   3   7
BRANCH   1  21
ATOM     21  C   UNL     1       6.475   4.906  13.622  0.00  0.00    +0.000 C 
BRANCH  21  23
ATOM     22  C   UNL     1       5.819   3.148  12.155  0.00  0.00    +0.000 C 
ATOM     23  N   UNL     1       6.558   3.534  13.131  0.00  0.00    +0.000 NA
BRANCH  22  24
ATOM     24  S   UNL     1       6.070   1.482  11.651  0.00  0.00    +0.000 S 
ATOM     25  H   UNL     1       6.320   1.672  10.355  0.00  0.00    +0.000 HD
ENDBRANCH  22  24
BRANCH  22  26
ATOM     26  C   UNL     1       4.868   4.039  11.367  0.00  0.00    +0.000 C 
BRANCH  26  27
ATOM     27  C   UNL     1       3.493   3.504  10.977  0.00  0.00    +0.000 C 
BRANCH  27  29
ATOM     28  C   UNL     1       2.253   4.869   9.275  0.00  0.00    +0.000 C 
ATOM     29  C   UNL     1       3.173   3.679   9.493  0.00  0.00    +0.000 C 
ENDBRANCH  27  29
ENDBRANCH  26  27
ENDBRANCH  22  26
ENDBRANCH  21  23
ENDBRANCH   1  21
TORSDOF 7
ENDMDL
MODEL 7
REMARK VINA RESULT:      -7.0      1.944      2.622
REMARK  Name = 
REMARK  8 active torsions:
REMARK  status: ('A' for Active; 'I' for Inactive)
REMARK    1  A    between atoms: C_1  and  C_2
REMARK    2  A    between atoms: C_2  and  C_3
REMARK    3  A    between atoms: C_3  and  C_4
REMARK    4  A    between atoms: C_4  and  C_5
REMARK    5  A    between atoms: C_5  and  S_6
REMARK    6  A    between atoms: N_7  and  C_8
REMARK    7  A    between atoms: C_8  and  C_9
REMARK    8  A    between atoms: N_11  and  C_12
REMARK                            x       y       z     vdW  Elec       q    Type
REMARK                         _______ _______ _______ _____ _____    ______ ____
ROOT
ATOM      1  C   UNL     1       3.976   4.052  19.358  0.00  0.00    +0.000 C 
ATOM      2  C   UNL     1       3.885   5.496  19.790  0.00  0.00    +0.000 C 
ATOM      3  N   UNL     1       2.609   5.899  19.277  0.00  0.00    +0.000 N 
ATOM      4  C   UNL     1       2.208   5.000  18.299  0.00  0.00    +0.000 C 
ATOM      5  O   UNL     1       1.247   5.074  17.546  0.00  0.00    +0.000 OA
ATOM      6  O   UNL     1       3.101   3.969  18.225  0.00  0.00    +0.000 OA
ENDROOT
BRANCH   3   7
ATOM      7  C   UNL     1       1.982   7.121  19.608  0.00  0.00    +0.000 A 
ATOM      8  C   UNL     1       1.271   7.276  20.800  0.00  0.00    +0.000 A 
ATOM      9  C   UNL     1       0.649   8.486  21.112  0.00  0.00    +0.000 A 
ATOM     10  F   UNL     1      -0.025   8.556  22.272  0.00  0.00    +0.000 F 
ATOM     11  C   UNL     1       0.691   9.591  20.252  0.00  0.00    +0.000 A 
ATOM     12  C   UNL     1       1.427   9.430  19.063  0.00  0.00    +0.000 A 
ATOM     13  C   UNL     1       2.063   8.224  18.747  0.00  0.00    +0.000 A 
ATOM     14  O   UNL     1       1.573  10.435  18.127  0.00  0.00    +0.000 OA
ATOM     15  C   UNL     1       1.350  11.735  18.695  0.00  0.00    +0.000 C 
ATOM     16  C   UNL     1       0.036  11.794  19.476  0.00  0.00    +0.000 C 
ATOM     17  C   UNL     1      -0.169  13.116  20.207  0.00  0.00    +0.000 C 
ATOM     18  C   UNL     1      -0.345  12.790  21.687  0.00  0.00    +0.000 C 
ATOM     19  C   UNL     1      -0.174  11.285  21.853  0.00  0.00    +0.000 C 
ATOM     20  N   UNL     1       0.020  10.775  20.512  0.00  0.00    +0.000 N 
ENDBRANCH   3   7
BRANCH   1  21
ATOM     21  C   UNL     1       5.397   3.654  18.962  0.00  0.00    +0.000 C 
BRANCH  21  23
ATOM     22  C   UNL     1       7.140   5.131  18.286  0.00  0.00    +0.000 C 
ATOM     23  N   UNL     1       6.278   4.798  19.178  0.00  0.00    +0.000 NA
BRANCH  22  24
ATOM     24  S   UNL     1       8.092   6.557  18.675  0.00  0.00    +0.000 S 
ATOM     25  H   UNL     1       8.083   6.479  20.006  0.00  0.00    +0.000 HD
ENDBRANCH  22  24
BRANCH  22  26
ATOM     26  C   UNL     1       7.296   4.467  16.924  0.00  0.00    +0.000 C 
BRANCH  26  27
ATOM     27  C   UNL     1       6.811   5.200  15.677  0.00  0.00    +0.000 C 
BRANCH  27  29
ATOM     28  C   UNL     1       4.861   6.679  16.232  0.00  0.00    +0.000 C 
ATOM     29  C   UNL     1       5.292   5.356  15.618  0.00  0.00    +0.000 C 
ENDBRANCH  27  29
ENDBRANCH  26  27
ENDBRANCH  22  26
ENDBRANCH  21  23
ENDBRANCH   1  21
TORSDOF 7
ENDMDL
MODEL 8
REMARK VINA RESULT:      -6.9      1.861      2.483
REMARK  Name = 
REMARK  8 active torsions:
REMARK  status: ('A' for Active; 'I' for Inactive)
REMARK    1  A    between atoms: C_1  and  C_2
REMARK    2  A    between atoms: C_2  and  C_3
REMARK    3  A    between atoms: C_3  and  C_4
REMARK    4  A    between atoms: C_4  and  C_5
REMARK    5  A    between atoms: C_5  and  S_6
REMARK    6  A    between atoms: N_7  and  C_8
REMARK    7  A    between atoms: C_8  and  C_9
REMARK    8  A    between atoms: N_11  and  C_12
REMARK                            x       y       z     vdW  Elec       q    Type
REMARK                         _______ _______ _______ _____ _____    ______ ____
ROOT
ATOM      1  C   UNL     1       3.037   5.834  18.657  0.00  0.00    +0.000 C 
ATOM      2  C   UNL     1       2.437   6.693  19.746  0.00  0.00    +0.000 C 
ATOM      3  N   UNL     1       2.040   7.871  19.035  0.00  0.00    +0.000 N 
ATOM      4  C   UNL     1       2.709   7.917  17.820  0.00  0.00    +0.000 C 
ATOM      5  O   UNL     1       2.735   8.823  16.999  0.00  0.00    +0.000 OA
ATOM      6  O   UNL     1       3.438   6.774  17.651  0.00  0.00    +0.000 OA
ENDROOT
BRANCH   3   7
ATOM      7  C   UNL     1       1.236   8.890  19.594  0.00  0.00    +0.000 A 
ATOM      8  C   UNL     1       0.683   9.899  18.803  0.00  0.00    +0.000 A 
ATOM      9  C   UNL     1      -0.102  10.905  19.369  0.00  0.00    +0.000 A 
ATOM     10  F   UNL     1      -0.591  11.846  18.546  0.00  0.00    +0.000 F 
ATOM     11  C   UNL     1      -0.363  10.963  20.744  0.00  0.00    +0.000 A 
ATOM     12  C   UNL     1       0.182   9.930  21.529  0.00  0.00    +0.000 A 
ATOM     13  C   UNL     1       0.963   8.912  20.968  0.00  0.00    +0.000 A 
ATOM     14  O   UNL     1      -0.003   9.845  22.895  0.00  0.00    +0.000 OA
ATOM     15  C   UNL     1      -1.162  10.575  23.326  0.00  0.00    +0.000 C 
ATOM     16  C   UNL     1      -1.164  12.005  22.783  0.00  0.00    +0.000 C 
ATOM     17  C   UNL     1      -2.444  12.768  23.106  0.00  0.00    +0.000 C 
ATOM     18  C   UNL     1      -3.047  13.220  21.779  0.00  0.00    +0.000 C 
ATOM     19  C   UNL     1      -2.171  12.668  20.662  0.00  0.00    +0.000 C 
ATOM     20  N   UNL     1      -1.080  11.993  21.333  0.00  0.00    +0.000 N 
ENDBRANCH   3   7
BRANCH   1  21
ATOM     21  C   UNL     1       4.244   5.035  19.148  0.00  0.00    +0.000 C 
BRANCH  21  23
ATOM     22  C   UNL     1       6.295   5.009  17.938  0.00  0.00    +0.000 C 
ATOM     23  N   UNL     1       5.059   4.667  17.995  0.00  0.00    +0.000 NA
BRANCH  22  24
ATOM     24  S   UNL     1       7.152   4.450  16.508  0.00  0.00    +0.000 S 
ATOM     25  H   UNL     1       8.372   4.916  16.778  0.00  0.00    +0.000 HD
ENDBRANCH  22  24
BRANCH  22  26
ATOM     26  C   UNL     1       7.058   5.733  19.040  0.00  0.00    +0.000 C 
BRANCH  26  27
ATOM     27  C   UNL     1       8.145   6.734  18.661  0.00  0.00    +0.000 C 
BRANCH  27  29
ATOM     28  C   UNL     1       8.242   9.156  18.011  0.00  0.00    +0.000 C 
ATOM     29  C   UNL     1       7.673   7.791  17.662  0.00  0.00    +0.000 C 
ENDBRANCH  27  29
ENDBRANCH  26  27
ENDBRANCH  22  26
ENDBRANCH  21  23
ENDBRANCH   1  21
TORSDOF 7
ENDMDL
MODEL 9
REMARK VINA RESULT:      -6.9      1.901      2.903
REMARK  Name = 
REMARK  8 active torsions:
REMARK  status: ('A' for Active; 'I' for Inactive)
REMARK    1  A    between atoms: C_1  and  C_2
REMARK    2  A    between atoms: C_2  and  C_3
REMARK    3  A    between atoms: C_3  and  C_4
REMARK    4  A    between atoms: C_4  and  C_5
REMARK    5  A    between atoms: C_5  and  S_6
REMARK    6  A    between atoms: N_7  and  C_8
REMARK    7  A    between atoms: C_8  and  C_9
REMARK    8  A    between atoms: N_11  and  C_12
REMARK                            x       y       z     vdW  Elec       q    Type
REMARK                         _______ _______ _______ _____ _____    ______ ____
ROOT
ATOM      1  C   UNL     1       3.791   3.777  19.369  0.00  0.00    +0.000 C 
ATOM      2  C   UNL     1       3.837   5.251  19.696  0.00  0.00    +0.000 C 
ATOM      3  N   UNL     1       2.598   5.732  19.160  0.00  0.00    +0.000 N 
ATOM      4  C   UNL     1       2.106   4.806  18.251  0.00  0.00    +0.000 C 
ATOM      5  O   UNL     1       1.149   4.914  17.498  0.00  0.00    +0.000 OA
ATOM      6  O   UNL     1       2.901   3.695  18.248  0.00  0.00    +0.000 OA
ENDROOT
BRANCH   3   7
ATOM      7  C   UNL     1       2.089   7.027  19.405  0.00  0.00    +0.000 A 
ATOM      8  C   UNL     1       1.388   7.325  20.575  0.00  0.00    +0.000 A 
ATOM      9  C   UNL     1       0.882   8.607  20.801  0.00  0.00    +0.000 A 
ATOM     10  F   UNL     1       0.210   8.815  21.945  0.00  0.00    +0.000 F 
ATOM     11  C   UNL     1       1.036   9.645  19.874  0.00  0.00    +0.000 A 
ATOM     12  C   UNL     1       1.762   9.338  18.707  0.00  0.00    +0.000 A 
ATOM     13  C   UNL     1       2.281   8.059  18.476  0.00  0.00    +0.000 A 
ATOM     14  O   UNL     1       2.009  10.262  17.710  0.00  0.00    +0.000 OA
ATOM     15  C   UNL     1       1.908  11.611  18.192  0.00  0.00    +0.000 C 
ATOM     16  C   UNL     1       0.600  11.845  18.950  0.00  0.00    +0.000 C 
ATOM     17  C   UNL     1       0.518  13.225  19.593  0.00  0.00    +0.000 C 
ATOM     18  C   UNL     1       0.301  13.013  21.089  0.00  0.00    +0.000 C 
ATOM     19  C   UNL     1       0.326  11.513  21.352  0.00  0.00    +0.000 C 
ATOM     20  N   UNL     1       0.480  10.902  20.048  0.00  0.00    +0.000 N 
ENDBRANCH   3   7
BRANCH   1  21
ATOM     21  C   UNL     1       5.166   3.223  18.997  0.00  0.00    +0.000 C 
BRANCH  21  23
ATOM     22  C   UNL     1       6.383   4.654  17.531  0.00  0.00    +0.000 C 
ATOM     23  N   UNL     1       6.065   4.344  18.736  0.00  0.00    +0.000 NA
BRANCH  22  24
ATOM     24  S   UNL     1       7.434   6.055  17.381  0.00  0.00    +0.000 S 
ATOM     25  H   UNL     1       6.914   6.832  18.332  0.00  0.00    +0.000 HD
ENDBRANCH  22  24
BRANCH  22  26
ATOM     26  C   UNL     1       5.834   3.984  16.278  0.00  0.00    +0.000 C 
BRANCH  26  27
ATOM     27  C   UNL     1       6.377   4.397  14.913  0.00  0.00    +0.000 C 
BRANCH  27  29
ATOM     28  C   UNL     1       6.298   3.558  12.549  0.00  0.00    +0.000 C 
ATOM     29  C   UNL     1       5.472   3.986  13.751  0.00  0.00    +0.000 C 
ENDBRANCH  27  29
ENDBRANCH  26  27
ENDBRANCH  22  26
ENDBRANCH  21  23
ENDBRANCH   1  21
TORSDOF 7
ENDMDL
