MODEL 1
REMARK VINA RESULT:      -8.3      0.000      0.000
REMARK  Name = 
REMARK  7 active torsions:
REMARK  status: ('A' for Active; 'I' for Inactive)
REMARK    1  A    between atoms: C_1  and  C_2
REMARK    2  A    between atoms: N_4  and  C_5
REMARK    3  A    between atoms: C_8  and  C_9
REMARK    4  A    between atoms: C_16  and  C_17
REMARK    5  A    between atoms: C_17  and  O_18
REMARK    6  A    between atoms: O_18  and  C_19
REMARK    7  A    between atoms: C_19  and  C_20
REMARK                            x       y       z     vdW  Elec       q    Type
REMARK                         _______ _______ _______ _____ _____    ______ ____
ROOT
ATOM      1  C   UNL     1       3.060   4.652  18.982  0.00  0.00    +0.000 A 
ATOM      2  C   UNL     1       2.249   3.539  18.682  0.00  0.00    +0.000 A 
ATOM      3  N   UNL     1       0.881   3.643  18.417  0.00  0.00    +0.000 N 
ATOM      4  N   UNL     1       2.674   2.260  18.655  0.00  0.00    +0.000 NA
ATOM      5  C   UNL     1       3.953   2.047  18.899  0.00  0.00    +0.000 A 
ATOM      6  N   UNL     1       4.406   0.744  18.889  0.00  0.00    +0.000 N 
ATOM      7  N   UNL     1       4.827   2.996  19.210  0.00  0.00    +0.000 NA
ATOM      8  C   UNL     1       4.388   4.286  19.246  0.00  0.00    +0.000 A 
ATOM      9  H   UNL     1       0.679   4.330  17.699  0.00  0.00    +0.000 HD
ATOM     10  H   UNL     1       0.542   2.716  18.180  0.00  0.00    +0.000 HD
ATOM     11  H   UNL     1       3.628   0.123  19.072  0.00  0.00    +0.000 HD
ATOM     12  H   UNL     1       5.215   0.656  19.482  0.00  0.00    +0.000 HD
ENDROOT
BRANCH   1  16
ATOM     13  C   UNL     1       1.690   8.794  19.045  0.00  0.00    +0.000 A 
ATOM     14  C   UNL     1       2.155   8.204  17.877  0.00  0.00    +0.000 A 
ATOM     15  C   UNL     1       2.521   6.851  17.857  0.00  0.00    +0.000 A 
ATOM     16  C   UNL     1       2.518   6.046  19.013  0.00  0.00    +0.000 A 
ATOM     17  C   UNL     1       2.036   6.663  20.179  0.00  0.00    +0.000 A 
ATOM     18  C   UNL     1       1.604   8.004  20.192  0.00  0.00    +0.000 A 
BRANCH  13  22
ATOM     19  C   UNL     1       0.203  12.248  18.802  0.00  0.00    +0.000 C 
ATOM     20  C   UNL     1       0.167  10.744  18.710  0.00  0.00    +0.000 C 
ATOM     21  O   UNL     1      -0.825  10.173  18.265  0.00  0.00    +0.000 OA
ATOM     22  N   UNL     1       1.340  10.158  19.143  0.00  0.00    +0.000 N 
ATOM     23  H   UNL     1       2.024  10.763  19.583  0.00  0.00    +0.000 HD
ENDBRANCH  13  22
ENDBRANCH   1  16
BRANCH   8  24
ATOM     24  C   UNL     1       5.487   5.242  19.649  0.00  0.00    +0.000 C 
BRANCH  24  25
ATOM     25  O   UNL     1       6.796   4.806  19.306  0.00  0.00    +0.000 OA
BRANCH  25  26
ATOM     26  C   UNL     1       7.431   5.679  18.375  0.00  0.00    +0.000 C 
BRANCH  26  27
ATOM     27  C   UNL     1       6.792   5.475  17.030  0.00  0.00    +0.000 A 
ATOM     28  C   UNL     1       7.087   4.325  16.279  0.00  0.00    +0.000 A 
ATOM     29  C   UNL     1       6.495   4.124  15.034  0.00  0.00    +0.000 A 
ATOM     30  C   UNL     1       5.606   5.068  14.524  0.00  0.00    +0.000 A 
ATOM     31  C   UNL     1       5.308   6.215  15.260  0.00  0.00    +0.000 A 
ATOM     32  C   UNL     1       5.898   6.415  16.508  0.00  0.00    +0.000 A 
ENDBRANCH  26  27
ENDBRANCH  25  26
ENDBRANCH  24  25
ENDBRANCH   8  24
TORSDOF 6
ENDMDL
MODEL 2
REMARK VINA RESULT:      -8.2      0.362      1.353
REMARK  Name = 
REMARK  7 active torsions:
REMARK  status: ('A' for Active; 'I' for Inactive)
REMARK    1  A    between atoms: C_1  and  C_2
REMARK    2  A    between atoms: N_4  and  C_5
REMARK    3  A    between atoms: C_8  and  C_9
REMARK    4  A    between atoms: C_16  and  C_17
REMARK    5  A    between atoms: C_17  and  O_18
REMARK    6  A    between atoms: O_18  and  C_19
REMARK    7  A    between atoms: C_19  and  C_20
REMARK                            x       y       z     vdW  Elec       q    Type
REMARK                         _______ _______ _______ _____ _____    ______ ____
ROOT
ATOM      1  C   UNL     1       3.090   4.854  18.696  0.00  0.00    +0.000 A 
ATOM      2  C   UNL     1       2.215   3.869  18.195  0.00  0.00    +0.000 A 
ATOM      3  N   UNL     1       0.901   4.144  17.805  0.00  0.00    +0.000 N 
ATOM      4  N   UNL     1       2.516   2.561  18.069  0.00  0.00    +0.000 NA
ATOM      5  C   UNL     1       3.734   2.190  18.416  0.00  0.00    +0.000 A 
ATOM      6  N   UNL     1       4.059   0.854  18.307  0.00  0.00    +0.000 N 
ATOM      7  N   UNL     1       4.654   3.004  18.917  0.00  0.00    +0.000 NA
ATOM      8  C   UNL     1       4.339   4.323  19.051  0.00  0.00    +0.000 A 
ATOM      9  H   UNL     1       0.848   4.918  17.151  0.00  0.00    +0.000 HD
ATOM     10  H   UNL     1       0.504   3.287  17.434  0.00  0.00    +0.000 HD
ATOM     11  H   UNL     1       3.209   0.303  18.340  0.00  0.00    +0.000 HD
ATOM     12  H   UNL     1       4.784   0.621  18.965  0.00  0.00    +0.000 HD
ENDROOT
BRANCH   1  16
ATOM     13  C   UNL     1       1.689   8.968  19.082  0.00  0.00    +0.000 A 
ATOM     14  C   UNL     1       1.609   8.075  20.142  0.00  0.00    +0.000 A 
ATOM     15  C   UNL     1       2.132   6.779  20.025  0.00  0.00    +0.000 A 
ATOM     16  C   UNL     1       2.684   6.288  18.827  0.00  0.00    +0.000 A 
ATOM     17  C   UNL     1       2.761   7.213  17.772  0.00  0.00    +0.000 A 
ATOM     18  C   UNL     1       2.298   8.537  17.902  0.00  0.00    +0.000 A 
BRANCH  13  22
ATOM     19  C   UNL     1      -0.253  12.170  18.672  0.00  0.00    +0.000 C 
ATOM     20  C   UNL     1      -0.079  10.674  18.639  0.00  0.00    +0.000 C 
ATOM     21  O   UNL     1      -0.971   9.955  18.196  0.00  0.00    +0.000 OA
ATOM     22  N   UNL     1       1.152  10.272  19.119  0.00  0.00    +0.000 N 
ATOM     23  H   UNL     1       1.734  10.982  19.548  0.00  0.00    +0.000 HD
ENDBRANCH  13  22
ENDBRANCH   1  16
BRANCH   8  24
ATOM     24  C   UNL     1       5.473   5.112  19.667  0.00  0.00    +0.000 C 
BRANCH  24  25
ATOM     25  O   UNL     1       6.767   4.691  19.257  0.00  0.00    +0.000 OA
BRANCH  25  26
ATOM     26  C   UNL     1       7.371   5.607  18.345  0.00  0.00    +0.000 C 
BRANCH  26  27
ATOM     27  C   UNL     1       6.760   5.389  16.989  0.00  0.00    +0.000 A 
ATOM     28  C   UNL     1       5.902   6.357  16.441  0.00  0.00    +0.000 A 
ATOM     29  C   UNL     1       5.335   6.166  15.182  0.00  0.00    +0.000 A 
ATOM     30  C   UNL     1       5.618   5.009  14.458  0.00  0.00    +0.000 A 
ATOM     31  C   UNL     1       6.468   4.041  14.994  0.00  0.00    +0.000 A 
ATOM     32  C   UNL     1       7.037   4.232  16.253  0.00  0.00    +0.000 A 
ENDBRANCH  26  27
ENDBRANCH  25  26
ENDBRANCH  24  25
ENDBRANCH   8  24
TORSDOF 6
ENDMDL
MODEL 3
REMARK VINA RESULT:      -8.1      2.512      6.688
REMARK  Name = 
REMARK  7 active torsions:
REMARK  status: ('A' for Active; 'I' for Inactive)
REMARK    1  A    between atoms: C_1  and  C_2
REMARK    2  A    between atoms: N_4  and  C_5
REMARK    3  A    between atoms: C_8  and  C_9
REMARK    4  A    between atoms: C_16  and  C_17
REMARK    5  A    between atoms: C_17  and  O_18
REMARK    6  A    between atoms: O_18  and  C_19
REMARK    7  A    between atoms: C_19  and  C_20
REMARK                            x       y       z     vdW  Elec       q    Type
REMARK                         _______ _______ _______ _____ _____    ______ ____
ROOT
ATOM      1  C   UNL     1       3.859   3.757  19.224  0.00  0.00    +0.000 A 
ATOM      2  C   UNL     1       4.073   2.635  20.049  0.00  0.00    +0.000 A 
ATOM      3  N   UNL     1       5.131   1.740  19.860  0.00  0.00    +0.000 N 
ATOM      4  N   UNL     1       3.279   2.269  21.075  0.00  0.00    +0.000 NA
ATOM      5  C   UNL     1       2.244   3.043  21.337  0.00  0.00    +0.000 A 
ATOM      6  N   UNL     1       1.411   2.680  22.375  0.00  0.00    +0.000 N 
ATOM      7  N   UNL     1       1.912   4.120  20.636  0.00  0.00    +0.000 NA
ATOM      8  C   UNL     1       2.715   4.477  19.594  0.00  0.00    +0.000 A 
ATOM      9  H   UNL     1       6.027   2.212  19.800  0.00  0.00    +0.000 HD
ATOM     10  H   UNL     1       5.095   1.058  20.610  0.00  0.00    +0.000 HD
ATOM     11  H   UNL     1       1.497   1.683  22.535  0.00  0.00    +0.000 HD
ATOM     12  H   UNL     1       0.485   3.043  22.217  0.00  0.00    +0.000 HD
ENDROOT
BRANCH   1  16
ATOM     13  C   UNL     1       6.487   4.961  15.955  0.00  0.00    +0.000 A 
ATOM     14  C   UNL     1       6.855   5.140  17.282  0.00  0.00    +0.000 A 
ATOM     15  C   UNL     1       6.032   4.679  18.320  0.00  0.00    +0.000 A 
ATOM     16  C   UNL     1       4.773   4.095  18.088  0.00  0.00    +0.000 A 
ATOM     17  C   UNL     1       4.427   3.917  16.738  0.00  0.00    +0.000 A 
ATOM     18  C   UNL     1       5.278   4.317  15.689  0.00  0.00    +0.000 A 
BRANCH  13  22
ATOM     19  C   UNL     1       8.349   5.533  12.730  0.00  0.00    +0.000 C 
ATOM     20  C   UNL     1       7.289   4.897  13.591  0.00  0.00    +0.000 C 
ATOM     21  O   UNL     1       6.590   3.990  13.147  0.00  0.00    +0.000 OA
ATOM     22  N   UNL     1       7.249   5.432  14.864  0.00  0.00    +0.000 N 
ATOM     23  H   UNL     1       7.820   6.250  15.039  0.00  0.00    +0.000 HD
ENDBRANCH  13  22
ENDBRANCH   1  16
BRANCH   8  24
ATOM     24  C   UNL     1       2.188   5.698  18.873  0.00  0.00    +0.000 C 
BRANCH  24  25
ATOM     25  O   UNL     1       2.633   6.934  19.417  0.00  0.00    +0.000 OA
BRANCH  25  26
ATOM     26  C   UNL     1       2.511   8.009  18.487  0.00  0.00    +0.000 C 
BRANCH  26  27
ATOM     27  C   UNL     1       1.391   8.901  18.946  0.00  0.00    +0.000 A 
ATOM     28  C   UNL     1       1.095   9.010  20.314  0.00  0.00    +0.000 A 
ATOM     29  C   UNL     1       0.062   9.838  20.749  0.00  0.00    +0.000 A 
ATOM     30  C   UNL     1      -0.685  10.565  19.824  0.00  0.00    +0.000 A 
ATOM     31  C   UNL     1      -0.400  10.464  18.462  0.00  0.00    +0.000 A 
ATOM     32  C   UNL     1       0.635   9.636  18.027  0.00  0.00    +0.000 A 
ENDBRANCH  26  27
ENDBRANCH  25  26
ENDBRANCH  24  25
ENDBRANCH   8  24
TORSDOF 6
ENDMDL
MODEL 4
REMARK VINA RESULT:      -8.0      2.714      7.102
REMARK  Name = 
REMARK  7 active torsions:
REMARK  status: ('A' for Active; 'I' for Inactive)
REMARK    1  A    between atoms: C_1  and  C_2
REMARK    2  A    between atoms: N_4  and  C_5
REMARK    3  A    between atoms: C_8  and  C_9
REMARK    4  A    between atoms: C_16  and  C_17
REMARK    5  A    between atoms: C_17  and  O_18
REMARK    6  A    between atoms: O_18  and  C_19
REMARK    7  A    between atoms: C_19  and  C_20
REMARK                            x       y       z     vdW  Elec       q    Type
REMARK                         _______ _______ _______ _____ _____    ______ ____
ROOT
ATOM      1  C   UNL     1       3.946   3.905  19.290  0.00  0.00    +0.000 A 
ATOM      2  C   UNL     1       4.023   2.687  19.996  0.00  0.00    +0.000 A 
ATOM      3  N   UNL     1       4.948   1.685  19.687  0.00  0.00    +0.000 N 
ATOM      4  N   UNL     1       3.207   2.327  21.006  0.00  0.00    +0.000 NA
ATOM      5  C   UNL     1       2.289   3.201  21.375  0.00  0.00    +0.000 A 
ATOM      6  N   UNL     1       1.434   2.848  22.399  0.00  0.00    +0.000 N 
ATOM      7  N   UNL     1       2.092   4.377  20.793  0.00  0.00    +0.000 NA
ATOM      8  C   UNL     1       2.915   4.728  19.765  0.00  0.00    +0.000 A 
ATOM      9  H   UNL     1       5.898   2.038  19.645  0.00  0.00    +0.000 HD
ATOM     10  H   UNL     1       4.835   0.941  20.368  0.00  0.00    +0.000 HD
ATOM     11  H   UNL     1       1.390   1.838  22.459  0.00  0.00    +0.000 HD
ATOM     12  H   UNL     1       0.563   3.343  22.307  0.00  0.00    +0.000 HD
ENDROOT
BRANCH   1  16
ATOM     13  C   UNL     1       6.592   5.076  16.025  0.00  0.00    +0.000 A 
ATOM     14  C   UNL     1       6.868   5.427  17.340  0.00  0.00    +0.000 A 
ATOM     15  C   UNL     1       6.048   4.979  18.386  0.00  0.00    +0.000 A 
ATOM     16  C   UNL     1       4.875   4.232  18.164  0.00  0.00    +0.000 A 
ATOM     17  C   UNL     1       4.623   3.883  16.827  0.00  0.00    +0.000 A 
ATOM     18  C   UNL     1       5.478   4.273  15.778  0.00  0.00    +0.000 A 
BRANCH  13  22
ATOM     19  C   UNL     1       8.420   5.590  12.770  0.00  0.00    +0.000 C 
ATOM     20  C   UNL     1       7.349   4.994  13.647  0.00  0.00    +0.000 C 
ATOM     21  O   UNL     1       6.605   4.119  13.210  0.00  0.00    +0.000 OA
ATOM     22  N   UNL     1       7.354   5.521  14.923  0.00  0.00    +0.000 N 
ATOM     23  H   UNL     1       7.962   6.314  15.093  0.00  0.00    +0.000 HD
ENDBRANCH  13  22
ENDBRANCH   1  16
BRANCH   8  24
ATOM     24  C   UNL     1       2.543   6.074  19.184  0.00  0.00    +0.000 C 
BRANCH  24  25
ATOM     25  O   UNL     1       2.113   7.028  20.147  0.00  0.00    +0.000 OA
BRANCH  25  26
ATOM     26  C   UNL     1       1.726   8.263  19.549  0.00  0.00    +0.000 C 
BRANCH  26  27
ATOM     27  C   UNL     1       0.969   9.063  20.572  0.00  0.00    +0.000 A 
ATOM     28  C   UNL     1       0.471  10.334  20.244  0.00  0.00    +0.000 A 
ATOM     29  C   UNL     1      -0.236  11.080  21.185  0.00  0.00    +0.000 A 
ATOM     30  C   UNL     1      -0.452  10.567  22.462  0.00  0.00    +0.000 A 
ATOM     31  C   UNL     1       0.040   9.306  22.800  0.00  0.00    +0.000 A 
ATOM     32  C   UNL     1       0.746   8.557  21.858  0.00  0.00    +0.000 A 
ENDBRANCH  26  27
ENDBRANCH  25  26
ENDBRANCH  24  25
ENDBRANCH   8  24
TORSDOF 6
ENDMDL
MODEL 5
REMARK VINA RESULT:      -8.0      2.851      5.117
REMARK  Name = 
REMARK  7 active torsions:
REMARK  status: ('A' for Active; 'I' for Inactive)
REMARK    1  A    between atoms: C_1  and  C_2
REMARK    2  A    between atoms: N_4  and  C_5
REMARK    3  A    between atoms: C_8  and  C_9
REMARK    4  A    between atoms: C_16  and  C_17
REMARK    5  A    between atoms: C_17  and  O_18
REMARK    6  A    between atoms: O_18  and  C_19
REMARK    7  A    between atoms: C_19  and  C_20
REMARK                            x       y       z     vdW  Elec       q    Type
REMARK                         _______ _______ _______ _____ _____    ______ ____
ROOT
ATOM      1  C   UNL     1       4.942   6.017  17.165  0.00  0.00    +0.000 A 
ATOM      2  C   UNL     1       6.144   6.678  16.841  0.00  0.00    +0.000 A 
ATOM      3  N   UNL     1       6.492   7.927  17.363  0.00  0.00    +0.000 N 
ATOM      4  N   UNL     1       7.069   6.217  15.975  0.00  0.00    +0.000 NA
ATOM      5  C   UNL     1       6.835   5.044  15.417  0.00  0.00    +0.000 A 
ATOM      6  N   UNL     1       7.762   4.559  14.517  0.00  0.00    +0.000 N 
ATOM      7  N   UNL     1       5.742   4.320  15.617  0.00  0.00    +0.000 NA
ATOM      8  C   UNL     1       4.807   4.798  16.487  0.00  0.00    +0.000 A 
ATOM      9  H   UNL     1       6.430   7.951  18.375  0.00  0.00    +0.000 HD
ATOM     10  H   UNL     1       7.419   8.157  17.020  0.00  0.00    +0.000 HD
ATOM     11  H   UNL     1       8.288   5.336  14.134  0.00  0.00    +0.000 HD
ATOM     12  H   UNL     1       7.316   3.937  13.864  0.00  0.00    +0.000 HD
ENDROOT
BRANCH   1  16
ATOM     13  C   UNL     1       1.912   7.531  19.915  0.00  0.00    +0.000 A 
ATOM     14  C   UNL     1       2.653   6.394  20.211  0.00  0.00    +0.000 A 
ATOM     15  C   UNL     1       3.674   5.965  19.352  0.00  0.00    +0.000 A 
ATOM     16  C   UNL     1       3.950   6.596  18.124  0.00  0.00    +0.000 A 
ATOM     17  C   UNL     1       3.193   7.748  17.852  0.00  0.00    +0.000 A 
ATOM     18  C   UNL     1       2.210   8.224  18.741  0.00  0.00    +0.000 A 
BRANCH  13  22
ATOM     19  C   UNL     1      -0.366   8.991  22.537  0.00  0.00    +0.000 C 
ATOM     20  C   UNL     1       0.940   8.851  21.799  0.00  0.00    +0.000 C 
ATOM     21  O   UNL     1       1.941   9.444  22.191  0.00  0.00    +0.000 OA
ATOM     22  N   UNL     1       0.848   7.998  20.716  0.00  0.00    +0.000 N 
ATOM     23  H   UNL     1      -0.077   7.672  20.462  0.00  0.00    +0.000 HD
ENDBRANCH  13  22
ENDBRANCH   1  16
BRANCH   8  24
ATOM     24  C   UNL     1       3.608   3.881  16.580  0.00  0.00    +0.000 C 
BRANCH  24  25
ATOM     25  O   UNL     1       3.853   2.667  17.277  0.00  0.00    +0.000 OA
BRANCH  25  26
ATOM     26  C   UNL     1       2.647   2.003  17.648  0.00  0.00    +0.000 C 
BRANCH  26  27
ATOM     27  C   UNL     1       2.304   2.406  19.056  0.00  0.00    +0.000 A 
ATOM     28  C   UNL     1       1.010   2.861  19.361  0.00  0.00    +0.000 A 
ATOM     29  C   UNL     1       0.682   3.232  20.663  0.00  0.00    +0.000 A 
ATOM     30  C   UNL     1       1.639   3.154  21.673  0.00  0.00    +0.000 A 
ATOM     31  C   UNL     1       2.927   2.705  21.381  0.00  0.00    +0.000 A 
ATOM     32  C   UNL     1       3.256   2.332  20.077  0.00  0.00    +0.000 A 
ENDBRANCH  26  27
ENDBRANCH  25  26
ENDBRANCH  24  25
ENDBRANCH   8  24
TORSDOF 6
ENDMDL
MODEL 6
REMARK VINA RESULT:      -8.0      2.792      4.965
REMARK  Name = 
REMARK  7 active torsions:
REMARK  status: ('A' for Active; 'I' for Inactive)
REMARK    1  A    between atoms: C_1  and  C_2
REMARK    2  A    between atoms: N_4  and  C_5
REMARK    3  A    between atoms: C_8  and  C_9
REMARK    4  A    between atoms: C_16  and  C_17
REMARK    5  A    between atoms: C_17  and  O_18
REMARK    6  A    between atoms: O_18  and  C_19
REMARK    7  A    between atoms: C_19  and  C_20
REMARK                            x       y       z     vdW  Elec       q    Type
REMARK                         _______ _______ _______ _____ _____    ______ ____
ROOT
ATOM      1  C   UNL     1       4.635   6.171  17.413  0.00  0.00    +0.000 A 
ATOM      2  C   UNL     1       5.825   6.882  17.160  0.00  0.00    +0.000 A 
ATOM      3  N   UNL     1       6.063   8.169  17.652  0.00  0.00    +0.000 N 
ATOM      4  N   UNL     1       6.842   6.437  16.396  0.00  0.00    +0.000 NA
ATOM      5  C   UNL     1       6.718   5.232  15.874  0.00  0.00    +0.000 A 
ATOM      6  N   UNL     1       7.742   4.762  15.078  0.00  0.00    +0.000 N 
ATOM      7  N   UNL     1       5.649   4.458  16.014  0.00  0.00    +0.000 NA
ATOM      8  C   UNL     1       4.620   4.919  16.781  0.00  0.00    +0.000 A 
ATOM      9  H   UNL     1       5.913   8.231  18.654  0.00  0.00    +0.000 HD
ATOM     10  H   UNL     1       7.003   8.434  17.379  0.00  0.00    +0.000 HD
ATOM     11  H   UNL     1       8.258   5.550  14.705  0.00  0.00    +0.000 HD
ATOM     12  H   UNL     1       7.385   4.090  14.418  0.00  0.00    +0.000 HD
ENDROOT
BRANCH   1  16
ATOM     13  C   UNL     1       1.565   7.984  19.928  0.00  0.00    +0.000 A 
ATOM     14  C   UNL     1       1.929   8.547  18.712  0.00  0.00    +0.000 A 
ATOM     15  C   UNL     1       2.862   7.911  17.881  0.00  0.00    +0.000 A 
ATOM     16  C   UNL     1       3.536   6.733  18.257  0.00  0.00    +0.000 A 
ATOM     17  C   UNL     1       3.144   6.179  19.488  0.00  0.00    +0.000 A 
ATOM     18  C   UNL     1       2.158   6.776  20.298  0.00  0.00    +0.000 A 
BRANCH  13  22
ATOM     19  C   UNL     1      -0.263   9.548  22.828  0.00  0.00    +0.000 C 
ATOM     20  C   UNL     1       0.966   9.170  22.042  0.00  0.00    +0.000 C 
ATOM     21  O   UNL     1       2.086   9.368  22.508  0.00  0.00    +0.000 OA
ATOM     22  N   UNL     1       0.660   8.588  20.827  0.00  0.00    +0.000 N 
ATOM     23  H   UNL     1      -0.312   8.595  20.544  0.00  0.00    +0.000 HD
ENDBRANCH  13  22
ENDBRANCH   1  16
BRANCH   8  24
ATOM     24  C   UNL     1       3.465   3.944  16.815  0.00  0.00    +0.000 C 
BRANCH  24  25
ATOM     25  O   UNL     1       3.821   2.630  17.228  0.00  0.00    +0.000 OA
BRANCH  25  26
ATOM     26  C   UNL     1       2.696   1.884  17.685  0.00  0.00    +0.000 C 
BRANCH  26  27
ATOM     27  C   UNL     1       2.327   2.384  19.054  0.00  0.00    +0.000 A 
ATOM     28  C   UNL     1       1.047   2.912  19.289  0.00  0.00    +0.000 A 
ATOM     29  C   UNL     1       0.695   3.373  20.556  0.00  0.00    +0.000 A 
ATOM     30  C   UNL     1       1.615   3.313  21.601  0.00  0.00    +0.000 A 
ATOM     31  C   UNL     1       2.890   2.791  21.379  0.00  0.00    +0.000 A 
ATOM     32  C   UNL     1       3.242   2.327  20.111  0.00  0.00    +0.000 A 
ENDBRANCH  26  27
ENDBRANCH  25  26
ENDBRANCH  24  25
ENDBRANCH   8  24
TORSDOF 6
ENDMDL
MODEL 7
REMARK VINA RESULT:      -7.9      1.442      1.760
REMARK  Name = 
REMARK  7 active torsions:
REMARK  status: ('A' for Active; 'I' for Inactive)
REMARK    1  A    between atoms: C_1  and  C_2
REMARK    2  A    between atoms: N_4  and  C_5
REMARK    3  A    between atoms: C_8  and  C_9
REMARK    4  A    between atoms: C_16  and  C_17
REMARK    5  A    between atoms: C_17  and  O_18
REMARK    6  A    between atoms: O_18  and  C_19
REMARK    7  A    between atoms: C_19  and  C_20
REMARK                            x       y       z     vdW  Elec       q    Type
REMARK                         _______ _______ _______ _____ _____    ______ ____
ROOT
ATOM      1  C   UNL     1       3.260   5.326  19.369  0.00  0.00    +0.000 A 
ATOM      2  C   UNL     1       2.665   4.235  20.034  0.00  0.00    +0.000 A 
ATOM      3  N   UNL     1       1.397   4.298  20.619  0.00  0.00    +0.000 N 
ATOM      4  N   UNL     1       3.249   3.034  20.221  0.00  0.00    +0.000 NA
ATOM      5  C   UNL     1       4.455   2.868  19.713  0.00  0.00    +0.000 A 
ATOM      6  N   UNL     1       5.076   1.651  19.904  0.00  0.00    +0.000 N 
ATOM      7  N   UNL     1       5.140   3.811  19.078  0.00  0.00    +0.000 NA
ATOM      8  C   UNL     1       4.547   5.025  18.902  0.00  0.00    +0.000 A 
ATOM      9  H   UNL     1       0.693   4.643  19.974  0.00  0.00    +0.000 HD
ATOM     10  H   UNL     1       1.178   3.375  20.981  0.00  0.00    +0.000 HD
ATOM     11  H   UNL     1       4.679   1.203  20.721  0.00  0.00    +0.000 HD
ATOM     12  H   UNL     1       6.076   1.767  19.882  0.00  0.00    +0.000 HD
ENDROOT
BRANCH   1  16
ATOM     13  C   UNL     1       1.420   9.250  18.867  0.00  0.00    +0.000 A 
ATOM     14  C   UNL     1       1.920   8.542  17.782  0.00  0.00    +0.000 A 
ATOM     15  C   UNL     1       2.440   7.251  17.950  0.00  0.00    +0.000 A 
ATOM     16  C   UNL     1       2.561   6.639  19.213  0.00  0.00    +0.000 A 
ATOM     17  C   UNL     1       2.040   7.372  20.293  0.00  0.00    +0.000 A 
ATOM     18  C   UNL     1       1.456   8.643  20.123  0.00  0.00    +0.000 A 
BRANCH  13  22
ATOM     19  C   UNL     1      -0.584  12.411  18.431  0.00  0.00    +0.000 C 
ATOM     20  C   UNL     1      -0.411  10.941  18.714  0.00  0.00    +0.000 C 
ATOM     21  O   UNL     1      -1.392  10.214  18.841  0.00  0.00    +0.000 OA
ATOM     22  N   UNL     1       0.917  10.566  18.774  0.00  0.00    +0.000 N 
ATOM     23  H   UNL     1       1.608  11.307  18.755  0.00  0.00    +0.000 HD
ENDBRANCH  13  22
ENDBRANCH   1  16
BRANCH   8  24
ATOM     24  C   UNL     1       5.463   6.000  18.196  0.00  0.00    +0.000 C 
BRANCH  24  25
ATOM     25  O   UNL     1       5.493   5.854  16.782  0.00  0.00    +0.000 OA
BRANCH  25  26
ATOM     26  C   UNL     1       6.798   5.538  16.299  0.00  0.00    +0.000 C 
BRANCH  26  27
ATOM     27  C   UNL     1       6.658   4.950  14.923  0.00  0.00    +0.000 A 
ATOM     28  C   UNL     1       7.592   5.269  13.923  0.00  0.00    +0.000 A 
ATOM     29  C   UNL     1       7.473   4.723  12.647  0.00  0.00    +0.000 A 
ATOM     30  C   UNL     1       6.422   3.856  12.353  0.00  0.00    +0.000 A 
ATOM     31  C   UNL     1       5.488   3.534  13.338  0.00  0.00    +0.000 A 
ATOM     32  C   UNL     1       5.607   4.077  14.617  0.00  0.00    +0.000 A 
ENDBRANCH  26  27
ENDBRANCH  25  26
ENDBRANCH  24  25
ENDBRANCH   8  24
TORSDOF 6
ENDMDL
MODEL 8
REMARK VINA RESULT:      -7.9      1.063      1.063
REMARK  Name = 
REMARK  7 active torsions:
REMARK  status: ('A' for Active; 'I' for Inactive)
REMARK    1  A    between atoms: C_1  and  C_2
REMARK    2  A    between atoms: N_4  and  C_5
REMARK    3  A    between atoms: C_8  and  C_9
REMARK    4  A    between atoms: C_16  and  C_17
REMARK    5  A    between atoms: C_17  and  O_18
REMARK    6  A    between atoms: O_18  and  C_19
REMARK    7  A    between atoms: C_19  and  C_20
REMARK                            x       y       z     vdW  Elec       q    Type
REMARK                         _______ _______ _______ _____ _____    ______ ____
ROOT
ATOM      1  C   UNL     1       3.025   4.620  19.319  0.00  0.00    +0.000 A 
ATOM      2  C   UNL     1       2.228   3.462  19.209  0.00  0.00    +0.000 A 
ATOM      3  N   UNL     1       0.830   3.499  19.190  0.00  0.00    +0.000 N 
ATOM      4  N   UNL     1       2.701   2.202  19.152  0.00  0.00    +0.000 NA
ATOM      5  C   UNL     1       4.012   2.052  19.170  0.00  0.00    +0.000 A 
ATOM      6  N   UNL     1       4.517   0.769  19.125  0.00  0.00    +0.000 N 
ATOM      7  N   UNL     1       4.881   3.048  19.285  0.00  0.00    +0.000 NA
ATOM      8  C   UNL     1       4.394   4.319  19.353  0.00  0.00    +0.000 A 
ATOM      9  H   UNL     1       0.472   4.146  18.496  0.00  0.00    +0.000 HD
ATOM     10  H   UNL     1       0.499   2.550  19.051  0.00  0.00    +0.000 HD
ATOM     11  H   UNL     1       3.814   0.125  19.466  0.00  0.00    +0.000 HD
ATOM     12  H   UNL     1       5.423   0.740  19.566  0.00  0.00    +0.000 HD
ENDROOT
BRANCH   1  16
ATOM     13  C   UNL     1       1.502   8.702  19.540  0.00  0.00    +0.000 A 
ATOM     14  C   UNL     1       2.071   8.205  18.375  0.00  0.00    +0.000 A 
ATOM     15  C   UNL     1       2.486   6.868  18.297  0.00  0.00    +0.000 A 
ATOM     16  C   UNL     1       2.431   5.991  19.397  0.00  0.00    +0.000 A 
ATOM     17  C   UNL     1       1.844   6.515  20.560  0.00  0.00    +0.000 A 
ATOM     18  C   UNL     1       1.364   7.837  20.626  0.00  0.00    +0.000 A 
BRANCH  13  22
ATOM     19  C   UNL     1       0.301  12.081  20.696  0.00  0.00    +0.000 C 
ATOM     20  C   UNL     1       0.922  10.722  20.889  0.00  0.00    +0.000 C 
ATOM     21  O   UNL     1       1.193  10.318  22.016  0.00  0.00    +0.000 OA
ATOM     22  N   UNL     1       1.096  10.045  19.697  0.00  0.00    +0.000 N 
ATOM     23  H   UNL     1       0.920  10.561  18.844  0.00  0.00    +0.000 HD
ENDBRANCH  13  22
ENDBRANCH   1  16
BRANCH   8  24
ATOM     24  C   UNL     1       5.501   5.336  19.518  0.00  0.00    +0.000 C 
BRANCH  24  25
ATOM     25  O   UNL     1       6.811   4.803  19.370  0.00  0.00    +0.000 OA
BRANCH  25  26
ATOM     26  C   UNL     1       7.565   5.491  18.374  0.00  0.00    +0.000 C 
BRANCH  26  27
ATOM     27  C   UNL     1       6.836   5.366  17.065  0.00  0.00    +0.000 A 
ATOM     28  C   UNL     1       7.035   4.236  16.255  0.00  0.00    +0.000 A 
ATOM     29  C   UNL     1       6.359   4.110  15.043  0.00  0.00    +0.000 A 
ATOM     30  C   UNL     1       5.481   5.108  14.626  0.00  0.00    +0.000 A 
ATOM     31  C   UNL     1       5.277   6.235  15.422  0.00  0.00    +0.000 A 
ATOM     32  C   UNL     1       5.951   6.362  16.637  0.00  0.00    +0.000 A 
ENDBRANCH  26  27
ENDBRANCH  25  26
ENDBRANCH  24  25
ENDBRANCH   8  24
TORSDOF 6
ENDMDL
MODEL 9
REMARK VINA RESULT:      -7.8      1.631      2.197
REMARK  Name = 
REMARK  7 active torsions:
REMARK  status: ('A' for Active; 'I' for Inactive)
REMARK    1  A    between atoms: C_1  and  C_2
REMARK    2  A    between atoms: N_4  and  C_5
REMARK    3  A    between atoms: C_8  and  C_9
REMARK    4  A    between atoms: C_16  and  C_17
REMARK    5  A    between atoms: C_17  and  O_18
REMARK    6  A    between atoms: O_18  and  C_19
REMARK    7  A    between atoms: C_19  and  C_20
REMARK                            x       y       z     vdW  Elec       q    Type
REMARK                         _______ _______ _______ _____ _____    ______ ____
ROOT
ATOM      1  C   UNL     1       3.215   5.684  19.211  0.00  0.00    +0.000 A 
ATOM      2  C   UNL     1       2.618   4.669  19.985  0.00  0.00    +0.000 A 
ATOM      3  N   UNL     1       1.412   4.843  20.670  0.00  0.00    +0.000 N 
ATOM      4  N   UNL     1       3.144   3.445  20.191  0.00  0.00    +0.000 NA
ATOM      5  C   UNL     1       4.290   3.177  19.593  0.00  0.00    +0.000 A 
ATOM      6  N   UNL     1       4.852   1.935  19.800  0.00  0.00    +0.000 N 
ATOM      7  N   UNL     1       4.971   4.040  18.849  0.00  0.00    +0.000 NA
ATOM      8  C   UNL     1       4.437   5.279  18.655  0.00  0.00    +0.000 A 
ATOM      9  H   UNL     1       0.676   5.198  20.069  0.00  0.00    +0.000 HD
ATOM     10  H   UNL     1       1.172   3.956  21.102  0.00  0.00    +0.000 HD
ATOM     11  H   UNL     1       4.503   1.555  20.672  0.00  0.00    +0.000 HD
ATOM     12  H   UNL     1       5.852   1.986  19.687  0.00  0.00    +0.000 HD
ENDROOT
BRANCH   1  16
ATOM     13  C   UNL     1       1.172   9.512  18.748  0.00  0.00    +0.000 A 
ATOM     14  C   UNL     1       1.277   8.893  19.987  0.00  0.00    +0.000 A 
ATOM     15  C   UNL     1       2.001   7.702  20.131  0.00  0.00    +0.000 A 
ATOM     16  C   UNL     1       2.583   7.030  19.039  0.00  0.00    +0.000 A 
ATOM     17  C   UNL     1       2.471   7.680  17.799  0.00  0.00    +0.000 A 
ATOM     18  C   UNL     1       1.802   8.911  17.657  0.00  0.00    +0.000 A 
BRANCH  13  22
ATOM     19  C   UNL     1      -1.381  12.172  17.971  0.00  0.00    +0.000 C 
ATOM     20  C   UNL     1      -0.941  10.792  18.385  0.00  0.00    +0.000 C 
ATOM     21  O   UNL     1      -1.769   9.897  18.537  0.00  0.00    +0.000 OA
ATOM     22  N   UNL     1       0.429  10.691  18.525  0.00  0.00    +0.000 N 
ATOM     23  H   UNL     1       0.963  11.550  18.468  0.00  0.00    +0.000 HD
ENDBRANCH  13  22
ENDBRANCH   1  16
BRANCH   8  24
ATOM     24  C   UNL     1       5.343   6.155  17.820  0.00  0.00    +0.000 C 
BRANCH  24  25
ATOM     25  O   UNL     1       5.443   5.762  16.457  0.00  0.00    +0.000 OA
BRANCH  25  26
ATOM     26  C   UNL     1       6.783   5.453  16.080  0.00  0.00    +0.000 C 
BRANCH  26  27
ATOM     27  C   UNL     1       6.763   4.916  14.676  0.00  0.00    +0.000 A 
ATOM     28  C   UNL     1       5.808   3.955  14.304  0.00  0.00    +0.000 A 
ATOM     29  C   UNL     1       5.779   3.456  13.004  0.00  0.00    +0.000 A 
ATOM     30  C   UNL     1       6.702   3.907  12.062  0.00  0.00    +0.000 A 
ATOM     31  C   UNL     1       7.656   4.860  12.421  0.00  0.00    +0.000 A 
ATOM     32  C   UNL     1       7.684   5.362  13.722  0.00  0.00    +0.000 A 
ENDBRANCH  26  27
ENDBRANCH  25  26
ENDBRANCH  24  25
ENDBRANCH   8  24
TORSDOF 6
ENDMDL
