MODEL 1
REMARK VINA RESULT:      -9.2      0.000      0.000
REMARK  Name = 
REMARK  5 active torsions:
REMARK  status: ('A' for Active; 'I' for Inactive)
REMARK    1  A    between atoms: C_1  and  C_2
REMARK    2  A    between atoms: C_2  and  O_3
REMARK    3  A    between atoms: O_3  and  C_4
REMARK    4  A    between atoms: C_4  and  C_6
REMARK    5  A    between atoms: C_6  and  N_7
REMARK                            x       y       z     vdW  Elec       q    Type
REMARK                         _______ _______ _______ _____ _____    ______ ____
ROOT
ATOM      1  N   UNL     1       4.440   4.976  16.775  0.00  0.00    +0.000 N 
ATOM      2  C   UNL     1       3.682   5.490  17.805  0.00  0.00    +0.000 A 
ATOM      3  N   UNL     1       3.277   6.727  17.735  0.00  0.00    +0.000 NA
ATOM      4  N   UNL     1       2.499   7.275  18.731  0.00  0.00    +0.000 N 
ATOM      5  C   UNL     1       2.092   8.599  18.521  0.00  0.00    +0.000 A 
ATOM      6  O   UNL     1       2.369   9.291  17.538  0.00  0.00    +0.000 OA
ATOM      7  C   UNL     1       1.255   9.189  19.584  0.00  0.00    +0.000 A 
ATOM      8  C   UNL     1       0.777  10.503  19.483  0.00  0.00    +0.000 A 
ATOM      9  C   UNL     1       0.005  11.028  20.517  0.00  0.00    +0.000 A 
ATOM     10 BR   UNL     1      -0.648  12.797  20.400  0.00  0.00    +0.000 Br
ATOM     11  C   UNL     1      -0.289  10.257  21.641  0.00  0.00    +0.000 A 
ATOM     12  C   UNL     1       0.189   8.948  21.725  0.00  0.00    +0.000 A 
ATOM     13  C   UNL     1       0.963   8.404  20.695  0.00  0.00    +0.000 A 
ATOM     14  N   UNL     1       1.406   7.085  20.824  0.00  0.00    +0.000 NA
ATOM     15  C   UNL     1       2.129   6.576  19.873  0.00  0.00    +0.000 A 
ATOM     16  C   UNL     1       2.596   5.183  19.990  0.00  0.00    +0.000 A 
ATOM     17  C   UNL     1       2.282   4.427  21.130  0.00  0.00    +0.000 A 
ATOM     18  C   UNL     1       2.728   3.111  21.245  0.00  0.00    +0.000 A 
ATOM     19  C   UNL     1       3.488   2.550  20.225  0.00  0.00    +0.000 A 
ATOM     20  C   UNL     1       3.802   3.301  19.089  0.00  0.00    +0.000 A 
ATOM     21  C   UNL     1       3.352   4.626  18.968  0.00  0.00    +0.000 A 
ATOM     22  H   UNL     1       4.805   4.030  16.846  0.00  0.00    +0.000 HD
ENDROOT
BRANCH   1  23
ATOM     23  C   UNL     1       5.319   5.817  15.956  0.00  0.00    +0.000 C 
BRANCH  23  24
ATOM     24  C   UNL     1       6.765   5.430  16.244  0.00  0.00    +0.000 C 
ATOM     25  O   UNL     1       7.143   4.269  16.379  0.00  0.00    +0.000 OA
BRANCH  24  26
ATOM     26  O   UNL     1       7.527   6.538  16.443  0.00  0.00    +0.000 OA
BRANCH  26  28
ATOM     27  C   UNL     1       7.937   8.513  17.714  0.00  0.00    +0.000 C 
ATOM     28  C   UNL     1       7.501   7.060  17.780  0.00  0.00    +0.000 C 
ENDBRANCH  26  28
ENDBRANCH  24  26
ENDBRANCH  23  24
ENDBRANCH   1  23
TORSDOF 4
ENDMDL
MODEL 2
REMARK VINA RESULT:      -8.9      1.203      2.014
REMARK  Name = 
REMARK  5 active torsions:
REMARK  status: ('A' for Active; 'I' for Inactive)
REMARK    1  A    between atoms: C_1  and  C_2
REMARK    2  A    between atoms: C_2  and  O_3
REMARK    3  A    between atoms: O_3  and  C_4
REMARK    4  A    between atoms: C_4  and  C_6
REMARK    5  A    between atoms: C_6  and  N_7
REMARK                            x       y       z     vdW  Elec       q    Type
REMARK                         _______ _______ _______ _____ _____    ______ ____
ROOT
ATOM      1  N   UNL     1       4.397   4.757  16.850  0.00  0.00    +0.000 N 
ATOM      2  C   UNL     1       3.652   5.323  17.863  0.00  0.00    +0.000 A 
ATOM      3  N   UNL     1       3.273   6.564  17.750  0.00  0.00    +0.000 NA
ATOM      4  N   UNL     1       2.508   7.162  18.727  0.00  0.00    +0.000 N 
ATOM      5  C   UNL     1       2.128   8.487  18.472  0.00  0.00    +0.000 A 
ATOM      6  O   UNL     1       2.418   9.139  17.466  0.00  0.00    +0.000 OA
ATOM      7  C   UNL     1       1.306   9.131  19.515  0.00  0.00    +0.000 A 
ATOM      8  C   UNL     1       0.855  10.450  19.369  0.00  0.00    +0.000 A 
ATOM      9  C   UNL     1       0.096  11.026  20.385  0.00  0.00    +0.000 A 
ATOM     10 BR   UNL     1      -0.520  12.804  20.207  0.00  0.00    +0.000 Br
ATOM     11  C   UNL     1      -0.212  10.301  21.535  0.00  0.00    +0.000 A 
ATOM     12  C   UNL     1       0.238   8.986  21.664  0.00  0.00    +0.000 A 
ATOM     13  C   UNL     1       0.998   8.390  20.653  0.00  0.00    +0.000 A 
ATOM     14  N   UNL     1       1.414   7.067  20.827  0.00  0.00    +0.000 NA
ATOM     15  C   UNL     1       2.124   6.511  19.894  0.00  0.00    +0.000 A 
ATOM     16  C   UNL     1       2.563   5.114  20.057  0.00  0.00    +0.000 A 
ATOM     17  C   UNL     1       2.234   4.403  21.223  0.00  0.00    +0.000 A 
ATOM     18  C   UNL     1       2.653   3.084  21.383  0.00  0.00    +0.000 A 
ATOM     19  C   UNL     1       3.400   2.471  20.383  0.00  0.00    +0.000 A 
ATOM     20  C   UNL     1       3.727   3.177  19.222  0.00  0.00    +0.000 A 
ATOM     21  C   UNL     1       3.305   4.505  19.055  0.00  0.00    +0.000 A 
ATOM     22  H   UNL     1       4.742   3.807  16.954  0.00  0.00    +0.000 HD
ENDROOT
BRANCH   1  23
ATOM     23  C   UNL     1       5.293   5.550  16.002  0.00  0.00    +0.000 C 
BRANCH  23  24
ATOM     24  C   UNL     1       6.420   4.649  15.513  0.00  0.00    +0.000 C 
ATOM     25  O   UNL     1       7.588   4.765  15.876  0.00  0.00    +0.000 OA
BRANCH  24  26
ATOM     26  O   UNL     1       5.972   3.800  14.550  0.00  0.00    +0.000 OA
BRANCH  26  28
ATOM     27  C   UNL     1       5.714   3.227  12.250  0.00  0.00    +0.000 C 
ATOM     28  C   UNL     1       6.561   3.988  13.254  0.00  0.00    +0.000 C 
ENDBRANCH  26  28
ENDBRANCH  24  26
ENDBRANCH  23  24
ENDBRANCH   1  23
TORSDOF 4
ENDMDL
MODEL 3
REMARK VINA RESULT:      -8.9      0.751      1.049
REMARK  Name = 
REMARK  5 active torsions:
REMARK  status: ('A' for Active; 'I' for Inactive)
REMARK    1  A    between atoms: C_1  and  C_2
REMARK    2  A    between atoms: C_2  and  O_3
REMARK    3  A    between atoms: O_3  and  C_4
REMARK    4  A    between atoms: C_4  and  C_6
REMARK    5  A    between atoms: C_6  and  N_7
REMARK                            x       y       z     vdW  Elec       q    Type
REMARK                         _______ _______ _______ _____ _____    ______ ____
ROOT
ATOM      1  N   UNL     1       4.386   5.104  16.772  0.00  0.00    +0.000 N 
ATOM      2  C   UNL     1       3.623   5.581  17.817  0.00  0.00    +0.000 A 
ATOM      3  N   UNL     1       3.197   6.811  17.778  0.00  0.00    +0.000 NA
ATOM      4  N   UNL     1       2.413   7.321  18.789  0.00  0.00    +0.000 N 
ATOM      5  C   UNL     1       1.982   8.643  18.613  0.00  0.00    +0.000 A 
ATOM      6  O   UNL     1       2.243   9.363  17.646  0.00  0.00    +0.000 OA
ATOM      7  C   UNL     1       1.139   9.193  19.692  0.00  0.00    +0.000 A 
ATOM      8  C   UNL     1       0.638  10.500  19.625  0.00  0.00    +0.000 A 
ATOM      9  C   UNL     1      -0.140  10.986  20.674  0.00  0.00    +0.000 A 
ATOM     10 BR   UNL     1      -0.823  12.746  20.602  0.00  0.00    +0.000 Br
ATOM     11  C   UNL     1      -0.416  10.184  21.780  0.00  0.00    +0.000 A 
ATOM     12  C   UNL     1       0.085   8.881  21.831  0.00  0.00    +0.000 A 
ATOM     13  C   UNL     1       0.865   8.376  20.786  0.00  0.00    +0.000 A 
ATOM     14  N   UNL     1       1.331   7.062  20.881  0.00  0.00    +0.000 NA
ATOM     15  C   UNL     1       2.059   6.588  19.916  0.00  0.00    +0.000 A 
ATOM     16  C   UNL     1       2.551   5.202  19.997  0.00  0.00    +0.000 A 
ATOM     17  C   UNL     1       2.254   4.413  21.120  0.00  0.00    +0.000 A 
ATOM     18  C   UNL     1       2.724   3.103  21.202  0.00  0.00    +0.000 A 
ATOM     19  C   UNL     1       3.490   2.579  20.166  0.00  0.00    +0.000 A 
ATOM     20  C   UNL     1       3.786   3.364  19.048  0.00  0.00    +0.000 A 
ATOM     21  C   UNL     1       3.313   4.683  18.960  0.00  0.00    +0.000 A 
ATOM     22  H   UNL     1       4.767   4.164  16.819  0.00  0.00    +0.000 HD
ENDROOT
BRANCH   1  23
ATOM     23  C   UNL     1       5.247   5.980  15.970  0.00  0.00    +0.000 C 
BRANCH  23  24
ATOM     24  C   UNL     1       6.670   5.883  16.508  0.00  0.00    +0.000 C 
ATOM     25  O   UNL     1       7.525   6.746  16.324  0.00  0.00    +0.000 OA
BRANCH  24  26
ATOM     26  O   UNL     1       6.878   4.678  17.101  0.00  0.00    +0.000 OA
BRANCH  26  28
ATOM     27  C   UNL     1       6.994   5.506  19.334  0.00  0.00    +0.000 C 
ATOM     28  C   UNL     1       7.719   4.711  18.263  0.00  0.00    +0.000 C 
ENDBRANCH  26  28
ENDBRANCH  24  26
ENDBRANCH  23  24
ENDBRANCH   1  23
TORSDOF 4
ENDMDL
MODEL 4
REMARK VINA RESULT:      -8.7      2.528      4.654
REMARK  Name = 
REMARK  5 active torsions:
REMARK  status: ('A' for Active; 'I' for Inactive)
REMARK    1  A    between atoms: C_1  and  C_2
REMARK    2  A    between atoms: C_2  and  O_3
REMARK    3  A    between atoms: O_3  and  C_4
REMARK    4  A    between atoms: C_4  and  C_6
REMARK    5  A    between atoms: C_6  and  N_7
REMARK                            x       y       z     vdW  Elec       q    Type
REMARK                         _______ _______ _______ _____ _____    ______ ____
ROOT
ATOM      1  N   UNL     1       5.128   3.153  19.226  0.00  0.00    +0.000 N 
ATOM      2  C   UNL     1       4.653   4.361  18.762  0.00  0.00    +0.000 A 
ATOM      3  N   UNL     1       3.775   5.009  19.472  0.00  0.00    +0.000 NA
ATOM      4  N   UNL     1       3.290   6.230  19.058  0.00  0.00    +0.000 N 
ATOM      5  C   UNL     1       2.381   6.848  19.928  0.00  0.00    +0.000 A 
ATOM      6  O   UNL     1       1.995   6.394  21.008  0.00  0.00    +0.000 OA
ATOM      7  C   UNL     1       1.862   8.158  19.490  0.00  0.00    +0.000 A 
ATOM      8  C   UNL     1       0.956   8.879  20.279  0.00  0.00    +0.000 A 
ATOM      9  C   UNL     1       0.477  10.104  19.821  0.00  0.00    +0.000 A 
ATOM     10 BR   UNL     1      -0.747  11.089  20.871  0.00  0.00    +0.000 Br
ATOM     11  C   UNL     1       0.891  10.608  18.589  0.00  0.00    +0.000 A 
ATOM     12  C   UNL     1       1.800   9.882  17.815  0.00  0.00    +0.000 A 
ATOM     13  C   UNL     1       2.293   8.653  18.262  0.00  0.00    +0.000 A 
ATOM     14  N   UNL     1       3.209   7.973  17.454  0.00  0.00    +0.000 NA
ATOM     15  C   UNL     1       3.668   6.829  17.862  0.00  0.00    +0.000 A 
ATOM     16  C   UNL     1       4.641   6.103  17.026  0.00  0.00    +0.000 A 
ATOM     17  C   UNL     1       5.047   6.636  15.792  0.00  0.00    +0.000 A 
ATOM     18  C   UNL     1       5.963   5.949  14.998  0.00  0.00    +0.000 A 
ATOM     19  C   UNL     1       6.474   4.730  15.431  0.00  0.00    +0.000 A 
ATOM     20  C   UNL     1       6.071   4.199  16.659  0.00  0.00    +0.000 A 
ATOM     21  C   UNL     1       5.151   4.889  17.465  0.00  0.00    +0.000 A 
ATOM     22  H   UNL     1       5.773   2.616  18.653  0.00  0.00    +0.000 HD
ENDROOT
BRANCH   1  23
ATOM     23  C   UNL     1       4.323   2.271  20.076  0.00  0.00    +0.000 C 
BRANCH  23  24
ATOM     24  C   UNL     1       3.312   1.543  19.198  0.00  0.00    +0.000 C 
ATOM     25  O   UNL     1       3.594   1.037  18.114  0.00  0.00    +0.000 OA
BRANCH  24  26
ATOM     26  O   UNL     1       2.062   1.641  19.723  0.00  0.00    +0.000 OA
BRANCH  26  28
ATOM     27  C   UNL     1       0.618   3.517  20.005  0.00  0.00    +0.000 C 
ATOM     28  C   UNL     1       1.171   2.512  19.010  0.00  0.00    +0.000 C 
ENDBRANCH  26  28
ENDBRANCH  24  26
ENDBRANCH  23  24
ENDBRANCH   1  23
TORSDOF 4
ENDMDL
MODEL 5
REMARK VINA RESULT:      -8.5      0.972      1.573
REMARK  Name = 
REMARK  5 active torsions:
REMARK  status: ('A' for Active; 'I' for Inactive)
REMARK    1  A    between atoms: C_1  and  C_2
REMARK    2  A    between atoms: C_2  and  O_3
REMARK    3  A    between atoms: O_3  and  C_4
REMARK    4  A    between atoms: C_4  and  C_6
REMARK    5  A    between atoms: C_6  and  N_7
REMARK                            x       y       z     vdW  Elec       q    Type
REMARK                         _______ _______ _______ _____ _____    ______ ____
ROOT
ATOM      1  N   UNL     1       4.220   5.611  16.986  0.00  0.00    +0.000 N 
ATOM      2  C   UNL     1       3.436   5.989  18.056  0.00  0.00    +0.000 A 
ATOM      3  N   UNL     1       3.016   7.220  18.127  0.00  0.00    +0.000 NA
ATOM      4  N   UNL     1       2.212   7.635  19.167  0.00  0.00    +0.000 N 
ATOM      5  C   UNL     1       1.791   8.970  19.110  0.00  0.00    +0.000 A 
ATOM      6  O   UNL     1       2.076   9.779  18.224  0.00  0.00    +0.000 OA
ATOM      7  C   UNL     1       0.927   9.418  20.220  0.00  0.00    +0.000 A 
ATOM      8  C   UNL     1       0.433  10.728  20.269  0.00  0.00    +0.000 A 
ATOM      9  C   UNL     1      -0.365  11.115  21.343  0.00  0.00    +0.000 A 
ATOM     10 BR   UNL     1      -1.040  12.878  21.428  0.00  0.00    +0.000 Br
ATOM     11  C   UNL     1      -0.669  10.211  22.360  0.00  0.00    +0.000 A 
ATOM     12  C   UNL     1      -0.175   8.906  22.295  0.00  0.00    +0.000 A 
ATOM     13  C   UNL     1       0.625   8.500  21.223  0.00  0.00    +0.000 A 
ATOM     14  N   UNL     1       1.084   7.180  21.200  0.00  0.00    +0.000 NA
ATOM     15  C   UNL     1       1.830   6.798  20.209  0.00  0.00    +0.000 A 
ATOM     16  C   UNL     1       2.315   5.407  20.166  0.00  0.00    +0.000 A 
ATOM     17  C   UNL     1       1.990   4.514  21.200  0.00  0.00    +0.000 A 
ATOM     18  C   UNL     1       2.452   3.200  21.164  0.00  0.00    +0.000 A 
ATOM     19  C   UNL     1       3.238   2.774  20.099  0.00  0.00    +0.000 A 
ATOM     20  C   UNL     1       3.562   3.662  19.069  0.00  0.00    +0.000 A 
ATOM     21  C   UNL     1       3.096   4.986  19.099  0.00  0.00    +0.000 A 
ATOM     22  H   UNL     1       4.596   4.668  16.950  0.00  0.00    +0.000 HD
ENDROOT
BRANCH   1  23
ATOM     23  C   UNL     1       5.102   6.555  16.292  0.00  0.00    +0.000 C 
BRANCH  23  24
ATOM     24  C   UNL     1       6.541   6.258  16.697  0.00  0.00    +0.000 C 
ATOM     25  O   UNL     1       7.004   6.527  17.803  0.00  0.00    +0.000 OA
BRANCH  24  26
ATOM     26  O   UNL     1       7.248   5.777  15.640  0.00  0.00    +0.000 OA
BRANCH  26  28
ATOM     27  C   UNL     1       6.342   4.228  14.071  0.00  0.00    +0.000 C 
ATOM     28  C   UNL     1       7.083   4.374  15.388  0.00  0.00    +0.000 C 
ENDBRANCH  26  28
ENDBRANCH  24  26
ENDBRANCH  23  24
ENDBRANCH   1  23
TORSDOF 4
ENDMDL
MODEL 6
REMARK VINA RESULT:      -8.3      2.617      4.822
REMARK  Name = 
REMARK  5 active torsions:
REMARK  status: ('A' for Active; 'I' for Inactive)
REMARK    1  A    between atoms: C_1  and  C_2
REMARK    2  A    between atoms: C_2  and  O_3
REMARK    3  A    between atoms: O_3  and  C_4
REMARK    4  A    between atoms: C_4  and  C_6
REMARK    5  A    between atoms: C_6  and  N_7
REMARK                            x       y       z     vdW  Elec       q    Type
REMARK                         _______ _______ _______ _____ _____    ______ ____
ROOT
ATOM      1  N   UNL     1       4.889   2.681  18.729  0.00  0.00    +0.000 N 
ATOM      2  C   UNL     1       4.506   3.958  18.378  0.00  0.00    +0.000 A 
ATOM      3  N   UNL     1       3.662   4.595  19.140  0.00  0.00    +0.000 NA
ATOM      4  N   UNL     1       3.269   5.881  18.840  0.00  0.00    +0.000 N 
ATOM      5  C   UNL     1       2.391   6.475  19.756  0.00  0.00    +0.000 A 
ATOM      6  O   UNL     1       1.957   5.948  20.784  0.00  0.00    +0.000 OA
ATOM      7  C   UNL     1       1.970   7.854  19.441  0.00  0.00    +0.000 A 
ATOM      8  C   UNL     1       1.102   8.558  20.287  0.00  0.00    +0.000 A 
ATOM      9  C   UNL     1       0.716   9.851  19.943  0.00  0.00    +0.000 A 
ATOM     10 BR   UNL     1      -0.454  10.815  21.071  0.00  0.00    +0.000 Br
ATOM     11  C   UNL     1       1.183  10.440  18.770  0.00  0.00    +0.000 A 
ATOM     12  C   UNL     1       2.052   9.730  17.938  0.00  0.00    +0.000 A 
ATOM     13  C   UNL     1       2.454   8.432  18.270  0.00  0.00    +0.000 A 
ATOM     14  N   UNL     1       3.334   7.769  17.410  0.00  0.00    +0.000 NA
ATOM     15  C   UNL     1       3.706   6.562  17.710  0.00  0.00    +0.000 A 
ATOM     16  C   UNL     1       4.640   5.854  16.818  0.00  0.00    +0.000 A 
ATOM     17  C   UNL     1       5.102   6.472  15.644  0.00  0.00    +0.000 A 
ATOM     18  C   UNL     1       5.981   5.801  14.796  0.00  0.00    +0.000 A 
ATOM     19  C   UNL     1       6.400   4.514  15.116  0.00  0.00    +0.000 A 
ATOM     20  C   UNL     1       5.942   3.897  16.284  0.00  0.00    +0.000 A 
ATOM     21  C   UNL     1       5.059   4.571  17.143  0.00  0.00    +0.000 A 
ATOM     22  H   UNL     1       5.505   2.157  18.114  0.00  0.00    +0.000 HD
ENDROOT
BRANCH   1  23
ATOM     23  C   UNL     1       4.011   1.781  19.484  0.00  0.00    +0.000 C 
BRANCH  23  24
ATOM     24  C   UNL     1       4.423   1.821  20.950  0.00  0.00    +0.000 C 
ATOM     25  O   UNL     1       5.521   1.450  21.358  0.00  0.00    +0.000 OA
BRANCH  24  26
ATOM     26  O   UNL     1       3.378   2.204  21.732  0.00  0.00    +0.000 OA
BRANCH  26  28
ATOM     27  C   UNL     1       1.078   2.735  22.067  0.00  0.00    +0.000 C 
ATOM     28  C   UNL     1       2.142   2.413  21.033  0.00  0.00    +0.000 C 
ENDBRANCH  26  28
ENDBRANCH  24  26
ENDBRANCH  23  24
ENDBRANCH   1  23
TORSDOF 4
ENDMDL
MODEL 7
REMARK VINA RESULT:      -8.1      2.629      4.790
REMARK  Name = 
REMARK  5 active torsions:
REMARK  status: ('A' for Active; 'I' for Inactive)
REMARK    1  A    between atoms: C_1  and  C_2
REMARK    2  A    between atoms: C_2  and  O_3
REMARK    3  A    between atoms: O_3  and  C_4
REMARK    4  A    between atoms: C_4  and  C_6
REMARK    5  A    between atoms: C_6  and  N_7
REMARK                            x       y       z     vdW  Elec       q    Type
REMARK                         _______ _______ _______ _____ _____    ______ ____
ROOT
ATOM      1  N   UNL     1       4.621   2.695  18.796  0.00  0.00    +0.000 N 
ATOM      2  C   UNL     1       4.294   3.986  18.439  0.00  0.00    +0.000 A 
ATOM      3  N   UNL     1       3.459   4.654  19.184  0.00  0.00    +0.000 NA
ATOM      4  N   UNL     1       3.121   5.954  18.877  0.00  0.00    +0.000 N 
ATOM      5  C   UNL     1       2.247   6.580  19.776  0.00  0.00    +0.000 A 
ATOM      6  O   UNL     1       1.772   6.069  20.793  0.00  0.00    +0.000 OA
ATOM      7  C   UNL     1       1.885   7.974  19.454  0.00  0.00    +0.000 A 
ATOM      8  C   UNL     1       1.027   8.709  20.283  0.00  0.00    +0.000 A 
ATOM      9  C   UNL     1       0.697  10.016  19.933  0.00  0.00    +0.000 A 
ATOM     10 BR   UNL     1      -0.460  11.023  21.037  0.00  0.00    +0.000 Br
ATOM     11  C   UNL     1       1.212  10.589  18.771  0.00  0.00    +0.000 A 
ATOM     12  C   UNL     1       2.071   9.847  17.957  0.00  0.00    +0.000 A 
ATOM     13  C   UNL     1       2.416   8.534  18.295  0.00  0.00    +0.000 A 
ATOM     14  N   UNL     1       3.288   7.840  17.453  0.00  0.00    +0.000 NA
ATOM     15  C   UNL     1       3.608   6.619  17.758  0.00  0.00    +0.000 A 
ATOM     16  C   UNL     1       4.534   5.877  16.886  0.00  0.00    +0.000 A 
ATOM     17  C   UNL     1       5.044   6.478  15.724  0.00  0.00    +0.000 A 
ATOM     18  C   UNL     1       5.915   5.775  14.893  0.00  0.00    +0.000 A 
ATOM     19  C   UNL     1       6.279   4.473  15.220  0.00  0.00    +0.000 A 
ATOM     20  C   UNL     1       5.773   3.873  16.376  0.00  0.00    +0.000 A 
ATOM     21  C   UNL     1       4.897   4.579  17.217  0.00  0.00    +0.000 A 
ATOM     22  H   UNL     1       5.230   2.149  18.193  0.00  0.00    +0.000 HD
ENDROOT
BRANCH   1  23
ATOM     23  C   UNL     1       3.694   1.828  19.529  0.00  0.00    +0.000 C 
BRANCH  23  24
ATOM     24  C   UNL     1       3.997   1.945  21.018  0.00  0.00    +0.000 C 
ATOM     25  O   UNL     1       3.190   2.364  21.844  0.00  0.00    +0.000 OA
BRANCH  24  26
ATOM     26  O   UNL     1       5.298   1.639  21.269  0.00  0.00    +0.000 OA
BRANCH  26  28
ATOM     27  C   UNL     1       6.462  -0.136  22.356  0.00  0.00    +0.000 C 
ATOM     28  C   UNL     1       5.628   0.247  21.146  0.00  0.00    +0.000 C 
ENDBRANCH  26  28
ENDBRANCH  24  26
ENDBRANCH  23  24
ENDBRANCH   1  23
TORSDOF 4
ENDMDL
MODEL 8
REMARK VINA RESULT:      -7.8      3.266      7.135
REMARK  Name = 
REMARK  5 active torsions:
REMARK  status: ('A' for Active; 'I' for Inactive)
REMARK    1  A    between atoms: C_1  and  C_2
REMARK    2  A    between atoms: C_2  and  O_3
REMARK    3  A    between atoms: O_3  and  C_4
REMARK    4  A    between atoms: C_4  and  C_6
REMARK    5  A    between atoms: C_6  and  N_7
REMARK                            x       y       z     vdW  Elec       q    Type
REMARK                         _______ _______ _______ _____ _____    ______ ____
ROOT
ATOM      1  N   UNL     1       1.869   7.053  20.697  0.00  0.00    +0.000 N 
ATOM      2  C   UNL     1       2.428   6.165  19.802  0.00  0.00    +0.000 A 
ATOM      3  N   UNL     1       3.216   6.620  18.869  0.00  0.00    +0.000 NA
ATOM      4  N   UNL     1       3.814   5.767  17.968  0.00  0.00    +0.000 N 
ATOM      5  C   UNL     1       4.672   6.371  17.039  0.00  0.00    +0.000 A 
ATOM      6  O   UNL     1       4.926   7.577  16.971  0.00  0.00    +0.000 OA
ATOM      7  C   UNL     1       5.317   5.461  16.074  0.00  0.00    +0.000 A 
ATOM      8  C   UNL     1       6.204   5.945  15.103  0.00  0.00    +0.000 A 
ATOM      9  C   UNL     1       6.778   5.053  14.200  0.00  0.00    +0.000 A 
ATOM     10 BR   UNL     1       7.976   5.688  12.883  0.00  0.00    +0.000 Br
ATOM     11  C   UNL     1       6.474   3.694  14.257  0.00  0.00    +0.000 A 
ATOM     12  C   UNL     1       5.592   3.224  15.234  0.00  0.00    +0.000 A 
ATOM     13  C   UNL     1       5.010   4.104  16.151  0.00  0.00    +0.000 A 
ATOM     14  N   UNL     1       4.144   3.581  17.115  0.00  0.00    +0.000 NA
ATOM     15  C   UNL     1       3.596   4.394  17.966  0.00  0.00    +0.000 A 
ATOM     16  C   UNL     1       2.688   3.857  18.995  0.00  0.00    +0.000 A 
ATOM     17  C   UNL     1       2.402   2.483  19.035  0.00  0.00    +0.000 A 
ATOM     18  C   UNL     1       1.539   1.973  20.003  0.00  0.00    +0.000 A 
ATOM     19  C   UNL     1       0.959   2.832  20.931  0.00  0.00    +0.000 A 
ATOM     20  C   UNL     1       1.244   4.200  20.893  0.00  0.00    +0.000 A 
ATOM     21  C   UNL     1       2.115   4.717  19.921  0.00  0.00    +0.000 A 
ATOM     22  H   UNL     1       1.213   6.713  21.393  0.00  0.00    +0.000 HD
ENDROOT
BRANCH   1  23
ATOM     23  C   UNL     1       1.583   8.446  20.340  0.00  0.00    +0.000 C 
BRANCH  23  24
ATOM     24  C   UNL     1       1.187   9.197  21.605  0.00  0.00    +0.000 C 
ATOM     25  O   UNL     1       1.948   9.379  22.553  0.00  0.00    +0.000 OA
BRANCH  24  26
ATOM     26  O   UNL     1      -0.133   9.522  21.579  0.00  0.00    +0.000 OA
BRANCH  26  28
ATOM     27  C   UNL     1      -1.102  11.332  22.790  0.00  0.00    +0.000 C 
ATOM     28  C   UNL     1      -0.698   9.870  22.851  0.00  0.00    +0.000 C 
ENDBRANCH  26  28
ENDBRANCH  24  26
ENDBRANCH  23  24
ENDBRANCH   1  23
TORSDOF 4
ENDMDL
MODEL 9
REMARK VINA RESULT:      -7.8      3.529      7.563
REMARK  Name = 
REMARK  5 active torsions:
REMARK  status: ('A' for Active; 'I' for Inactive)
REMARK    1  A    between atoms: C_1  and  C_2
REMARK    2  A    between atoms: C_2  and  O_3
REMARK    3  A    between atoms: O_3  and  C_4
REMARK    4  A    between atoms: C_4  and  C_6
REMARK    5  A    between atoms: C_6  and  N_7
REMARK                            x       y       z     vdW  Elec       q    Type
REMARK                         _______ _______ _______ _____ _____    ______ ____
ROOT
ATOM      1  N   UNL     1      -0.499  12.246  19.151  0.00  0.00    +0.000 N 
ATOM      2  C   UNL     1       0.049  11.049  19.561  0.00  0.00    +0.000 A 
ATOM      3  N   UNL     1       0.733  10.342  18.707  0.00  0.00    +0.000 NA
ATOM      4  N   UNL     1       1.317   9.152  19.080  0.00  0.00    +0.000 N 
ATOM      5  C   UNL     1       2.062   8.504  18.084  0.00  0.00    +0.000 A 
ATOM      6  O   UNL     1       2.229   8.910  16.931  0.00  0.00    +0.000 OA
ATOM      7  C   UNL     1       2.692   7.230  18.480  0.00  0.00    +0.000 A 
ATOM      8  C   UNL     1       3.470   6.496  17.575  0.00  0.00    +0.000 A 
ATOM      9  C   UNL     1       4.034   5.290  17.984  0.00  0.00    +0.000 A 
ATOM     10 BR   UNL     1       5.085   4.284  16.778  0.00  0.00    +0.000 Br
ATOM     11  C   UNL     1       3.825   4.815  19.279  0.00  0.00    +0.000 A 
ATOM     12  C   UNL     1       3.053   5.560  20.172  0.00  0.00    +0.000 A 
ATOM     13  C   UNL     1       2.483   6.775  19.779  0.00  0.00    +0.000 A 
ATOM     14  N   UNL     1       1.728   7.487  20.715  0.00  0.00    +0.000 NA
ATOM     15  C   UNL     1       1.192   8.614  20.355  0.00  0.00    +0.000 A 
ATOM     16  C   UNL     1       0.402   9.381  21.333  0.00  0.00    +0.000 A 
ATOM     17  C   UNL     1       0.212   8.884  22.633  0.00  0.00    +0.000 A 
ATOM     18  C   UNL     1      -0.541   9.605  23.557  0.00  0.00    +0.000 A 
ATOM     19  C   UNL     1      -1.106  10.821  23.188  0.00  0.00    +0.000 A 
ATOM     20  C   UNL     1      -0.917  11.318  21.896  0.00  0.00    +0.000 A 
ATOM     21  C   UNL     1      -0.157  10.596  20.961  0.00  0.00    +0.000 A 
ATOM     22  H   UNL     1      -1.078  12.777  19.794  0.00  0.00    +0.000 HD
ENDROOT
BRANCH   1  23
ATOM     23  C   UNL     1      -0.904  12.484  17.762  0.00  0.00    +0.000 C 
BRANCH  23  24
ATOM     24  C   UNL     1      -2.170  11.683  17.482  0.00  0.00    +0.000 C 
ATOM     25  O   UNL     1      -3.213  11.818  18.117  0.00  0.00    +0.000 OA
BRANCH  24  26
ATOM     26  O   UNL     1      -1.940  10.738  16.532  0.00  0.00    +0.000 OA
BRANCH  26  28
ATOM     27  C   UNL     1      -3.126  10.114  14.560  0.00  0.00    +0.000 C 
ATOM     28  C   UNL     1      -3.107  10.039  16.077  0.00  0.00    +0.000 C 
ENDBRANCH  26  28
ENDBRANCH  24  26
ENDBRANCH  23  24
ENDBRANCH   1  23
TORSDOF 4
ENDMDL
