MODEL 1
REMARK VINA RESULT:      -7.7      0.000      0.000
REMARK  Name = 
REMARK  8 active torsions:
REMARK  status: ('A' for Active; 'I' for Inactive)
REMARK    1  A    between atoms: C_1  and  C_2
REMARK    2  A    between atoms: C_2  and  C_3
REMARK    3  A    between atoms: C_2  and  N_4
REMARK    4  A    between atoms: C_5  and  C_7
REMARK    5  A    between atoms: C_7  and  C_8
REMARK    6  A    between atoms: C_8  and  N_9
REMARK    7  A    between atoms: N_22  and  C_23
REMARK    8  A    between atoms: C_23  and  C_24
REMARK                            x       y       z     vdW  Elec       q    Type
REMARK                         _______ _______ _______ _____ _____    ______ ____
ROOT
ATOM      1  N   UNL     1       3.726   6.416  17.594  0.00  0.00    +0.000 N 
ATOM      2  C   UNL     1       3.105   7.644  17.832  0.00  0.00    +0.000 A 
ATOM      3  O   UNL     1       3.225   8.630  17.111  0.00  0.00    +0.000 OA
ATOM      4  C   UNL     1       2.261   7.751  19.043  0.00  0.00    +0.000 A 
ATOM      5  C   UNL     1       1.681   8.990  19.359  0.00  0.00    +0.000 A 
ATOM      6  C   UNL     1       0.911   9.107  20.507  0.00  0.00    +0.000 A 
ATOM      7 CL   UNL     1       0.220  10.629  20.919  0.00  0.00    +0.000 Cl
ATOM      8  C   UNL     1       0.713   8.003  21.331  0.00  0.00    +0.000 A 
ATOM      9  C   UNL     1       1.284   6.762  21.007  0.00  0.00    +0.000 A 
ATOM     10  C   UNL     1       2.070   6.627  19.859  0.00  0.00    +0.000 A 
ATOM     11  N   UNL     1       2.703   5.433  19.480  0.00  0.00    +0.000 N 
ATOM     12  C   UNL     1       2.679   4.164  20.048  0.00  0.00    +0.000 A 
ATOM     13  O   UNL     1       2.065   3.769  21.026  0.00  0.00    +0.000 OA
ATOM     14  N   UNL     1       3.523   3.387  19.235  0.00  0.00    +0.000 N 
ATOM     15  N   UNL     1       4.060   4.174  18.258  0.00  0.00    +0.000 NA
ATOM     16  C   UNL     1       3.525   5.345  18.417  0.00  0.00    +0.000 A 
ENDROOT
BRANCH   1  17
ATOM     17  C   UNL     1       4.685   6.378  16.473  0.00  0.00    +0.000 C 
BRANCH  17  18
ATOM     18  C   UNL     1       6.157   6.314  16.852  0.00  0.00    +0.000 C 
BRANCH  18  20
ATOM     19  N   UNL     1       6.498   5.375  14.690  0.00  0.00    +0.000 N 
ATOM     20  C   UNL     1       6.931   5.350  15.999  0.00  0.00    +0.000 C 
ATOM     21  O   UNL     1       7.817   4.621  16.424  0.00  0.00    +0.000 OA
ATOM     22  H   UNL     1       5.648   5.885  14.471  0.00  0.00    +0.000 HD
BRANCH  19  24
ATOM     23  C   UNL     1       5.879   3.680  13.039  0.00  0.00    +0.000 C 
ATOM     24  C   UNL     1       7.017   4.450  13.702  0.00  0.00    +0.000 C 
ATOM     25  C   UNL     1       7.842   5.215  12.676  0.00  0.00    +0.000 C 
ENDBRANCH  19  24
ENDBRANCH  18  20
ENDBRANCH  17  18
ENDBRANCH   1  17
BRANCH  14  26
ATOM     26  C   UNL     1       3.849   1.956  19.336  0.00  0.00    +0.000 C 
BRANCH  26  27
ATOM     27  C   UNL     1       4.743   1.670  20.531  0.00  0.00    +0.000 C 
ATOM     28  N   UNL     1       5.486   1.433  21.523  0.00  0.00    +0.000 NA
ENDBRANCH  26  27
ENDBRANCH  14  26
TORSDOF 6
ENDMDL
MODEL 2
REMARK VINA RESULT:      -7.5      1.014      1.110
REMARK  Name = 
REMARK  8 active torsions:
REMARK  status: ('A' for Active; 'I' for Inactive)
REMARK    1  A    between atoms: C_1  and  C_2
REMARK    2  A    between atoms: C_2  and  C_3
REMARK    3  A    between atoms: C_2  and  N_4
REMARK    4  A    between atoms: C_5  and  C_7
REMARK    5  A    between atoms: C_7  and  C_8
REMARK    6  A    between atoms: C_8  and  N_9
REMARK    7  A    between atoms: N_22  and  C_23
REMARK    8  A    between atoms: C_23  and  C_24
REMARK                            x       y       z     vdW  Elec       q    Type
REMARK                         _______ _______ _______ _____ _____    ______ ____
ROOT
ATOM      1  N   UNL     1       3.485   6.904  17.842  0.00  0.00    +0.000 N 
ATOM      2  C   UNL     1       2.753   8.090  17.931  0.00  0.00    +0.000 A 
ATOM      3  O   UNL     1       2.778   8.981  17.087  0.00  0.00    +0.000 OA
ATOM      4  C   UNL     1       1.907   8.274  19.131  0.00  0.00    +0.000 A 
ATOM      5  C   UNL     1       1.215   9.485  19.295  0.00  0.00    +0.000 A 
ATOM      6  C   UNL     1       0.442   9.678  20.430  0.00  0.00    +0.000 A 
ATOM      7 CL   UNL     1      -0.386  11.170  20.655  0.00  0.00    +0.000 Cl
ATOM      8  C   UNL     1       0.351   8.676  21.392  0.00  0.00    +0.000 A 
ATOM      9  C   UNL     1       1.035   7.461  21.221  0.00  0.00    +0.000 A 
ATOM     10  C   UNL     1       1.825   7.252  20.087  0.00  0.00    +0.000 A 
ATOM     11  N   UNL     1       2.566   6.083  19.855  0.00  0.00    +0.000 N 
ATOM     12  C   UNL     1       2.662   4.901  20.581  0.00  0.00    +0.000 A 
ATOM     13  O   UNL     1       2.091   4.580  21.610  0.00  0.00    +0.000 OA
ATOM     14  N   UNL     1       3.572   4.106  19.860  0.00  0.00    +0.000 N 
ATOM     15  N   UNL     1       4.029   4.807  18.782  0.00  0.00    +0.000 NA
ATOM     16  C   UNL     1       3.388   5.934  18.798  0.00  0.00    +0.000 A 
ENDROOT
BRANCH   1  17
ATOM     17  C   UNL     1       4.439   6.811  16.720  0.00  0.00    +0.000 C 
BRANCH  17  18
ATOM     18  C   UNL     1       5.914   6.893  17.085  0.00  0.00    +0.000 C 
BRANCH  18  20
ATOM     19  N   UNL     1       6.347   5.687  15.078  0.00  0.00    +0.000 N 
ATOM     20  C   UNL     1       6.740   5.849  16.389  0.00  0.00    +0.000 C 
ATOM     21  O   UNL     1       7.631   5.211  16.932  0.00  0.00    +0.000 OA
ATOM     22  H   UNL     1       5.491   6.137  14.769  0.00  0.00    +0.000 HD
BRANCH  19  24
ATOM     23  C   UNL     1       5.823   3.811  13.598  0.00  0.00    +0.000 C 
ATOM     24  C   UNL     1       6.921   4.656  14.236  0.00  0.00    +0.000 C 
ATOM     25  C   UNL     1       7.810   5.300  13.181  0.00  0.00    +0.000 C 
ENDBRANCH  19  24
ENDBRANCH  18  20
ENDBRANCH  17  18
ENDBRANCH   1  17
BRANCH  14  26
ATOM     26  C   UNL     1       4.031   2.737  20.138  0.00  0.00    +0.000 C 
BRANCH  26  27
ATOM     27  C   UNL     1       3.867   1.836  18.924  0.00  0.00    +0.000 C 
ATOM     28  N   UNL     1       3.731   1.089  17.917  0.00  0.00    +0.000 NA
ENDBRANCH  26  27
ENDBRANCH  14  26
TORSDOF 6
ENDMDL
MODEL 3
REMARK VINA RESULT:      -7.3      3.381      6.711
REMARK  Name = 
REMARK  8 active torsions:
REMARK  status: ('A' for Active; 'I' for Inactive)
REMARK    1  A    between atoms: C_1  and  C_2
REMARK    2  A    between atoms: C_2  and  C_3
REMARK    3  A    between atoms: C_2  and  N_4
REMARK    4  A    between atoms: C_5  and  C_7
REMARK    5  A    between atoms: C_7  and  C_8
REMARK    6  A    between atoms: C_8  and  N_9
REMARK    7  A    between atoms: N_22  and  C_23
REMARK    8  A    between atoms: C_23  and  C_24
REMARK                            x       y       z     vdW  Elec       q    Type
REMARK                         _______ _______ _______ _____ _____    ______ ____
ROOT
ATOM      1  N   UNL     1       3.390   6.590  18.053  0.00  0.00    +0.000 N 
ATOM      2  C   UNL     1       4.462   6.867  17.201  0.00  0.00    +0.000 A 
ATOM      3  O   UNL     1       4.970   7.977  17.069  0.00  0.00    +0.000 OA
ATOM      4  C   UNL     1       5.000   5.742  16.405  0.00  0.00    +0.000 A 
ATOM      5  C   UNL     1       6.026   5.994  15.480  0.00  0.00    +0.000 A 
ATOM      6  C   UNL     1       6.517   4.951  14.708  0.00  0.00    +0.000 A 
ATOM      7 CL   UNL     1       7.755   5.256  13.552  0.00  0.00    +0.000 Cl
ATOM      8  C   UNL     1       5.999   3.668  14.857  0.00  0.00    +0.000 A 
ATOM      9  C   UNL     1       4.981   3.416  15.791  0.00  0.00    +0.000 A 
ATOM     10  C   UNL     1       4.468   4.455  16.571  0.00  0.00    +0.000 A 
ATOM     11  N   UNL     1       3.429   4.296  17.502  0.00  0.00    +0.000 N 
ATOM     12  C   UNL     1       2.735   3.164  17.912  0.00  0.00    +0.000 A 
ATOM     13  O   UNL     1       2.881   2.002  17.569  0.00  0.00    +0.000 OA
ATOM     14  N   UNL     1       1.799   3.634  18.852  0.00  0.00    +0.000 N 
ATOM     15  N   UNL     1       1.906   4.991  18.956  0.00  0.00    +0.000 NA
ATOM     16  C   UNL     1       2.891   5.326  18.183  0.00  0.00    +0.000 A 
ENDROOT
BRANCH   1  17
ATOM     17  C   UNL     1       2.769   7.753  18.717  0.00  0.00    +0.000 C 
BRANCH  17  18
ATOM     18  C   UNL     1       1.862   8.614  17.850  0.00  0.00    +0.000 C 
BRANCH  18  20
ATOM     19  N   UNL     1      -0.091   9.978  17.841  0.00  0.00    +0.000 N 
ATOM     20  C   UNL     1       0.836   9.361  18.654  0.00  0.00    +0.000 C 
ATOM     21  O   UNL     1       0.843   9.428  19.875  0.00  0.00    +0.000 OA
ATOM     22  H   UNL     1       0.085  10.006  16.841  0.00  0.00    +0.000 HD
BRANCH  19  24
ATOM     23  C   UNL     1      -0.745  12.314  18.152  0.00  0.00    +0.000 C 
ATOM     24  C   UNL     1      -1.113  10.851  18.382  0.00  0.00    +0.000 C 
ATOM     25  C   UNL     1      -2.456  10.509  17.753  0.00  0.00    +0.000 C 
ENDBRANCH  19  24
ENDBRANCH  18  20
ENDBRANCH  17  18
ENDBRANCH   1  17
BRANCH  14  26
ATOM     26  C   UNL     1       0.818   2.877  19.644  0.00  0.00    +0.000 C 
BRANCH  26  27
ATOM     27  C   UNL     1       1.275   2.705  21.083  0.00  0.00    +0.000 C 
ATOM     28  N   UNL     1       1.655   2.562  22.278  0.00  0.00    +0.000 NA
ENDBRANCH  26  27
ENDBRANCH  14  26
TORSDOF 6
ENDMDL
MODEL 4
REMARK VINA RESULT:      -7.2      3.184      6.739
REMARK  Name = 
REMARK  8 active torsions:
REMARK  status: ('A' for Active; 'I' for Inactive)
REMARK    1  A    between atoms: C_1  and  C_2
REMARK    2  A    between atoms: C_2  and  C_3
REMARK    3  A    between atoms: C_2  and  N_4
REMARK    4  A    between atoms: C_5  and  C_7
REMARK    5  A    between atoms: C_7  and  C_8
REMARK    6  A    between atoms: C_8  and  N_9
REMARK    7  A    between atoms: N_22  and  C_23
REMARK    8  A    between atoms: C_23  and  C_24
REMARK                            x       y       z     vdW  Elec       q    Type
REMARK                         _______ _______ _______ _____ _____    ______ ____
ROOT
ATOM      1  N   UNL     1       3.325   6.558  18.076  0.00  0.00    +0.000 N 
ATOM      2  C   UNL     1       4.402   6.857  17.238  0.00  0.00    +0.000 A 
ATOM      3  O   UNL     1       4.882   7.979  17.105  0.00  0.00    +0.000 OA
ATOM      4  C   UNL     1       4.983   5.741  16.460  0.00  0.00    +0.000 A 
ATOM      5  C   UNL     1       6.017   6.013  15.549  0.00  0.00    +0.000 A 
ATOM      6  C   UNL     1       6.549   4.978  14.795  0.00  0.00    +0.000 A 
ATOM      7 CL   UNL     1       7.796   5.307  13.655  0.00  0.00    +0.000 Cl
ATOM      8  C   UNL     1       6.063   3.682  14.946  0.00  0.00    +0.000 A 
ATOM      9  C   UNL     1       5.038   3.410  15.865  0.00  0.00    +0.000 A 
ATOM     10  C   UNL     1       4.484   4.441  16.629  0.00  0.00    +0.000 A 
ATOM     11  N   UNL     1       3.436   4.261  17.544  0.00  0.00    +0.000 N 
ATOM     12  C   UNL     1       2.765   3.114  17.953  0.00  0.00    +0.000 A 
ATOM     13  O   UNL     1       2.949   1.954  17.622  0.00  0.00    +0.000 OA
ATOM     14  N   UNL     1       1.802   3.565  18.874  0.00  0.00    +0.000 N 
ATOM     15  N   UNL     1       1.870   4.925  18.968  0.00  0.00    +0.000 NA
ATOM     16  C   UNL     1       2.859   5.281  18.208  0.00  0.00    +0.000 A 
ENDROOT
BRANCH   1  17
ATOM     17  C   UNL     1       2.662   7.709  18.720  0.00  0.00    +0.000 C 
BRANCH  17  18
ATOM     18  C   UNL     1       1.784   8.565  17.820  0.00  0.00    +0.000 C 
BRANCH  18  20
ATOM     19  N   UNL     1       0.900   9.182  19.944  0.00  0.00    +0.000 N 
ATOM     20  C   UNL     1       0.878   9.477  18.598  0.00  0.00    +0.000 C 
ATOM     21  O   UNL     1       0.193  10.353  18.089  0.00  0.00    +0.000 OA
ATOM     22  H   UNL     1       1.367   8.332  20.246  0.00  0.00    +0.000 HD
BRANCH  19  24
ATOM     23  C   UNL     1      -0.279   8.949  22.074  0.00  0.00    +0.000 C 
ATOM     24  C   UNL     1       0.022   9.852  20.883  0.00  0.00    +0.000 C 
ATOM     25  C   UNL     1       0.658  11.163  21.325  0.00  0.00    +0.000 C 
ENDBRANCH  19  24
ENDBRANCH  18  20
ENDBRANCH  17  18
ENDBRANCH   1  17
BRANCH  14  26
ATOM     26  C   UNL     1       0.829   2.788  19.656  0.00  0.00    +0.000 C 
BRANCH  26  27
ATOM     27  C   UNL     1       1.267   2.641  21.104  0.00  0.00    +0.000 C 
ATOM     28  N   UNL     1       1.630   2.519  22.307  0.00  0.00    +0.000 NA
ENDBRANCH  26  27
ENDBRANCH  14  26
TORSDOF 6
ENDMDL
MODEL 5
REMARK VINA RESULT:      -7.1      1.551      2.054
REMARK  Name = 
REMARK  8 active torsions:
REMARK  status: ('A' for Active; 'I' for Inactive)
REMARK    1  A    between atoms: C_1  and  C_2
REMARK    2  A    between atoms: C_2  and  C_3
REMARK    3  A    between atoms: C_2  and  N_4
REMARK    4  A    between atoms: C_5  and  C_7
REMARK    5  A    between atoms: C_7  and  C_8
REMARK    6  A    between atoms: C_8  and  N_9
REMARK    7  A    between atoms: N_22  and  C_23
REMARK    8  A    between atoms: C_23  and  C_24
REMARK                            x       y       z     vdW  Elec       q    Type
REMARK                         _______ _______ _______ _____ _____    ______ ____
ROOT
ATOM      1  N   UNL     1       5.212   5.048  17.582  0.00  0.00    +0.000 N 
ATOM      2  C   UNL     1       4.659   6.313  17.373  0.00  0.00    +0.000 A 
ATOM      3  O   UNL     1       5.044   7.100  16.513  0.00  0.00    +0.000 OA
ATOM      4  C   UNL     1       3.546   6.720  18.259  0.00  0.00    +0.000 A 
ATOM      5  C   UNL     1       3.014   8.013  18.132  0.00  0.00    +0.000 A 
ATOM      6  C   UNL     1       1.990   8.413  18.977  0.00  0.00    +0.000 A 
ATOM      7 CL   UNL     1       1.351  10.006  18.847  0.00  0.00    +0.000 Cl
ATOM      8  C   UNL     1       1.494   7.536  19.937  0.00  0.00    +0.000 A 
ATOM      9  C   UNL     1       2.020   6.240  20.056  0.00  0.00    +0.000 A 
ATOM     10  C   UNL     1       3.057   5.821  19.218  0.00  0.00    +0.000 A 
ATOM     11  N   UNL     1       3.661   4.556  19.292  0.00  0.00    +0.000 N 
ATOM     12  C   UNL     1       3.383   3.455  20.094  0.00  0.00    +0.000 A 
ATOM     13  O   UNL     1       2.508   3.313  20.933  0.00  0.00    +0.000 OA
ATOM     14  N   UNL     1       4.336   2.489  19.726  0.00  0.00    +0.000 N 
ATOM     15  N   UNL     1       5.170   3.014  18.782  0.00  0.00    +0.000 NA
ATOM     16  C   UNL     1       4.716   4.202  18.533  0.00  0.00    +0.000 A 
ENDROOT
BRANCH   1  17
ATOM     17  C   UNL     1       6.418   4.726  16.795  0.00  0.00    +0.000 C 
BRANCH  17  18
ATOM     18  C   UNL     1       6.276   3.601  15.780  0.00  0.00    +0.000 C 
BRANCH  18  20
ATOM     19  N   UNL     1       5.943   3.107  13.474  0.00  0.00    +0.000 N 
ATOM     20  C   UNL     1       6.299   4.098  14.362  0.00  0.00    +0.000 C 
ATOM     21  O   UNL     1       6.618   5.235  14.044  0.00  0.00    +0.000 OA
ATOM     22  H   UNL     1       5.862   2.154  13.818  0.00  0.00    +0.000 HD
BRANCH  19  24
ATOM     23  C   UNL     1       6.852   2.237  11.377  0.00  0.00    +0.000 C 
ATOM     24  C   UNL     1       6.001   3.315  12.041  0.00  0.00    +0.000 C 
ATOM     25  C   UNL     1       4.589   3.336  11.474  0.00  0.00    +0.000 C 
ENDBRANCH  19  24
ENDBRANCH  18  20
ENDBRANCH  17  18
ENDBRANCH   1  17
BRANCH  14  26
ATOM     26  C   UNL     1       4.501   1.113  20.219  0.00  0.00    +0.000 C 
BRANCH  26  27
ATOM     27  C   UNL     1       5.511   1.043  21.353  0.00  0.00    +0.000 C 
ATOM     28  N   UNL     1       6.349   0.987  22.294  0.00  0.00    +0.000 NA
ENDBRANCH  26  27
ENDBRANCH  14  26
TORSDOF 6
ENDMDL
MODEL 6
REMARK VINA RESULT:      -6.9      2.241      4.814
REMARK  Name = 
REMARK  8 active torsions:
REMARK  status: ('A' for Active; 'I' for Inactive)
REMARK    1  A    between atoms: C_1  and  C_2
REMARK    2  A    between atoms: C_2  and  C_3
REMARK    3  A    between atoms: C_2  and  N_4
REMARK    4  A    between atoms: C_5  and  C_7
REMARK    5  A    between atoms: C_7  and  C_8
REMARK    6  A    between atoms: C_8  and  N_9
REMARK    7  A    between atoms: N_22  and  C_23
REMARK    8  A    between atoms: C_23  and  C_24
REMARK                            x       y       z     vdW  Elec       q    Type
REMARK                         _______ _______ _______ _____ _____    ______ ____
ROOT
ATOM      1  N   UNL     1       2.474   5.876  20.149  0.00  0.00    +0.000 N 
ATOM      2  C   UNL     1       1.712   6.987  20.515  0.00  0.00    +0.000 A 
ATOM      3  O   UNL     1       1.033   7.053  21.535  0.00  0.00    +0.000 OA
ATOM      4  C   UNL     1       1.725   8.148  19.597  0.00  0.00    +0.000 A 
ATOM      5  C   UNL     1       0.912   9.255  19.890  0.00  0.00    +0.000 A 
ATOM      6  C   UNL     1       0.897  10.336  19.021  0.00  0.00    +0.000 A 
ATOM      7 CL   UNL     1      -0.119  11.685  19.356  0.00  0.00    +0.000 Cl
ATOM      8  C   UNL     1       1.685  10.321  17.873  0.00  0.00    +0.000 A 
ATOM      9  C   UNL     1       2.506   9.219  17.589  0.00  0.00    +0.000 A 
ATOM     10  C   UNL     1       2.529   8.117  18.448  0.00  0.00    +0.000 A 
ATOM     11  N   UNL     1       3.294   6.963  18.221  0.00  0.00    +0.000 N 
ATOM     12  C   UNL     1       4.199   6.649  17.213  0.00  0.00    +0.000 A 
ATOM     13  O   UNL     1       4.573   7.330  16.272  0.00  0.00    +0.000 OA
ATOM     14  N   UNL     1       4.632   5.343  17.509  0.00  0.00    +0.000 N 
ATOM     15  N   UNL     1       3.975   4.889  18.615  0.00  0.00    +0.000 NA
ATOM     16  C   UNL     1       3.238   5.877  19.017  0.00  0.00    +0.000 A 
ENDROOT
BRANCH   1  17
ATOM     17  C   UNL     1       2.323   4.676  20.994  0.00  0.00    +0.000 C 
BRANCH  17  18
ATOM     18  C   UNL     1       1.034   3.887  20.814  0.00  0.00    +0.000 C 
BRANCH  18  20
ATOM     19  N   UNL     1       2.438   2.477  19.505  0.00  0.00    +0.000 N 
ATOM     20  C   UNL     1       1.132   2.865  19.717  0.00  0.00    +0.000 C 
ATOM     21  O   UNL     1       0.172   2.450  19.084  0.00  0.00    +0.000 OA
ATOM     22  H   UNL     1       3.179   3.001  19.961  0.00  0.00    +0.000 HD
BRANCH  19  24
ATOM     23  C   UNL     1       2.707   2.304  17.080  0.00  0.00    +0.000 C 
ATOM     24  C   UNL     1       2.797   1.584  18.421  0.00  0.00    +0.000 C 
ATOM     25  C   UNL     1       4.195   1.031  18.663  0.00  0.00    +0.000 C 
ENDBRANCH  19  24
ENDBRANCH  18  20
ENDBRANCH  17  18
ENDBRANCH   1  17
BRANCH  14  26
ATOM     26  C   UNL     1       5.619   4.511  16.804  0.00  0.00    +0.000 C 
BRANCH  26  27
ATOM     27  C   UNL     1       6.965   4.522  17.511  0.00  0.00    +0.000 C 
ATOM     28  N   UNL     1       8.081   4.531  18.098  0.00  0.00    +0.000 NA
ENDBRANCH  26  27
ENDBRANCH  14  26
TORSDOF 6
ENDMDL
MODEL 7
REMARK VINA RESULT:      -6.8      3.203      6.636
REMARK  Name = 
REMARK  8 active torsions:
REMARK  status: ('A' for Active; 'I' for Inactive)
REMARK    1  A    between atoms: C_1  and  C_2
REMARK    2  A    between atoms: C_2  and  C_3
REMARK    3  A    between atoms: C_2  and  N_4
REMARK    4  A    between atoms: C_5  and  C_7
REMARK    5  A    between atoms: C_7  and  C_8
REMARK    6  A    between atoms: C_8  and  N_9
REMARK    7  A    between atoms: N_22  and  C_23
REMARK    8  A    between atoms: C_23  and  C_24
REMARK                            x       y       z     vdW  Elec       q    Type
REMARK                         _______ _______ _______ _____ _____    ______ ____
ROOT
ATOM      1  N   UNL     1       3.165   6.391  17.945  0.00  0.00    +0.000 N 
ATOM      2  C   UNL     1       4.225   6.763  17.116  0.00  0.00    +0.000 A 
ATOM      3  O   UNL     1       4.602   7.920  16.953  0.00  0.00    +0.000 OA
ATOM      4  C   UNL     1       4.923   5.681  16.385  0.00  0.00    +0.000 A 
ATOM      5  C   UNL     1       5.944   6.019  15.483  0.00  0.00    +0.000 A 
ATOM      6  C   UNL     1       6.584   5.015  14.773  0.00  0.00    +0.000 A 
ATOM      7 CL   UNL     1       7.818   5.422  13.644  0.00  0.00    +0.000 Cl
ATOM      8  C   UNL     1       6.218   3.685  14.960  0.00  0.00    +0.000 A 
ATOM      9  C   UNL     1       5.204   3.347  15.871  0.00  0.00    +0.000 A 
ATOM     10  C   UNL     1       4.542   4.347  16.590  0.00  0.00    +0.000 A 
ATOM     11  N   UNL     1       3.497   4.099  17.493  0.00  0.00    +0.000 N 
ATOM     12  C   UNL     1       2.928   2.908  17.930  0.00  0.00    +0.000 A 
ATOM     13  O   UNL     1       3.225   1.760  17.641  0.00  0.00    +0.000 OA
ATOM     14  N   UNL     1       1.910   3.298  18.819  0.00  0.00    +0.000 N 
ATOM     15  N   UNL     1       1.850   4.660  18.868  0.00  0.00    +0.000 NA
ATOM     16  C   UNL     1       2.816   5.082  18.112  0.00  0.00    +0.000 A 
ENDROOT
BRANCH   1  17
ATOM     17  C   UNL     1       2.386   7.496  18.539  0.00  0.00    +0.000 C 
BRANCH  17  18
ATOM     18  C   UNL     1       2.111   7.394  20.032  0.00  0.00    +0.000 C 
BRANCH  18  20
ATOM     19  N   UNL     1       1.093   9.498  19.570  0.00  0.00    +0.000 N 
ATOM     20  C   UNL     1       1.417   8.612  20.575  0.00  0.00    +0.000 C 
ATOM     21  O   UNL     1       1.193   8.796  21.763  0.00  0.00    +0.000 OA
ATOM     22  H   UNL     1       1.471   9.336  18.641  0.00  0.00    +0.000 HD
BRANCH  19  24
ATOM     23  C   UNL     1       1.228  11.886  19.060  0.00  0.00    +0.000 C 
ATOM     24  C   UNL     1       0.519  10.797  19.859  0.00  0.00    +0.000 C 
ATOM     25  C   UNL     1      -0.973  10.769  19.560  0.00  0.00    +0.000 C 
ENDBRANCH  19  24
ENDBRANCH  18  20
ENDBRANCH  17  18
ENDBRANCH   1  17
BRANCH  14  26
ATOM     26  C   UNL     1       0.998   2.458  19.610  0.00  0.00    +0.000 C 
BRANCH  26  27
ATOM     27  C   UNL     1       1.318   2.532  21.094  0.00  0.00    +0.000 C 
ATOM     28  N   UNL     1       1.585   2.593  22.326  0.00  0.00    +0.000 NA
ENDBRANCH  26  27
ENDBRANCH  14  26
TORSDOF 6
ENDMDL
MODEL 8
REMARK VINA RESULT:      -6.8      8.833     12.465
REMARK  Name = 
REMARK  8 active torsions:
REMARK  status: ('A' for Active; 'I' for Inactive)
REMARK    1  A    between atoms: C_1  and  C_2
REMARK    2  A    between atoms: C_2  and  C_3
REMARK    3  A    between atoms: C_2  and  N_4
REMARK    4  A    between atoms: C_5  and  C_7
REMARK    5  A    between atoms: C_7  and  C_8
REMARK    6  A    between atoms: C_8  and  N_9
REMARK    7  A    between atoms: N_22  and  C_23
REMARK    8  A    between atoms: C_23  and  C_24
REMARK                            x       y       z     vdW  Elec       q    Type
REMARK                         _______ _______ _______ _____ _____    ______ ____
ROOT
ATOM      1  N   UNL     1      -5.326  12.647  19.084  0.00  0.00    +0.000 N 
ATOM      2  C   UNL     1      -5.495  12.278  17.748  0.00  0.00    +0.000 A 
ATOM      3  O   UNL     1      -6.520  12.476  17.102  0.00  0.00    +0.000 OA
ATOM      4  C   UNL     1      -4.361  11.596  17.086  0.00  0.00    +0.000 A 
ATOM      5  C   UNL     1      -4.518  11.141  15.767  0.00  0.00    +0.000 A 
ATOM      6  C   UNL     1      -3.470  10.475  15.148  0.00  0.00    +0.000 A 
ATOM      7 CL   UNL     1      -3.664   9.888  13.542  0.00  0.00    +0.000 Cl
ATOM      8  C   UNL     1      -2.274  10.267  15.830  0.00  0.00    +0.000 A 
ATOM      9  C   UNL     1      -2.115  10.733  17.145  0.00  0.00    +0.000 A 
ATOM     10  C   UNL     1      -3.163  11.399  17.788  0.00  0.00    +0.000 A 
ATOM     11  N   UNL     1      -3.098  11.867  19.109  0.00  0.00    +0.000 N 
ATOM     12  C   UNL     1      -2.060  11.856  20.034  0.00  0.00    +0.000 A 
ATOM     13  O   UNL     1      -0.918  11.447  19.906  0.00  0.00    +0.000 OA
ATOM     14  N   UNL     1      -2.600  12.447  21.191  0.00  0.00    +0.000 N 
ATOM     15  N   UNL     1      -3.913  12.749  20.974  0.00  0.00    +0.000 NA
ATOM     16  C   UNL     1      -4.147  12.430  19.739  0.00  0.00    +0.000 A 
ENDROOT
BRANCH   1  17
ATOM     17  C   UNL     1      -6.519  13.181  19.768  0.00  0.00    +0.000 C 
BRANCH  17  18
ATOM     18  C   UNL     1      -7.581  12.163  20.158  0.00  0.00    +0.000 C 
BRANCH  18  20
ATOM     19  N   UNL     1      -7.053  12.862  22.372  0.00  0.00    +0.000 N 
ATOM     20  C   UNL     1      -7.537  11.815  21.618  0.00  0.00    +0.000 C 
ATOM     21  O   UNL     1      -7.870  10.728  22.070  0.00  0.00    +0.000 OA
ATOM     22  H   UNL     1      -6.645  13.658  21.891  0.00  0.00    +0.000 HD
BRANCH  19  24
ATOM     23  C   UNL     1      -5.334  12.928  24.111  0.00  0.00    +0.000 C 
ATOM     24  C   UNL     1      -6.812  12.725  23.795  0.00  0.00    +0.000 C 
ATOM     25  C   UNL     1      -7.684  13.715  24.554  0.00  0.00    +0.000 C 
ENDBRANCH  19  24
ENDBRANCH  18  20
ENDBRANCH  17  18
ENDBRANCH   1  17
BRANCH  14  26
ATOM     26  C   UNL     1      -1.948  12.732  22.478  0.00  0.00    +0.000 C 
BRANCH  26  27
ATOM     27  C   UNL     1      -1.149  11.538  22.976  0.00  0.00    +0.000 C 
ATOM     28  N   UNL     1      -0.488  10.547  23.389  0.00  0.00    +0.000 NA
ENDBRANCH  26  27
ENDBRANCH  14  26
TORSDOF 6
ENDMDL
MODEL 9
REMARK VINA RESULT:      -6.8      0.950      1.017
REMARK  Name = 
REMARK  8 active torsions:
REMARK  status: ('A' for Active; 'I' for Inactive)
REMARK    1  A    between atoms: C_1  and  C_2
REMARK    2  A    between atoms: C_2  and  C_3
REMARK    3  A    between atoms: C_2  and  N_4
REMARK    4  A    between atoms: C_5  and  C_7
REMARK    5  A    between atoms: C_7  and  C_8
REMARK    6  A    between atoms: C_8  and  N_9
REMARK    7  A    between atoms: N_22  and  C_23
REMARK    8  A    between atoms: C_23  and  C_24
REMARK                            x       y       z     vdW  Elec       q    Type
REMARK                         _______ _______ _______ _____ _____    ______ ____
ROOT
ATOM      1  N   UNL     1       4.084   5.873  17.605  0.00  0.00    +0.000 N 
ATOM      2  C   UNL     1       3.458   7.114  17.739  0.00  0.00    +0.000 A 
ATOM      3  O   UNL     1       3.606   8.050  16.959  0.00  0.00    +0.000 OA
ATOM      4  C   UNL     1       2.570   7.300  18.908  0.00  0.00    +0.000 A 
ATOM      5  C   UNL     1       1.983   8.557  19.122  0.00  0.00    +0.000 A 
ATOM      6  C   UNL     1       1.172   8.749  20.231  0.00  0.00    +0.000 A 
ATOM      7 CL   UNL     1       0.470  10.295  20.516  0.00  0.00    +0.000 Cl
ATOM      8  C   UNL     1       0.942   7.702  21.118  0.00  0.00    +0.000 A 
ATOM      9  C   UNL     1       1.521   6.442  20.897  0.00  0.00    +0.000 A 
ATOM     10  C   UNL     1       2.348   6.232  19.789  0.00  0.00    +0.000 A 
ATOM     11  N   UNL     1       2.992   5.016  19.513  0.00  0.00    +0.000 N 
ATOM     12  C   UNL     1       2.944   3.787  20.162  0.00  0.00    +0.000 A 
ATOM     13  O   UNL     1       2.294   3.456  21.140  0.00  0.00    +0.000 OA
ATOM     14  N   UNL     1       3.815   2.958  19.432  0.00  0.00    +0.000 N 
ATOM     15  N   UNL     1       4.389   3.680  18.426  0.00  0.00    +0.000 NA
ATOM     16  C   UNL     1       3.851   4.858  18.488  0.00  0.00    +0.000 A 
ENDROOT
BRANCH   1  17
ATOM     17  C   UNL     1       5.083   5.762  16.524  0.00  0.00    +0.000 C 
BRANCH  17  18
ATOM     18  C   UNL     1       5.040   4.483  15.701  0.00  0.00    +0.000 C 
BRANCH  18  20
ATOM     19  N   UNL     1       5.883   3.886  13.555  0.00  0.00    +0.000 N 
ATOM     20  C   UNL     1       6.240   4.330  14.810  0.00  0.00    +0.000 C 
ATOM     21  O   UNL     1       7.388   4.552  15.168  0.00  0.00    +0.000 OA
ATOM     22  H   UNL     1       4.930   3.567  13.407  0.00  0.00    +0.000 HD
BRANCH  19  24
ATOM     23  C   UNL     1       6.353   2.481  11.609  0.00  0.00    +0.000 C 
ATOM     24  C   UNL     1       6.880   3.555  12.555  0.00  0.00    +0.000 C 
ATOM     25  C   UNL     1       7.277   4.815  11.800  0.00  0.00    +0.000 C 
ENDBRANCH  19  24
ENDBRANCH  18  20
ENDBRANCH  17  18
ENDBRANCH   1  17
BRANCH  14  26
ATOM     26  C   UNL     1       4.134   1.537  19.639  0.00  0.00    +0.000 C 
BRANCH  26  27
ATOM     27  C   UNL     1       5.041   1.338  20.842  0.00  0.00    +0.000 C 
ATOM     28  N   UNL     1       5.793   1.171  21.841  0.00  0.00    +0.000 NA
ENDBRANCH  26  27
ENDBRANCH  14  26
TORSDOF 6
ENDMDL
