MODEL 1
REMARK VINA RESULT:      -9.2      0.000      0.000
REMARK  Name = 
REMARK  3 active torsions:
REMARK  status: ('A' for Active; 'I' for Inactive)
REMARK    1  A    between atoms: N_3  and  C_4
REMARK    2  A    between atoms: C_9  and  C_10
REMARK    3  A    between atoms: C_15  and  C_16
REMARK                            x       y       z     vdW  Elec       q    Type
REMARK                         _______ _______ _______ _____ _____    ______ ____
ROOT
ATOM      1  C   UNL     1       1.193   9.809  18.965  0.00  0.00    +0.000 A 
ATOM      2  N   UNL     1       1.295   8.770  19.776  0.00  0.00    +0.000 NA
ATOM      3  C   UNL     1       2.177   7.913  19.172  0.00  0.00    +0.000 A 
ATOM      4  N   UNL     1       2.584   6.724  19.661  0.00  0.00    +0.000 NA
ATOM      5  C   UNL     1       3.497   6.085  18.878  0.00  0.00    +0.000 A 
ATOM      6  C   UNL     1       4.039   6.529  17.658  0.00  0.00    +0.000 A 
ATOM      7  C   UNL     1       3.569   7.762  17.179  0.00  0.00    +0.000 A 
ATOM      8  C   UNL     1       2.636   8.426  17.972  0.00  0.00    +0.000 A 
ATOM      9  N   UNL     1       1.975   9.612  17.845  0.00  0.00    +0.000 N 
ATOM     10  H   UNL     1       2.050  10.262  17.075  0.00  0.00    +0.000 HD
ENDROOT
BRANCH   1  16
ATOM     11  C   UNL     1      -1.784  12.090  19.505  0.00  0.00    +0.000 A 
ATOM     12  C   UNL     1      -1.143  13.337  19.556  0.00  0.00    +0.000 A 
ATOM     13  C   UNL     1       0.237  13.433  19.404  0.00  0.00    +0.000 A 
ATOM     14  C   UNL     1       0.986  12.287  19.209  0.00  0.00    +0.000 A 
ATOM     15  F   UNL     1       2.313  12.420  19.063  0.00  0.00    +0.000 F 
ATOM     16  C   UNL     1       0.388  11.017  19.171  0.00  0.00    +0.000 A 
ATOM     17  C   UNL     1      -1.008  10.934  19.328  0.00  0.00    +0.000 A 
BRANCH  11  20
ATOM     18  O   UNL     1      -3.744  11.720  17.394  0.00  0.00    +0.000 OA
ATOM     19  C   UNL     1      -4.066  11.828  18.577  0.00  0.00    +0.000 C 
ATOM     20  N   UNL     1      -3.185  11.959  19.626  0.00  0.00    +0.000 N 
ATOM     21  N   UNL     1      -5.400  11.794  18.950  0.00  0.00    +0.000 N 
ATOM     22  C   UNL     1      -6.422  11.503  17.958  0.00  0.00    +0.000 C 
ATOM     23  C   UNL     1      -7.503  12.531  18.227  0.00  0.00    +0.000 C 
ATOM     24  C   UNL     1      -7.449  12.683  19.742  0.00  0.00    +0.000 C 
ATOM     25  C   UNL     1      -5.966  12.525  20.076  0.00  0.00    +0.000 C 
ATOM     26  H   UNL     1      -3.544  11.657  20.522  0.00  0.00    +0.000 HD
ENDBRANCH  11  20
ENDBRANCH   1  16
BRANCH   6  27
ATOM     27  C   UNL     1       5.058   5.757  16.910  0.00  0.00    +0.000 A 
ATOM     28  C   UNL     1       4.778   4.479  16.390  0.00  0.00    +0.000 A 
ATOM     29  C   UNL     1       5.752   3.754  15.704  0.00  0.00    +0.000 A 
ATOM     30  C   UNL     1       6.998   4.327  15.538  0.00  0.00    +0.000 A 
ATOM     31  N   UNL     1       7.320   5.548  16.001  0.00  0.00    +0.000 NA
ATOM     32  C   UNL     1       6.355   6.224  16.670  0.00  0.00    +0.000 A 
ATOM     33  F   UNL     1       6.718   7.429  17.141  0.00  0.00    +0.000 F 
ENDBRANCH   6  27
TORSDOF 3
ENDMDL
MODEL 2
REMARK VINA RESULT:      -9.0      1.006      1.229
REMARK  Name = 
REMARK  3 active torsions:
REMARK  status: ('A' for Active; 'I' for Inactive)
REMARK    1  A    between atoms: N_3  and  C_4
REMARK    2  A    between atoms: C_9  and  C_10
REMARK    3  A    between atoms: C_15  and  C_16
REMARK                            x       y       z     vdW  Elec       q    Type
REMARK                         _______ _______ _______ _____ _____    ______ ____
ROOT
ATOM      1  C   UNL     1       1.292   9.836  18.808  0.00  0.00    +0.000 A 
ATOM      2  N   UNL     1       1.301   8.815  19.648  0.00  0.00    +0.000 NA
ATOM      3  C   UNL     1       2.190   7.912  19.124  0.00  0.00    +0.000 A 
ATOM      4  N   UNL     1       2.520   6.722  19.665  0.00  0.00    +0.000 NA
ATOM      5  C   UNL     1       3.459   6.032  18.960  0.00  0.00    +0.000 A 
ATOM      6  C   UNL     1       4.096   6.426  17.769  0.00  0.00    +0.000 A 
ATOM      7  C   UNL     1       3.703   7.663  17.232  0.00  0.00    +0.000 A 
ATOM      8  C   UNL     1       2.745   8.378  17.945  0.00  0.00    +0.000 A 
ATOM      9  N   UNL     1       2.138   9.583  17.748  0.00  0.00    +0.000 N 
ATOM     10  H   UNL     1       2.287  10.210  16.969  0.00  0.00    +0.000 HD
ENDROOT
BRANCH   1  16
ATOM     11  C   UNL     1      -1.627  12.248  18.953  0.00  0.00    +0.000 A 
ATOM     12  C   UNL     1      -0.946  13.457  19.163  0.00  0.00    +0.000 A 
ATOM     13  C   UNL     1       0.443  13.487  19.244  0.00  0.00    +0.000 A 
ATOM     14  C   UNL     1       1.160  12.311  19.124  0.00  0.00    +0.000 A 
ATOM     15  F   UNL     1       2.498  12.379  19.204  0.00  0.00    +0.000 F 
ATOM     16  C   UNL     1       0.519  11.076  18.933  0.00  0.00    +0.000 A 
ATOM     17  C   UNL     1      -0.885  11.061  18.854  0.00  0.00    +0.000 A 
BRANCH  11  20
ATOM     18  O   UNL     1      -3.620  12.633  21.029  0.00  0.00    +0.000 OA
ATOM     19  C   UNL     1      -3.924  12.338  19.874  0.00  0.00    +0.000 C 
ATOM     20  N   UNL     1      -3.033  12.187  18.837  0.00  0.00    +0.000 N 
ATOM     21  N   UNL     1      -5.251  12.159  19.519  0.00  0.00    +0.000 N 
ATOM     22  C   UNL     1      -6.303  12.443  20.482  0.00  0.00    +0.000 C 
ATOM     23  C   UNL     1      -7.246  11.262  20.360  0.00  0.00    +0.000 C 
ATOM     24  C   UNL     1      -7.172  10.929  18.874  0.00  0.00    +0.000 C 
ATOM     25  C   UNL     1      -5.720  11.227  18.502  0.00  0.00    +0.000 C 
ATOM     26  H   UNL     1      -3.425  12.327  17.916  0.00  0.00    +0.000 HD
ENDBRANCH  11  20
ENDBRANCH   1  16
BRANCH   6  27
ATOM     27  C   UNL     1       5.132   5.600  17.107  0.00  0.00    +0.000 A 
ATOM     28  C   UNL     1       4.829   4.785  16.001  0.00  0.00    +0.000 A 
ATOM     29  C   UNL     1       5.809   3.996  15.400  0.00  0.00    +0.000 A 
ATOM     30  C   UNL     1       7.091   4.043  15.912  0.00  0.00    +0.000 A 
ATOM     31  N   UNL     1       7.444   4.811  16.958  0.00  0.00    +0.000 NA
ATOM     32  C   UNL     1       6.467   5.559  17.526  0.00  0.00    +0.000 A 
ATOM     33  F   UNL     1       6.847   6.294  18.585  0.00  0.00    +0.000 F 
ENDBRANCH   6  27
TORSDOF 3
ENDMDL
MODEL 3
REMARK VINA RESULT:      -9.0      1.526      1.827
REMARK  Name = 
REMARK  3 active torsions:
REMARK  status: ('A' for Active; 'I' for Inactive)
REMARK    1  A    between atoms: N_3  and  C_4
REMARK    2  A    between atoms: C_9  and  C_10
REMARK    3  A    between atoms: C_15  and  C_16
REMARK                            x       y       z     vdW  Elec       q    Type
REMARK                         _______ _______ _______ _____ _____    ______ ____
ROOT
ATOM      1  C   UNL     1       1.040  10.142  19.095  0.00  0.00    +0.000 A 
ATOM      2  N   UNL     1       1.072   9.122  19.936  0.00  0.00    +0.000 NA
ATOM      3  C   UNL     1       1.897   8.191  19.358  0.00  0.00    +0.000 A 
ATOM      4  N   UNL     1       2.223   6.992  19.881  0.00  0.00    +0.000 NA
ATOM      5  C   UNL     1       3.092   6.272  19.118  0.00  0.00    +0.000 A 
ATOM      6  C   UNL     1       3.663   6.644  17.887  0.00  0.00    +0.000 A 
ATOM      7  C   UNL     1       3.275   7.892  17.373  0.00  0.00    +0.000 A 
ATOM      8  C   UNL     1       2.388   8.638  18.145  0.00  0.00    +0.000 A 
ATOM      9  N   UNL     1       1.808   9.862  17.983  0.00  0.00    +0.000 N 
ATOM     10  H   UNL     1       1.925  10.483  17.194  0.00  0.00    +0.000 HD
ENDROOT
BRANCH   1  16
ATOM     11  C   UNL     1      -1.786  12.644  19.420  0.00  0.00    +0.000 A 
ATOM     12  C   UNL     1      -1.056  13.832  19.583  0.00  0.00    +0.000 A 
ATOM     13  C   UNL     1       0.335  13.818  19.574  0.00  0.00    +0.000 A 
ATOM     14  C   UNL     1       1.007  12.620  19.411  0.00  0.00    +0.000 A 
ATOM     15  F   UNL     1       2.348  12.646  19.405  0.00  0.00    +0.000 F 
ATOM     16  C   UNL     1       0.316  11.406  19.265  0.00  0.00    +0.000 A 
ATOM     17  C   UNL     1      -1.090  11.434  19.278  0.00  0.00    +0.000 A 
BRANCH  11  20
ATOM     18  O   UNL     1      -3.624  12.724  21.667  0.00  0.00    +0.000 OA
ATOM     19  C   UNL     1      -4.013  12.625  20.504  0.00  0.00    +0.000 C 
ATOM     20  N   UNL     1      -3.198  12.627  19.395  0.00  0.00    +0.000 N 
ATOM     21  N   UNL     1      -5.366  12.528  20.219  0.00  0.00    +0.000 N 
ATOM     22  C   UNL     1      -6.342  12.672  21.287  0.00  0.00    +0.000 C 
ATOM     23  C   UNL     1      -7.325  11.543  21.044  0.00  0.00    +0.000 C 
ATOM     24  C   UNL     1      -7.360  11.453  19.523  0.00  0.00    +0.000 C 
ATOM     25  C   UNL     1      -5.928  11.781  19.102  0.00  0.00    +0.000 C 
ATOM     26  H   UNL     1      -3.647  12.921  18.539  0.00  0.00    +0.000 HD
ENDBRANCH  11  20
ENDBRANCH   1  16
BRANCH   6  27
ATOM     27  C   UNL     1       4.628   5.785  17.163  0.00  0.00    +0.000 A 
ATOM     28  C   UNL     1       5.906   6.253  16.806  0.00  0.00    +0.000 A 
ATOM     29  C   UNL     1       6.798   5.440  16.106  0.00  0.00    +0.000 A 
ATOM     30  C   UNL     1       6.398   4.159  15.780  0.00  0.00    +0.000 A 
ATOM     31  N   UNL     1       5.195   3.653  16.104  0.00  0.00    +0.000 NA
ATOM     32  C   UNL     1       4.347   4.469  16.777  0.00  0.00    +0.000 A 
ATOM     33  F   UNL     1       3.145   3.942  17.062  0.00  0.00    +0.000 F 
ENDBRANCH   6  27
TORSDOF 3
ENDMDL
MODEL 4
REMARK VINA RESULT:      -8.8      2.746      3.595
REMARK  Name = 
REMARK  3 active torsions:
REMARK  status: ('A' for Active; 'I' for Inactive)
REMARK    1  A    between atoms: N_3  and  C_4
REMARK    2  A    between atoms: C_9  and  C_10
REMARK    3  A    between atoms: C_15  and  C_16
REMARK                            x       y       z     vdW  Elec       q    Type
REMARK                         _______ _______ _______ _____ _____    ______ ____
ROOT
ATOM      1  C   UNL     1       0.738   9.322  19.152  0.00  0.00    +0.000 A 
ATOM      2  N   UNL     1       1.084   8.383  20.016  0.00  0.00    +0.000 NA
ATOM      3  C   UNL     1       2.060   7.648  19.395  0.00  0.00    +0.000 A 
ATOM      4  N   UNL     1       2.708   6.590  19.921  0.00  0.00    +0.000 NA
ATOM      5  C   UNL     1       3.661   6.060  19.105  0.00  0.00    +0.000 A 
ATOM      6  C   UNL     1       4.024   6.495  17.817  0.00  0.00    +0.000 A 
ATOM      7  C   UNL     1       3.306   7.587  17.303  0.00  0.00    +0.000 A 
ATOM      8  C   UNL     1       2.329   8.138  18.129  0.00  0.00    +0.000 A 
ATOM      9  N   UNL     1       1.459   9.178  17.984  0.00  0.00    +0.000 N 
ATOM     10  H   UNL     1       1.359   9.768  17.170  0.00  0.00    +0.000 HD
ENDROOT
BRANCH   1  16
ATOM     11  C   UNL     1      -1.251  12.125  20.747  0.00  0.00    +0.000 A 
ATOM     12  C   UNL     1      -2.164  12.405  19.718  0.00  0.00    +0.000 A 
ATOM     13  C   UNL     1      -2.139  11.683  18.529  0.00  0.00    +0.000 A 
ATOM     14  C   UNL     1      -1.199  10.684  18.355  0.00  0.00    +0.000 A 
ATOM     15  F   UNL     1      -1.208  10.007  17.196  0.00  0.00    +0.000 F 
ATOM     16  C   UNL     1      -0.254  10.384  19.349  0.00  0.00    +0.000 A 
ATOM     17  C   UNL     1      -0.290  11.123  20.546  0.00  0.00    +0.000 A 
BRANCH  11  20
ATOM     18  O   UNL     1      -3.516  12.640  22.489  0.00  0.00    +0.000 OA
ATOM     19  C   UNL     1      -2.389  13.065  22.736  0.00  0.00    +0.000 C 
ATOM     20  N   UNL     1      -1.268  12.819  21.977  0.00  0.00    +0.000 N 
ATOM     21  N   UNL     1      -2.157  13.834  23.866  0.00  0.00    +0.000 N 
ATOM     22  C   UNL     1      -3.222  14.036  24.834  0.00  0.00    +0.000 C 
ATOM     23  C   UNL     1      -3.161  15.518  25.148  0.00  0.00    +0.000 C 
ATOM     24  C   UNL     1      -1.668  15.813  25.074  0.00  0.00    +0.000 C 
ATOM     25  C   UNL     1      -1.167  14.898  23.957  0.00  0.00    +0.000 C 
ATOM     26  H   UNL     1      -0.392  12.891  22.477  0.00  0.00    +0.000 HD
ENDBRANCH  11  20
ENDBRANCH   1  16
BRANCH   6  27
ATOM     27  C   UNL     1       5.107   5.856  17.035  0.00  0.00    +0.000 A 
ATOM     28  C   UNL     1       4.923   4.612  16.403  0.00  0.00    +0.000 A 
ATOM     29  C   UNL     1       5.958   4.011  15.686  0.00  0.00    +0.000 A 
ATOM     30  C   UNL     1       7.166   4.675  15.601  0.00  0.00    +0.000 A 
ATOM     31  N   UNL     1       7.397   5.870  16.173  0.00  0.00    +0.000 NA
ATOM     32  C   UNL     1       6.376   6.424  16.870  0.00  0.00    +0.000 A 
ATOM     33  F   UNL     1       6.648   7.605  17.450  0.00  0.00    +0.000 F 
ENDBRANCH   6  27
TORSDOF 3
ENDMDL
MODEL 5
REMARK VINA RESULT:      -8.8      2.158      2.661
REMARK  Name = 
REMARK  3 active torsions:
REMARK  status: ('A' for Active; 'I' for Inactive)
REMARK    1  A    between atoms: N_3  and  C_4
REMARK    2  A    between atoms: C_9  and  C_10
REMARK    3  A    between atoms: C_15  and  C_16
REMARK                            x       y       z     vdW  Elec       q    Type
REMARK                         _______ _______ _______ _____ _____    ______ ____
ROOT
ATOM      1  C   UNL     1       1.043  10.364  19.154  0.00  0.00    +0.000 A 
ATOM      2  N   UNL     1       1.730  10.125  18.050  0.00  0.00    +0.000 NA
ATOM      3  C   UNL     1       2.225   8.854  18.190  0.00  0.00    +0.000 A 
ATOM      4  N   UNL     1       2.981   8.197  17.287  0.00  0.00    +0.000 NA
ATOM      5  C   UNL     1       3.311   6.928  17.657  0.00  0.00    +0.000 A 
ATOM      6  C   UNL     1       2.951   6.261  18.842  0.00  0.00    +0.000 A 
ATOM      7  C   UNL     1       2.182   6.994  19.761  0.00  0.00    +0.000 A 
ATOM      8  C   UNL     1       1.837   8.292  19.393  0.00  0.00    +0.000 A 
ATOM      9  N   UNL     1       1.117   9.277  20.001  0.00  0.00    +0.000 N 
ATOM     10  H   UNL     1       0.684   9.229  20.913  0.00  0.00    +0.000 HD
ENDROOT
BRANCH   1  16
ATOM     11  C   UNL     1      -1.830  12.765  19.734  0.00  0.00    +0.000 A 
ATOM     12  C   UNL     1      -1.125  13.920  20.105  0.00  0.00    +0.000 A 
ATOM     13  C   UNL     1       0.266  13.919  20.154  0.00  0.00    +0.000 A 
ATOM     14  C   UNL     1       0.960  12.765  19.841  0.00  0.00    +0.000 A 
ATOM     15  F   UNL     1       2.301  12.803  19.896  0.00  0.00    +0.000 F 
ATOM     16  C   UNL     1       0.295  11.581  19.483  0.00  0.00    +0.000 A 
ATOM     17  C   UNL     1      -1.111  11.596  19.439  0.00  0.00    +0.000 A 
BRANCH  11  20
ATOM     18  O   UNL     1      -3.764  12.653  21.897  0.00  0.00    +0.000 OA
ATOM     19  C   UNL     1      -4.102  12.644  20.714  0.00  0.00    +0.000 C 
ATOM     20  N   UNL     1      -3.240  12.740  19.646  0.00  0.00    +0.000 N 
ATOM     21  N   UNL     1      -5.440  12.561  20.363  0.00  0.00    +0.000 N 
ATOM     22  C   UNL     1      -6.463  12.612  21.395  0.00  0.00    +0.000 C 
ATOM     23  C   UNL     1      -7.423  11.500  21.021  0.00  0.00    +0.000 C 
ATOM     24  C   UNL     1      -7.391  11.531  19.498  0.00  0.00    +0.000 C 
ATOM     25  C   UNL     1      -5.946  11.901  19.167  0.00  0.00    +0.000 C 
ATOM     26  H   UNL     1      -3.654  13.099  18.796  0.00  0.00    +0.000 HD
ENDBRANCH  11  20
ENDBRANCH   1  16
BRANCH   6  27
ATOM     27  C   UNL     1       3.343   4.860  19.121  0.00  0.00    +0.000 A 
ATOM     28  C   UNL     1       2.390   3.828  19.188  0.00  0.00    +0.000 A 
ATOM     29  C   UNL     1       2.771   2.516  19.471  0.00  0.00    +0.000 A 
ATOM     30  C   UNL     1       4.112   2.253  19.673  0.00  0.00    +0.000 A 
ATOM     31  N   UNL     1       5.069   3.196  19.609  0.00  0.00    +0.000 NA
ATOM     32  C   UNL     1       4.667   4.462  19.341  0.00  0.00    +0.000 A 
ATOM     33  F   UNL     1       5.645   5.382  19.310  0.00  0.00    +0.000 F 
ENDBRANCH   6  27
TORSDOF 3
ENDMDL
MODEL 6
REMARK VINA RESULT:      -8.7      1.053      1.256
REMARK  Name = 
REMARK  3 active torsions:
REMARK  status: ('A' for Active; 'I' for Inactive)
REMARK    1  A    between atoms: N_3  and  C_4
REMARK    2  A    between atoms: C_9  and  C_10
REMARK    3  A    between atoms: C_15  and  C_16
REMARK                            x       y       z     vdW  Elec       q    Type
REMARK                         _______ _______ _______ _____ _____    ______ ____
ROOT
ATOM      1  C   UNL     1       1.063   9.907  19.024  0.00  0.00    +0.000 A 
ATOM      2  N   UNL     1       1.108   8.880  19.857  0.00  0.00    +0.000 NA
ATOM      3  C   UNL     1       1.976   7.982  19.292  0.00  0.00    +0.000 A 
ATOM      4  N   UNL     1       2.329   6.790  19.813  0.00  0.00    +0.000 NA
ATOM      5  C   UNL     1       3.239   6.105  19.066  0.00  0.00    +0.000 A 
ATOM      6  C   UNL     1       3.827   6.507  17.853  0.00  0.00    +0.000 A 
ATOM      7  C   UNL     1       3.412   7.746  17.340  0.00  0.00    +0.000 A 
ATOM      8  C   UNL     1       2.483   8.456  18.096  0.00  0.00    +0.000 A 
ATOM      9  N   UNL     1       1.867   9.662  17.930  0.00  0.00    +0.000 N 
ATOM     10  H   UNL     1       1.983  10.294  17.150  0.00  0.00    +0.000 HD
ENDROOT
BRANCH   1  16
ATOM     11  C   UNL     1      -1.843  12.293  19.482  0.00  0.00    +0.000 A 
ATOM     12  C   UNL     1      -1.164  13.522  19.489  0.00  0.00    +0.000 A 
ATOM     13  C   UNL     1       0.217  13.571  19.335  0.00  0.00    +0.000 A 
ATOM     14  C   UNL     1       0.931  12.396  19.181  0.00  0.00    +0.000 A 
ATOM     15  F   UNL     1       2.262  12.484  19.032  0.00  0.00    +0.000 F 
ATOM     16  C   UNL     1       0.295  11.145  19.188  0.00  0.00    +0.000 A 
ATOM     17  C   UNL     1      -1.103  11.110  19.346  0.00  0.00    +0.000 A 
BRANCH  11  20
ATOM     18  O   UNL     1      -3.792  11.618  17.438  0.00  0.00    +0.000 OA
ATOM     19  C   UNL     1      -4.122  11.924  18.583  0.00  0.00    +0.000 C 
ATOM     20  N   UNL     1      -3.248  12.210  19.607  0.00  0.00    +0.000 N 
ATOM     21  N   UNL     1      -5.459  11.976  18.941  0.00  0.00    +0.000 N 
ATOM     22  C   UNL     1      -6.478  11.544  17.999  0.00  0.00    +0.000 C 
ATOM     23  C   UNL     1      -7.541  12.622  18.083  0.00  0.00    +0.000 C 
ATOM     24  C   UNL     1      -7.497  13.019  19.553  0.00  0.00    +0.000 C 
ATOM     25  C   UNL     1      -6.021  12.892  19.925  0.00  0.00    +0.000 C 
ATOM     26  H   UNL     1      -3.620  12.065  20.536  0.00  0.00    +0.000 HD
ENDBRANCH  11  20
ENDBRANCH   1  16
BRANCH   6  27
ATOM     27  C   UNL     1       4.837   5.686  17.146  0.00  0.00    +0.000 A 
ATOM     28  C   UNL     1       6.148   6.153  16.933  0.00  0.00    +0.000 A 
ATOM     29  C   UNL     1       7.084   5.379  16.248  0.00  0.00    +0.000 A 
ATOM     30  C   UNL     1       6.694   4.135  15.791  0.00  0.00    +0.000 A 
ATOM     31  N   UNL     1       5.461   3.631  15.974  0.00  0.00    +0.000 NA
ATOM     32  C   UNL     1       4.572   4.410  16.636  0.00  0.00    +0.000 A 
ATOM     33  F   UNL     1       3.342   3.887  16.779  0.00  0.00    +0.000 F 
ENDBRANCH   6  27
TORSDOF 3
ENDMDL
MODEL 7
REMARK VINA RESULT:      -8.7      2.865      3.389
REMARK  Name = 
REMARK  3 active torsions:
REMARK  status: ('A' for Active; 'I' for Inactive)
REMARK    1  A    between atoms: N_3  and  C_4
REMARK    2  A    between atoms: C_9  and  C_10
REMARK    3  A    between atoms: C_15  and  C_16
REMARK                            x       y       z     vdW  Elec       q    Type
REMARK                         _______ _______ _______ _____ _____    ______ ____
ROOT
ATOM      1  C   UNL     1       0.654  10.790  20.284  0.00  0.00    +0.000 A 
ATOM      2  N   UNL     1       1.015  10.799  19.012  0.00  0.00    +0.000 NA
ATOM      3  C   UNL     1       1.565   9.566  18.774  0.00  0.00    +0.000 A 
ATOM      4  N   UNL     1       2.060   9.136  17.596  0.00  0.00    +0.000 NA
ATOM      5  C   UNL     1       2.516   7.853  17.620  0.00  0.00    +0.000 A 
ATOM      6  C   UNL     1       2.517   6.965  18.712  0.00  0.00    +0.000 A 
ATOM      7  C   UNL     1       2.012   7.466  19.923  0.00  0.00    +0.000 A 
ATOM      8  C   UNL     1       1.542   8.777  19.909  0.00  0.00    +0.000 A 
ATOM      9  N   UNL     1       0.990   9.583  20.861  0.00  0.00    +0.000 N 
ATOM     10  H   UNL     1       0.828   9.344  21.830  0.00  0.00    +0.000 HD
ENDROOT
BRANCH   1  16
ATOM     11  C   UNL     1      -1.977  12.764  22.164  0.00  0.00    +0.000 A 
ATOM     12  C   UNL     1      -1.268  13.947  22.426  0.00  0.00    +0.000 A 
ATOM     13  C   UNL     1       0.042  14.102  21.986  0.00  0.00    +0.000 A 
ATOM     14  C   UNL     1       0.656  13.077  21.290  0.00  0.00    +0.000 A 
ATOM     15  F   UNL     1       1.920  13.264  20.879  0.00  0.00    +0.000 F 
ATOM     16  C   UNL     1      -0.009  11.869  21.023  0.00  0.00    +0.000 A 
ATOM     17  C   UNL     1      -1.333  11.725  21.475  0.00  0.00    +0.000 A 
BRANCH  11  20
ATOM     18  O   UNL     1      -4.401  13.438  20.713  0.00  0.00    +0.000 OA
ATOM     19  C   UNL     1      -4.426  12.967  21.849  0.00  0.00    +0.000 C 
ATOM     20  N   UNL     1      -3.318  12.585  22.571  0.00  0.00    +0.000 N 
ATOM     21  N   UNL     1      -5.632  12.753  22.497  0.00  0.00    +0.000 N 
ATOM     22  C   UNL     1      -6.883  12.966  21.787  0.00  0.00    +0.000 C 
ATOM     23  C   UNL     1      -7.741  13.737  22.771  0.00  0.00    +0.000 C 
ATOM     24  C   UNL     1      -7.321  13.147  24.112  0.00  0.00    +0.000 C 
ATOM     25  C   UNL     1      -5.832  12.856  23.937  0.00  0.00    +0.000 C 
ATOM     26  H   UNL     1      -3.494  11.890  23.284  0.00  0.00    +0.000 HD
ENDBRANCH  11  20
ENDBRANCH   1  16
BRANCH   6  27
ATOM     27  C   UNL     1       3.011   5.573  18.608  0.00  0.00    +0.000 A 
ATOM     28  C   UNL     1       4.236   5.182  19.180  0.00  0.00    +0.000 A 
ATOM     29  C   UNL     1       4.700   3.872  19.057  0.00  0.00    +0.000 A 
ATOM     30  C   UNL     1       3.920   2.964  18.368  0.00  0.00    +0.000 A 
ATOM     31  N   UNL     1       2.736   3.276  17.811  0.00  0.00    +0.000 NA
ATOM     32  C   UNL     1       2.317   4.558  17.939  0.00  0.00    +0.000 A 
ATOM     33  F   UNL     1       1.144   4.842  17.349  0.00  0.00    +0.000 F 
ENDBRANCH   6  27
TORSDOF 3
ENDMDL
MODEL 8
REMARK VINA RESULT:      -8.7      4.225     10.715
REMARK  Name = 
REMARK  3 active torsions:
REMARK  status: ('A' for Active; 'I' for Inactive)
REMARK    1  A    between atoms: N_3  and  C_4
REMARK    2  A    between atoms: C_9  and  C_10
REMARK    3  A    between atoms: C_15  and  C_16
REMARK                            x       y       z     vdW  Elec       q    Type
REMARK                         _______ _______ _______ _____ _____    ______ ____
ROOT
ATOM      1  C   UNL     1       2.517   6.810  19.171  0.00  0.00    +0.000 A 
ATOM      2  N   UNL     1       2.239   7.715  18.247  0.00  0.00    +0.000 NA
ATOM      3  C   UNL     1       1.638   8.751  18.913  0.00  0.00    +0.000 A 
ATOM      4  N   UNL     1       1.196   9.897  18.357  0.00  0.00    +0.000 NA
ATOM      5  C   UNL     1       0.670  10.782  19.249  0.00  0.00    +0.000 A 
ATOM      6  C   UNL     1       0.550  10.623  20.642  0.00  0.00    +0.000 A 
ATOM      7  C   UNL     1       1.003   9.404  21.172  0.00  0.00    +0.000 A 
ATOM      8  C   UNL     1       1.545   8.492  20.269  0.00  0.00    +0.000 A 
ATOM      9  N   UNL     1       2.078   7.245  20.405  0.00  0.00    +0.000 N 
ATOM     10  H   UNL     1       2.165   6.719  21.263  0.00  0.00    +0.000 HD
ENDROOT
BRANCH   1  16
ATOM     11  C   UNL     1       4.542   4.023  17.594  0.00  0.00    +0.000 A 
ATOM     12  C   UNL     1       4.463   3.050  18.603  0.00  0.00    +0.000 A 
ATOM     13  C   UNL     1       3.750   3.295  19.772  0.00  0.00    +0.000 A 
ATOM     14  C   UNL     1       3.120   4.513  19.947  0.00  0.00    +0.000 A 
ATOM     15  F   UNL     1       2.440   4.712  21.087  0.00  0.00    +0.000 F 
ATOM     16  C   UNL     1       3.189   5.522  18.973  0.00  0.00    +0.000 A 
ATOM     17  C   UNL     1       3.914   5.262  17.796  0.00  0.00    +0.000 A 
BRANCH  11  20
ATOM     18  O   UNL     1       6.640   5.632  16.393  0.00  0.00    +0.000 OA
ATOM     19  C   UNL     1       6.191   4.625  15.847  0.00  0.00    +0.000 C 
ATOM     20  N   UNL     1       5.232   3.797  16.383  0.00  0.00    +0.000 N 
ATOM     21  N   UNL     1       6.667   4.223  14.609  0.00  0.00    +0.000 N 
ATOM     22  C   UNL     1       7.790   4.921  14.004  0.00  0.00    +0.000 C 
ATOM     23  C   UNL     1       7.370   5.119  12.561  0.00  0.00    +0.000 C 
ATOM     24  C   UNL     1       6.572   3.854  12.269  0.00  0.00    +0.000 C 
ATOM     25  C   UNL     1       5.871   3.548  13.592  0.00  0.00    +0.000 C 
ATOM     26  H   UNL     1       5.243   2.849  16.030  0.00  0.00    +0.000 HD
ENDBRANCH  11  20
ENDBRANCH   1  16
BRANCH   6  27
ATOM     27  C   UNL     1      -0.013  11.675  21.519  0.00  0.00    +0.000 A 
ATOM     28  C   UNL     1       0.291  13.036  21.326  0.00  0.00    +0.000 A 
ATOM     29  C   UNL     1      -0.229  14.015  22.172  0.00  0.00    +0.000 A 
ATOM     30  C   UNL     1      -1.061  13.617  23.200  0.00  0.00    +0.000 A 
ATOM     31  N   UNL     1      -1.397  12.334  23.426  0.00  0.00    +0.000 NA
ATOM     32  C   UNL     1      -0.869  11.405  22.594  0.00  0.00    +0.000 A 
ATOM     33  F   UNL     1      -1.204  10.132  22.864  0.00  0.00    +0.000 F 
ENDBRANCH   6  27
TORSDOF 3
ENDMDL
MODEL 9
REMARK VINA RESULT:      -8.7      2.651      3.072
REMARK  Name = 
REMARK  3 active torsions:
REMARK  status: ('A' for Active; 'I' for Inactive)
REMARK    1  A    between atoms: N_3  and  C_4
REMARK    2  A    between atoms: C_9  and  C_10
REMARK    3  A    between atoms: C_15  and  C_16
REMARK                            x       y       z     vdW  Elec       q    Type
REMARK                         _______ _______ _______ _____ _____    ______ ____
ROOT
ATOM      1  C   UNL     1       0.765  10.732  19.717  0.00  0.00    +0.000 A 
ATOM      2  N   UNL     1       1.322  10.668  18.520  0.00  0.00    +0.000 NA
ATOM      3  C   UNL     1       1.840   9.403  18.419  0.00  0.00    +0.000 A 
ATOM      4  N   UNL     1       2.493   8.899  17.353  0.00  0.00    +0.000 NA
ATOM      5  C   UNL     1       2.873   7.599  17.498  0.00  0.00    +0.000 A 
ATOM      6  C   UNL     1       2.658   6.762  18.608  0.00  0.00    +0.000 A 
ATOM      7  C   UNL     1       1.993   7.339  19.703  0.00  0.00    +0.000 A 
ATOM      8  C   UNL     1       1.598   8.667  19.565  0.00  0.00    +0.000 A 
ATOM      9  N   UNL     1       0.944   9.539  20.386  0.00  0.00    +0.000 N 
ATOM     10  H   UNL     1       0.619   9.351  21.324  0.00  0.00    +0.000 HD
ENDROOT
BRANCH   1  16
ATOM     11  C   UNL     1      -2.041  13.050  20.771  0.00  0.00    +0.000 A 
ATOM     12  C   UNL     1      -1.307  14.063  21.408  0.00  0.00    +0.000 A 
ATOM     13  C   UNL     1       0.080  13.997  21.481  0.00  0.00    +0.000 A 
ATOM     14  C   UNL     1       0.744  12.917  20.928  0.00  0.00    +0.000 A 
ATOM     15  F   UNL     1       2.083  12.889  21.016  0.00  0.00    +0.000 F 
ATOM     16  C   UNL     1       0.049  11.872  20.299  0.00  0.00    +0.000 A 
ATOM     17  C   UNL     1      -1.354  11.951  20.233  0.00  0.00    +0.000 A 
BRANCH  11  20
ATOM     18  O   UNL     1      -4.038  12.347  22.759  0.00  0.00    +0.000 OA
ATOM     19  C   UNL     1      -4.342  12.712  21.624  0.00  0.00    +0.000 C 
ATOM     20  N   UNL     1      -3.447  13.101  20.653  0.00  0.00    +0.000 N 
ATOM     21  N   UNL     1      -5.671  12.785  21.240  0.00  0.00    +0.000 N 
ATOM     22  C   UNL     1      -6.721  12.553  22.219  0.00  0.00    +0.000 C 
ATOM     23  C   UNL     1      -7.699  11.640  21.503  0.00  0.00    +0.000 C 
ATOM     24  C   UNL     1      -7.623  12.134  20.064  0.00  0.00    +0.000 C 
ATOM     25  C   UNL     1      -6.160  12.540  19.890  0.00  0.00    +0.000 C 
ATOM     26  H   UNL     1      -3.829  13.715  19.947  0.00  0.00    +0.000 HD
ENDBRANCH  11  20
ENDBRANCH   1  16
BRANCH   6  27
ATOM     27  C   UNL     1       3.091   5.347  18.637  0.00  0.00    +0.000 A 
ATOM     28  C   UNL     1       4.271   4.951  19.294  0.00  0.00    +0.000 A 
ATOM     29  C   UNL     1       4.679   3.617  19.296  0.00  0.00    +0.000 A 
ATOM     30  C   UNL     1       3.888   2.690  18.645  0.00  0.00    +0.000 A 
ATOM     31  N   UNL     1       2.745   3.006  18.011  0.00  0.00    +0.000 NA
ATOM     32  C   UNL     1       2.380   4.311  18.019  0.00  0.00    +0.000 A 
ATOM     33  F   UNL     1       1.247   4.596  17.355  0.00  0.00    +0.000 F 
ENDBRANCH   6  27
TORSDOF 3
ENDMDL
