MODEL 1
REMARK VINA RESULT:      -7.9      0.000      0.000
REMARK  Name = 
REMARK  7 active torsions:
REMARK  status: ('A' for Active; 'I' for Inactive)
REMARK    1  A    between atoms: C_1  and  C_2
REMARK    2  A    between atoms: C_2  and  C_3
REMARK    3  A    between atoms: C_2  and  C_16
REMARK    4  A    between atoms: C_4  and  C_5
REMARK    5  A    between atoms: C_5  and  N_6
REMARK    6  A    between atoms: N_6  and  C_7
REMARK    7  A    between atoms: N_6  and  C_8
REMARK                            x       y       z     vdW  Elec       q    Type
REMARK                         _______ _______ _______ _____ _____    ______ ____
ROOT
ATOM      1  C   UNL     1       3.082   6.330  18.596  0.00  0.00    +0.000 C 
ATOM      2  C   UNL     1       2.703   5.679  19.727  0.00  0.00    +0.000 C 
ATOM      3  C   UNL     1       1.819   6.498  20.644  0.00  0.00    +0.000 C 
ATOM      4  C   UNL     1       1.694   7.751  19.865  0.00  0.00    +0.000 A 
ATOM      5  C   UNL     1       0.953   8.865  20.230  0.00  0.00    +0.000 A 
ATOM      6  C   UNL     1       0.951   9.946  19.360  0.00  0.00    +0.000 A 
ATOM      7  C   UNL     1       1.671   9.879  18.158  0.00  0.00    +0.000 A 
ATOM      8  C   UNL     1       2.408   8.731  17.805  0.00  0.00    +0.000 A 
ATOM      9  C   UNL     1       2.426   7.655  18.667  0.00  0.00    +0.000 A 
ENDROOT
BRANCH   1  11
ATOM     10  C   UNL     1       3.768   4.381  17.163  0.00  0.00    +0.000 C 
ATOM     11  C   UNL     1       4.069   5.838  17.549  0.00  0.00    +0.000 C 
BRANCH  11  12
ATOM     12  C   UNL     1       5.578   6.064  17.729  0.00  0.00    +0.000 A 
ATOM     13  C   UNL     1       6.259   5.399  18.760  0.00  0.00    +0.000 A 
ATOM     14  C   UNL     1       7.539   5.823  19.143  0.00  0.00    +0.000 A 
ATOM     15  C   UNL     1       8.127   6.885  18.479  0.00  0.00    +0.000 A 
ATOM     16  C   UNL     1       7.415   7.465  17.444  0.00  0.00    +0.000 A 
ATOM     17  N   UNL     1       6.175   7.083  17.054  0.00  0.00    +0.000 NA
ENDBRANCH  11  12
ENDBRANCH   1  11
BRANCH   2  18
ATOM     18  C   UNL     1       2.961   4.282  20.202  0.00  0.00    +0.000 C 
BRANCH  18  19
ATOM     19  N   UNL     1       1.649   3.682  20.470  0.00  0.00    +0.000 NA
ATOM     20  C   UNL     1       1.069   3.054  19.287  0.00  0.00    +0.000 C 
ATOM     21  C   UNL     1       1.596   2.827  21.640  0.00  0.00    +0.000 C 
ENDBRANCH  18  19
ENDBRANCH   2  18
TORSDOF 4
ENDMDL
MODEL 2
REMARK VINA RESULT:      -7.5      0.999      1.054
REMARK  Name = 
REMARK  7 active torsions:
REMARK  status: ('A' for Active; 'I' for Inactive)
REMARK    1  A    between atoms: C_1  and  C_2
REMARK    2  A    between atoms: C_2  and  C_3
REMARK    3  A    between atoms: C_2  and  C_16
REMARK    4  A    between atoms: C_4  and  C_5
REMARK    5  A    between atoms: C_5  and  N_6
REMARK    6  A    between atoms: N_6  and  C_7
REMARK    7  A    between atoms: N_6  and  C_8
REMARK                            x       y       z     vdW  Elec       q    Type
REMARK                         _______ _______ _______ _____ _____    ______ ____
ROOT
ATOM      1  C   UNL     1       2.897   5.961  18.712  0.00  0.00    +0.000 C 
ATOM      2  C   UNL     1       2.542   5.447  19.918  0.00  0.00    +0.000 C 
ATOM      3  C   UNL     1       1.785   6.415  20.803  0.00  0.00    +0.000 C 
ATOM      4  C   UNL     1       1.707   7.600  19.918  0.00  0.00    +0.000 A 
ATOM      5  C   UNL     1       1.079   8.799  20.219  0.00  0.00    +0.000 A 
ATOM      6  C   UNL     1       1.105   9.795  19.252  0.00  0.00    +0.000 A 
ATOM      7  C   UNL     1       1.739   9.561  18.023  0.00  0.00    +0.000 A 
ATOM      8  C   UNL     1       2.361   8.329  17.738  0.00  0.00    +0.000 A 
ATOM      9  C   UNL     1       2.351   7.337  18.695  0.00  0.00    +0.000 A 
ENDROOT
BRANCH   1  11
ATOM     10  C   UNL     1       3.073   4.063  17.072  0.00  0.00    +0.000 C 
ATOM     11  C   UNL     1       3.774   5.297  17.661  0.00  0.00    +0.000 C 
BRANCH  11  12
ATOM     12  C   UNL     1       5.255   5.010  17.947  0.00  0.00    +0.000 A 
ATOM     13  C   UNL     1       5.849   5.525  19.110  0.00  0.00    +0.000 A 
ATOM     14  C   UNL     1       7.244   5.553  19.233  0.00  0.00    +0.000 A 
ATOM     15  C   UNL     1       8.025   5.049  18.207  0.00  0.00    +0.000 A 
ATOM     16  C   UNL     1       7.372   4.517  17.109  0.00  0.00    +0.000 A 
ATOM     17  N   UNL     1       6.025   4.481  16.958  0.00  0.00    +0.000 NA
ENDBRANCH  11  12
ENDBRANCH   1  11
BRANCH   2  18
ATOM     18  C   UNL     1       2.721   4.082  20.507  0.00  0.00    +0.000 C 
BRANCH  18  19
ATOM     19  N   UNL     1       1.376   3.544  20.736  0.00  0.00    +0.000 NA
ATOM     20  C   UNL     1       0.778   2.995  19.522  0.00  0.00    +0.000 C 
ATOM     21  C   UNL     1       1.260   2.649  21.871  0.00  0.00    +0.000 C 
ENDBRANCH  18  19
ENDBRANCH   2  18
TORSDOF 4
ENDMDL
MODEL 3
REMARK VINA RESULT:      -7.4      0.982      1.247
REMARK  Name = 
REMARK  7 active torsions:
REMARK  status: ('A' for Active; 'I' for Inactive)
REMARK    1  A    between atoms: C_1  and  C_2
REMARK    2  A    between atoms: C_2  and  C_3
REMARK    3  A    between atoms: C_2  and  C_16
REMARK    4  A    between atoms: C_4  and  C_5
REMARK    5  A    between atoms: C_5  and  N_6
REMARK    6  A    between atoms: N_6  and  C_7
REMARK    7  A    between atoms: N_6  and  C_8
REMARK                            x       y       z     vdW  Elec       q    Type
REMARK                         _______ _______ _______ _____ _____    ______ ____
ROOT
ATOM      1  C   UNL     1       2.850   6.031  18.601  0.00  0.00    +0.000 C 
ATOM      2  C   UNL     1       2.573   5.474  19.808  0.00  0.00    +0.000 C 
ATOM      3  C   UNL     1       1.868   6.405  20.773  0.00  0.00    +0.000 C 
ATOM      4  C   UNL     1       1.731   7.620  19.936  0.00  0.00    +0.000 A 
ATOM      5  C   UNL     1       1.119   8.804  20.318  0.00  0.00    +0.000 A 
ATOM      6  C   UNL     1       1.081   9.834  19.388  0.00  0.00    +0.000 A 
ATOM      7  C   UNL     1       1.638   9.648  18.114  0.00  0.00    +0.000 A 
ATOM      8  C   UNL     1       2.246   8.430  17.747  0.00  0.00    +0.000 A 
ATOM      9  C   UNL     1       2.300   7.405  18.668  0.00  0.00    +0.000 A 
ENDROOT
BRANCH   1  11
ATOM     10  C   UNL     1       3.087   4.041  17.085  0.00  0.00    +0.000 C 
ATOM     11  C   UNL     1       3.662   5.411  17.476  0.00  0.00    +0.000 C 
BRANCH  11  12
ATOM     12  C   UNL     1       5.196   5.368  17.549  0.00  0.00    +0.000 A 
ATOM     13  C   UNL     1       5.922   4.762  16.512  0.00  0.00    +0.000 A 
ATOM     14  C   UNL     1       7.270   4.428  16.700  0.00  0.00    +0.000 A 
ATOM     15  C   UNL     1       7.878   4.721  17.909  0.00  0.00    +0.000 A 
ATOM     16  C   UNL     1       7.113   5.358  18.870  0.00  0.00    +0.000 A 
ATOM     17  N   UNL     1       5.808   5.690  18.721  0.00  0.00    +0.000 NA
ENDBRANCH  11  12
ENDBRANCH   1  11
BRANCH   2  18
ATOM     18  C   UNL     1       2.793   4.089  20.336  0.00  0.00    +0.000 C 
BRANCH  18  19
ATOM     19  N   UNL     1       1.470   3.556  20.680  0.00  0.00    +0.000 NA
ATOM     20  C   UNL     1       0.769   3.007  19.523  0.00  0.00    +0.000 C 
ATOM     21  C   UNL     1       1.448   2.664  21.822  0.00  0.00    +0.000 C 
ENDBRANCH  18  19
ENDBRANCH   2  18
TORSDOF 4
ENDMDL
MODEL 4
REMARK VINA RESULT:      -7.3      1.764      4.302
REMARK  Name = 
REMARK  7 active torsions:
REMARK  status: ('A' for Active; 'I' for Inactive)
REMARK    1  A    between atoms: C_1  and  C_2
REMARK    2  A    between atoms: C_2  and  C_3
REMARK    3  A    between atoms: C_2  and  C_16
REMARK    4  A    between atoms: C_4  and  C_5
REMARK    5  A    between atoms: C_5  and  N_6
REMARK    6  A    between atoms: N_6  and  C_7
REMARK    7  A    between atoms: N_6  and  C_8
REMARK                            x       y       z     vdW  Elec       q    Type
REMARK                         _______ _______ _______ _____ _____    ______ ____
ROOT
ATOM      1  C   UNL     1       2.834   6.002  19.034  0.00  0.00    +0.000 C 
ATOM      2  C   UNL     1       2.060   6.375  20.085  0.00  0.00    +0.000 C 
ATOM      3  C   UNL     1       1.098   5.305  20.556  0.00  0.00    +0.000 C 
ATOM      4  C   UNL     1       1.439   4.198  19.632  0.00  0.00    +0.000 A 
ATOM      5  C   UNL     1       0.870   2.933  19.634  0.00  0.00    +0.000 A 
ATOM      6  C   UNL     1       1.330   2.024  18.691  0.00  0.00    +0.000 A 
ATOM      7  C   UNL     1       2.343   2.395  17.795  0.00  0.00    +0.000 A 
ATOM      8  C   UNL     1       2.913   3.684  17.822  0.00  0.00    +0.000 A 
ATOM      9  C   UNL     1       2.455   4.600  18.745  0.00  0.00    +0.000 A 
ENDROOT
BRANCH   1  11
ATOM     10  C   UNL     1       3.021   7.802  17.289  0.00  0.00    +0.000 C 
ATOM     11  C   UNL     1       3.793   6.884  18.250  0.00  0.00    +0.000 C 
BRANCH  11  12
ATOM     12  C   UNL     1       5.030   6.281  17.567  0.00  0.00    +0.000 A 
ATOM     13  C   UNL     1       5.061   6.164  16.169  0.00  0.00    +0.000 A 
ATOM     14  C   UNL     1       6.015   5.341  15.554  0.00  0.00    +0.000 A 
ATOM     15  C   UNL     1       6.935   4.667  16.339  0.00  0.00    +0.000 A 
ATOM     16  C   UNL     1       6.872   4.864  17.707  0.00  0.00    +0.000 A 
ATOM     17  N   UNL     1       5.960   5.647  18.332  0.00  0.00    +0.000 NA
ENDBRANCH  11  12
ENDBRANCH   1  11
BRANCH   2  18
ATOM     18  C   UNL     1       2.024   7.636  20.893  0.00  0.00    +0.000 C 
BRANCH  18  19
ATOM     19  N   UNL     1       0.795   8.342  20.515  0.00  0.00    +0.000 NA
ATOM     20  C   UNL     1      -0.065   8.623  21.661  0.00  0.00    +0.000 C 
ATOM     21  C   UNL     1       0.993   9.501  19.667  0.00  0.00    +0.000 C 
ENDBRANCH  18  19
ENDBRANCH   2  18
TORSDOF 4
ENDMDL
MODEL 5
REMARK VINA RESULT:      -7.2      1.616      4.285
REMARK  Name = 
REMARK  7 active torsions:
REMARK  status: ('A' for Active; 'I' for Inactive)
REMARK    1  A    between atoms: C_1  and  C_2
REMARK    2  A    between atoms: C_2  and  C_3
REMARK    3  A    between atoms: C_2  and  C_16
REMARK    4  A    between atoms: C_4  and  C_5
REMARK    5  A    between atoms: C_5  and  N_6
REMARK    6  A    between atoms: N_6  and  C_7
REMARK    7  A    between atoms: N_6  and  C_8
REMARK                            x       y       z     vdW  Elec       q    Type
REMARK                         _______ _______ _______ _____ _____    ______ ____
ROOT
ATOM      1  C   UNL     1       3.877   5.433  17.358  0.00  0.00    +0.000 C 
ATOM      2  C   UNL     1       2.981   6.336  17.834  0.00  0.00    +0.000 C 
ATOM      3  C   UNL     1       1.787   5.716  18.529  0.00  0.00    +0.000 C 
ATOM      4  C   UNL     1       2.123   4.277  18.428  0.00  0.00    +0.000 A 
ATOM      5  C   UNL     1       1.370   3.230  18.938  0.00  0.00    +0.000 A 
ATOM      6  C   UNL     1       1.855   1.942  18.750  0.00  0.00    +0.000 A 
ATOM      7  C   UNL     1       3.070   1.743  18.078  0.00  0.00    +0.000 A 
ATOM      8  C   UNL     1       3.821   2.826  17.579  0.00  0.00    +0.000 A 
ATOM      9  C   UNL     1       3.343   4.108  17.749  0.00  0.00    +0.000 A 
ENDROOT
BRANCH   1  11
ATOM     10  C   UNL     1       5.368   4.566  15.530  0.00  0.00    +0.000 C 
ATOM     11  C   UNL     1       5.099   5.725  16.502  0.00  0.00    +0.000 C 
BRANCH  11  12
ATOM     12  C   UNL     1       6.402   6.225  17.144  0.00  0.00    +0.000 A 
ATOM     13  C   UNL     1       6.968   5.510  18.210  0.00  0.00    +0.000 A 
ATOM     14  C   UNL     1       7.955   6.103  19.009  0.00  0.00    +0.000 A 
ATOM     15  C   UNL     1       8.378   7.389  18.718  0.00  0.00    +0.000 A 
ATOM     16  C   UNL     1       7.808   8.018  17.626  0.00  0.00    +0.000 A 
ATOM     17  N   UNL     1       6.848   7.474  16.839  0.00  0.00    +0.000 NA
ENDBRANCH  11  12
ENDBRANCH   1  11
BRANCH   2  18
ATOM     18  C   UNL     1       2.989   7.834  17.837  0.00  0.00    +0.000 C 
BRANCH  18  19
ATOM     19  N   UNL     1       1.747   8.258  18.494  0.00  0.00    +0.000 NA
ATOM     20  C   UNL     1       1.884   8.349  19.945  0.00  0.00    +0.000 C 
ATOM     21  C   UNL     1       1.121   9.432  17.917  0.00  0.00    +0.000 C 
ENDBRANCH  18  19
ENDBRANCH   2  18
TORSDOF 4
ENDMDL
MODEL 6
REMARK VINA RESULT:      -7.0      1.923      5.778
REMARK  Name = 
REMARK  7 active torsions:
REMARK  status: ('A' for Active; 'I' for Inactive)
REMARK    1  A    between atoms: C_1  and  C_2
REMARK    2  A    between atoms: C_2  and  C_3
REMARK    3  A    between atoms: C_2  and  C_16
REMARK    4  A    between atoms: C_4  and  C_5
REMARK    5  A    between atoms: C_5  and  N_6
REMARK    6  A    between atoms: N_6  and  C_7
REMARK    7  A    between atoms: N_6  and  C_8
REMARK                            x       y       z     vdW  Elec       q    Type
REMARK                         _______ _______ _______ _____ _____    ______ ____
ROOT
ATOM      1  C   UNL     1       3.860   4.653  17.490  0.00  0.00    +0.000 C 
ATOM      2  C   UNL     1       4.289   5.668  18.283  0.00  0.00    +0.000 C 
ATOM      3  C   UNL     1       5.594   6.292  17.836  0.00  0.00    +0.000 C 
ATOM      4  C   UNL     1       5.874   5.506  16.612  0.00  0.00    +0.000 A 
ATOM      5  C   UNL     1       6.959   5.679  15.765  0.00  0.00    +0.000 A 
ATOM      6  C   UNL     1       7.045   4.846  14.657  0.00  0.00    +0.000 A 
ATOM      7  C   UNL     1       6.050   3.886  14.424  0.00  0.00    +0.000 A 
ATOM      8  C   UNL     1       4.952   3.738  15.295  0.00  0.00    +0.000 A 
ATOM      9  C   UNL     1       4.862   4.551  16.405  0.00  0.00    +0.000 A 
ENDROOT
BRANCH   1  11
ATOM     10  C   UNL     1       1.377   4.379  17.207  0.00  0.00    +0.000 C 
ATOM     11  C   UNL     1       2.669   3.741  17.741  0.00  0.00    +0.000 C 
BRANCH  11  12
ATOM     12  C   UNL     1       2.445   3.109  19.123  0.00  0.00    +0.000 A 
ATOM     13  C   UNL     1       1.216   3.288  19.775  0.00  0.00    +0.000 A 
ATOM     14  C   UNL     1       1.098   3.005  21.143  0.00  0.00    +0.000 A 
ATOM     15  C   UNL     1       2.199   2.528  21.833  0.00  0.00    +0.000 A 
ATOM     16  C   UNL     1       3.367   2.335  21.117  0.00  0.00    +0.000 A 
ATOM     17  N   UNL     1       3.514   2.605  19.797  0.00  0.00    +0.000 NA
ENDBRANCH  11  12
ENDBRANCH   1  11
BRANCH   2  18
ATOM     18  C   UNL     1       3.677   6.314  19.488  0.00  0.00    +0.000 C 
BRANCH  18  19
ATOM     19  N   UNL     1       2.525   7.087  19.011  0.00  0.00    +0.000 NA
ATOM     20  C   UNL     1       1.776   7.705  20.101  0.00  0.00    +0.000 C 
ATOM     21  C   UNL     1       2.814   8.014  17.934  0.00  0.00    +0.000 C 
ENDBRANCH  18  19
ENDBRANCH   2  18
TORSDOF 4
ENDMDL
MODEL 7
REMARK VINA RESULT:      -7.0      1.803      5.274
REMARK  Name = 
REMARK  7 active torsions:
REMARK  status: ('A' for Active; 'I' for Inactive)
REMARK    1  A    between atoms: C_1  and  C_2
REMARK    2  A    between atoms: C_2  and  C_3
REMARK    3  A    between atoms: C_2  and  C_16
REMARK    4  A    between atoms: C_4  and  C_5
REMARK    5  A    between atoms: C_5  and  N_6
REMARK    6  A    between atoms: N_6  and  C_7
REMARK    7  A    between atoms: N_6  and  C_8
REMARK                            x       y       z     vdW  Elec       q    Type
REMARK                         _______ _______ _______ _____ _____    ______ ____
ROOT
ATOM      1  C   UNL     1       3.724   5.187  18.761  0.00  0.00    +0.000 C 
ATOM      2  C   UNL     1       3.116   4.513  17.751  0.00  0.00    +0.000 C 
ATOM      3  C   UNL     1       4.068   3.978  16.702  0.00  0.00    +0.000 C 
ATOM      4  C   UNL     1       5.370   4.412  17.260  0.00  0.00    +0.000 A 
ATOM      5  C   UNL     1       6.616   4.159  16.708  0.00  0.00    +0.000 A 
ATOM      6  C   UNL     1       7.727   4.643  17.385  0.00  0.00    +0.000 A 
ATOM      7  C   UNL     1       7.562   5.346  18.587  0.00  0.00    +0.000 A 
ATOM      8  C   UNL     1       6.284   5.581  19.134  0.00  0.00    +0.000 A 
ATOM      9  C   UNL     1       5.173   5.115  18.463  0.00  0.00    +0.000 A 
ENDROOT
BRANCH   1  11
ATOM     10  C   UNL     1       2.325   4.991  20.839  0.00  0.00    +0.000 C 
ATOM     11  C   UNL     1       3.045   5.955  19.883  0.00  0.00    +0.000 C 
BRANCH  11  12
ATOM     12  C   UNL     1       2.177   7.185  19.577  0.00  0.00    +0.000 A 
ATOM     13  C   UNL     1       2.267   7.799  18.318  0.00  0.00    +0.000 A 
ATOM     14  C   UNL     1       1.742   9.084  18.125  0.00  0.00    +0.000 A 
ATOM     15  C   UNL     1       1.117   9.726  19.180  0.00  0.00    +0.000 A 
ATOM     16  C   UNL     1       1.026   9.043  20.380  0.00  0.00    +0.000 A 
ATOM     17  N   UNL     1       1.529   7.804  20.600  0.00  0.00    +0.000 NA
ENDBRANCH  11  12
ENDBRANCH   1  11
BRANCH   2  18
ATOM     18  C   UNL     1       1.679   4.160  17.518  0.00  0.00    +0.000 C 
BRANCH  18  19
ATOM     19  N   UNL     1       1.493   2.797  18.030  0.00  0.00    +0.000 NA
ATOM     20  C   UNL     1       2.759   2.105  18.251  0.00  0.00    +0.000 C 
ATOM     21  C   UNL     1       0.590   2.686  19.159  0.00  0.00    +0.000 C 
ENDBRANCH  18  19
ENDBRANCH   2  18
TORSDOF 4
ENDMDL
MODEL 8
REMARK VINA RESULT:      -6.8      2.223      3.162
REMARK  Name = 
REMARK  7 active torsions:
REMARK  status: ('A' for Active; 'I' for Inactive)
REMARK    1  A    between atoms: C_1  and  C_2
REMARK    2  A    between atoms: C_2  and  C_3
REMARK    3  A    between atoms: C_2  and  C_16
REMARK    4  A    between atoms: C_4  and  C_5
REMARK    5  A    between atoms: C_5  and  N_6
REMARK    6  A    between atoms: N_6  and  C_7
REMARK    7  A    between atoms: N_6  and  C_8
REMARK                            x       y       z     vdW  Elec       q    Type
REMARK                         _______ _______ _______ _____ _____    ______ ____
ROOT
ATOM      1  C   UNL     1       4.792   4.930  18.358  0.00  0.00    +0.000 C 
ATOM      2  C   UNL     1       4.194   4.204  19.338  0.00  0.00    +0.000 C 
ATOM      3  C   UNL     1       3.005   4.889  19.977  0.00  0.00    +0.000 C 
ATOM      4  C   UNL     1       2.956   6.147  19.197  0.00  0.00    +0.000 A 
ATOM      5  C   UNL     1       2.020   7.160  19.347  0.00  0.00    +0.000 A 
ATOM      6  C   UNL     1       2.134   8.264  18.513  0.00  0.00    +0.000 A 
ATOM      7  C   UNL     1       3.159   8.317  17.557  0.00  0.00    +0.000 A 
ATOM      8  C   UNL     1       4.091   7.269  17.418  0.00  0.00    +0.000 A 
ATOM      9  C   UNL     1       3.995   6.173  18.249  0.00  0.00    +0.000 A 
ENDROOT
BRANCH   1  11
ATOM     10  C   UNL     1       7.286   5.239  18.311  0.00  0.00    +0.000 C 
ATOM     11  C   UNL     1       6.078   4.585  17.623  0.00  0.00    +0.000 C 
BRANCH  11  12
ATOM     12  C   UNL     1       6.167   4.723  16.096  0.00  0.00    +0.000 A 
ATOM     13  C   UNL     1       5.191   4.119  15.289  0.00  0.00    +0.000 A 
ATOM     14  C   UNL     1       5.417   3.956  13.915  0.00  0.00    +0.000 A 
ATOM     15  C   UNL     1       6.601   4.416  13.365  0.00  0.00    +0.000 A 
ATOM     16  C   UNL     1       7.500   5.039  14.213  0.00  0.00    +0.000 A 
ATOM     17  N   UNL     1       7.312   5.207  15.545  0.00  0.00    +0.000 NA
ENDBRANCH  11  12
ENDBRANCH   1  11
BRANCH   2  18
ATOM     18  C   UNL     1       4.470   2.828  19.862  0.00  0.00    +0.000 C 
BRANCH  18  19
ATOM     19  N   UNL     1       3.475   1.939  19.250  0.00  0.00    +0.000 NA
ATOM     20  C   UNL     1       2.139   2.126  19.809  0.00  0.00    +0.000 C 
ATOM     21  C   UNL     1       3.478   1.924  17.801  0.00  0.00    +0.000 C 
ENDBRANCH  18  19
ENDBRANCH   2  18
TORSDOF 4
ENDMDL
MODEL 9
REMARK VINA RESULT:      -6.8      1.769      4.244
REMARK  Name = 
REMARK  7 active torsions:
REMARK  status: ('A' for Active; 'I' for Inactive)
REMARK    1  A    between atoms: C_1  and  C_2
REMARK    2  A    between atoms: C_2  and  C_3
REMARK    3  A    between atoms: C_2  and  C_16
REMARK    4  A    between atoms: C_4  and  C_5
REMARK    5  A    between atoms: C_5  and  N_6
REMARK    6  A    between atoms: N_6  and  C_7
REMARK    7  A    between atoms: N_6  and  C_8
REMARK                            x       y       z     vdW  Elec       q    Type
REMARK                         _______ _______ _______ _____ _____    ______ ____
ROOT
ATOM      1  C   UNL     1       2.939   5.780  19.025  0.00  0.00    +0.000 C 
ATOM      2  C   UNL     1       2.165   6.296  20.015  0.00  0.00    +0.000 C 
ATOM      3  C   UNL     1       1.094   5.351  20.519  0.00  0.00    +0.000 C 
ATOM      4  C   UNL     1       1.366   4.154  19.689  0.00  0.00    +0.000 A 
ATOM      5  C   UNL     1       0.684   2.949  19.755  0.00  0.00    +0.000 A 
ATOM      6  C   UNL     1       1.091   1.936  18.898  0.00  0.00    +0.000 A 
ATOM      7  C   UNL     1       2.164   2.150  18.021  0.00  0.00    +0.000 A 
ATOM      8  C   UNL     1       2.848   3.382  17.981  0.00  0.00    +0.000 A 
ATOM      9  C   UNL     1       2.443   4.399  18.819  0.00  0.00    +0.000 A 
ENDROOT
BRANCH   1  11
ATOM     10  C   UNL     1       3.365   7.629  17.376  0.00  0.00    +0.000 C 
ATOM     11  C   UNL     1       4.000   6.514  18.221  0.00  0.00    +0.000 C 
BRANCH  11  12
ATOM     12  C   UNL     1       5.049   5.734  17.413  0.00  0.00    +0.000 A 
ATOM     13  C   UNL     1       6.164   5.191  18.069  0.00  0.00    +0.000 A 
ATOM     14  C   UNL     1       7.275   4.764  17.329  0.00  0.00    +0.000 A 
ATOM     15  C   UNL     1       7.248   4.863  15.949  0.00  0.00    +0.000 A 
ATOM     16  C   UNL     1       6.098   5.368  15.367  0.00  0.00    +0.000 A 
ATOM     17  N   UNL     1       5.011   5.794  16.055  0.00  0.00    +0.000 NA
ENDBRANCH  11  12
ENDBRANCH   1  11
BRANCH   2  18
ATOM     18  C   UNL     1       2.217   7.610  20.731  0.00  0.00    +0.000 C 
BRANCH  18  19
ATOM     19  N   UNL     1       0.964   8.307  20.419  0.00  0.00    +0.000 NA
ATOM     20  C   UNL     1       0.238   8.717  21.618  0.00  0.00    +0.000 C 
ATOM     21  C   UNL     1       1.085   9.375  19.447  0.00  0.00    +0.000 C 
ENDBRANCH  18  19
ENDBRANCH   2  18
TORSDOF 4
ENDMDL
