MODEL 1
REMARK VINA RESULT:      -9.2      0.000      0.000
REMARK  Name = 
REMARK  7 active torsions:
REMARK  status: ('A' for Active; 'I' for Inactive)
REMARK    1  A    between atoms: C_1  and  C_2
REMARK    2  A    between atoms: C_5  and  N_6
REMARK    3  A    between atoms: N_6  and  C_7
REMARK    4  A    between atoms: N_13  and  S_14
REMARK    5  A    between atoms: S_14  and  C_17
REMARK    6  A    between atoms: C_20  and  C_21
REMARK    7  A    between atoms: C_22  and  C_23
REMARK                            x       y       z     vdW  Elec       q    Type
REMARK                         _______ _______ _______ _____ _____    ______ ____
ROOT
ATOM      1  N   UNL     1       2.746   6.759  18.712  0.00  0.00    +0.000 N 
ATOM      2  C   UNL     1       2.212   5.921  19.788  0.00  0.00    +0.000 C 
ATOM      3  C   UNL     1       2.330   8.089  18.501  0.00  0.00    +0.000 C 
ATOM      4  O   UNL     1       2.626   8.743  17.500  0.00  0.00    +0.000 OA
ATOM      5  N   UNL     1       1.490   8.708  19.422  0.00  0.00    +0.000 N 
ATOM      6  C   UNL     1       0.827   9.956  18.988  0.00  0.00    +0.000 C 
ATOM      7  C   UNL     1      -0.603  10.078  19.550  0.00  0.00    +0.000 C 
ATOM      8  N   UNL     1      -0.681   9.803  21.026  0.00  0.00    +0.000 NA
ATOM      9  C   UNL     1       0.021   8.524  21.362  0.00  0.00    +0.000 C 
ATOM     10  C   UNL     1       1.479   8.573  20.885  0.00  0.00    +0.000 C 
ENDROOT
BRANCH   1  15
ATOM     11  C   UNL     1       6.116   3.929  14.887  0.00  0.00    +0.000 C 
ATOM     12  C   UNL     1       5.270   4.664  15.881  0.00  0.00    +0.000 A 
ATOM     13  C   UNL     1       5.437   6.028  16.102  0.00  0.00    +0.000 A 
ATOM     14  C   UNL     1       4.633   6.710  17.029  0.00  0.00    +0.000 A 
ATOM     15  C   UNL     1       3.637   6.065  17.777  0.00  0.00    +0.000 A 
ATOM     16  C   UNL     1       3.511   4.678  17.554  0.00  0.00    +0.000 A 
ATOM     17  C   UNL     1       4.297   3.993  16.615  0.00  0.00    +0.000 A 
ENDBRANCH   1  15
BRANCH   8  18
ATOM     18  S   UNL     1      -0.292  11.092  22.069  0.00  0.00    +0.000 S 
ATOM     19  O   UNL     1      -0.021  10.541  23.380  0.00  0.00    +0.000 OA
ATOM     20  O   UNL     1       0.691  11.929  21.404  0.00  0.00    +0.000 OA
BRANCH  18  21
ATOM     21  C   UNL     1      -1.799  11.994  22.179  0.00  0.00    +0.000 A 
ATOM     22  C   UNL     1      -2.214  12.794  21.120  0.00  0.00    +0.000 A 
ATOM     23  C   UNL     1      -3.397  13.518  21.240  0.00  0.00    +0.000 A 
ATOM     24  C   UNL     1      -4.177  13.443  22.409  0.00  0.00    +0.000 A 
ATOM     25  C   UNL     1      -5.430  14.266  22.488  0.00  0.00    +0.000 C 
ATOM     26  C   UNL     1      -3.764  12.604  23.466  0.00  0.00    +0.000 A 
ATOM     27  C   UNL     1      -4.561  12.412  24.728  0.00  0.00    +0.000 C 
ATOM     28  C   UNL     1      -2.562  11.895  23.346  0.00  0.00    +0.000 A 
ENDBRANCH  18  21
ENDBRANCH   8  18
TORSDOF 3
ENDMDL
MODEL 2
REMARK VINA RESULT:      -8.7      0.642      1.352
REMARK  Name = 
REMARK  7 active torsions:
REMARK  status: ('A' for Active; 'I' for Inactive)
REMARK    1  A    between atoms: C_1  and  C_2
REMARK    2  A    between atoms: C_5  and  N_6
REMARK    3  A    between atoms: N_6  and  C_7
REMARK    4  A    between atoms: N_13  and  S_14
REMARK    5  A    between atoms: S_14  and  C_17
REMARK    6  A    between atoms: C_20  and  C_21
REMARK    7  A    between atoms: C_22  and  C_23
REMARK                            x       y       z     vdW  Elec       q    Type
REMARK                         _______ _______ _______ _____ _____    ______ ____
ROOT
ATOM      1  N   UNL     1       2.687   6.912  18.696  0.00  0.00    +0.000 N 
ATOM      2  C   UNL     1       2.190   6.192  19.870  0.00  0.00    +0.000 C 
ATOM      3  C   UNL     1       2.222   8.193  18.332  0.00  0.00    +0.000 C 
ATOM      4  O   UNL     1       2.488   8.731  17.256  0.00  0.00    +0.000 OA
ATOM      5  N   UNL     1       1.366   8.888  19.181  0.00  0.00    +0.000 N 
ATOM      6  C   UNL     1       0.657  10.051  18.609  0.00  0.00    +0.000 C 
ATOM      7  C   UNL     1      -0.773  10.190  19.167  0.00  0.00    +0.000 C 
ATOM      8  N   UNL     1      -0.831  10.091  20.666  0.00  0.00    +0.000 NA
ATOM      9  C   UNL     1      -0.081   8.887  21.145  0.00  0.00    +0.000 C 
ATOM     10  C   UNL     1       1.371   8.929  20.650  0.00  0.00    +0.000 C 
ENDROOT
BRANCH   1  15
ATOM     11  C   UNL     1       6.133   3.797  15.173  0.00  0.00    +0.000 C 
ATOM     12  C   UNL     1       5.267   4.603  16.091  0.00  0.00    +0.000 A 
ATOM     13  C   UNL     1       5.534   5.946  16.342  0.00  0.00    +0.000 A 
ATOM     14  C   UNL     1       4.712   6.696  17.197  0.00  0.00    +0.000 A 
ATOM     15  C   UNL     1       3.595   6.142  17.840  0.00  0.00    +0.000 A 
ATOM     16  C   UNL     1       3.366   4.773  17.592  0.00  0.00    +0.000 A 
ATOM     17  C   UNL     1       4.172   4.021  16.724  0.00  0.00    +0.000 A 
ENDBRANCH   1  15
BRANCH   8  18
ATOM     18  S   UNL     1      -0.481  11.509  21.543  0.00  0.00    +0.000 S 
ATOM     19  O   UNL     1       0.223  11.127  22.749  0.00  0.00    +0.000 OA
ATOM     20  O   UNL     1       0.098  12.475  20.626  0.00  0.00    +0.000 OA
BRANCH  18  21
ATOM     21  C   UNL     1      -2.071  12.091  22.025  0.00  0.00    +0.000 A 
ATOM     22  C   UNL     1      -2.458  12.042  23.360  0.00  0.00    +0.000 A 
ATOM     23  C   UNL     1      -3.729  12.484  23.714  0.00  0.00    +0.000 A 
ATOM     24  C   UNL     1      -4.618  12.986  22.744  0.00  0.00    +0.000 A 
ATOM     25  C   UNL     1      -5.984  13.425  23.184  0.00  0.00    +0.000 C 
ATOM     26  C   UNL     1      -4.204  13.063  21.397  0.00  0.00    +0.000 A 
ATOM     27  C   UNL     1      -5.059  13.639  20.302  0.00  0.00    +0.000 C 
ATOM     28  C   UNL     1      -2.931  12.596  21.045  0.00  0.00    +0.000 A 
ENDBRANCH  18  21
ENDBRANCH   8  18
TORSDOF 3
ENDMDL
MODEL 3
REMARK VINA RESULT:      -8.2      0.949      1.119
REMARK  Name = 
REMARK  7 active torsions:
REMARK  status: ('A' for Active; 'I' for Inactive)
REMARK    1  A    between atoms: C_1  and  C_2
REMARK    2  A    between atoms: C_5  and  N_6
REMARK    3  A    between atoms: N_6  and  C_7
REMARK    4  A    between atoms: N_13  and  S_14
REMARK    5  A    between atoms: S_14  and  C_17
REMARK    6  A    between atoms: C_20  and  C_21
REMARK    7  A    between atoms: C_22  and  C_23
REMARK                            x       y       z     vdW  Elec       q    Type
REMARK                         _______ _______ _______ _____ _____    ______ ____
ROOT
ATOM      1  N   UNL     1       2.639   7.005  18.780  0.00  0.00    +0.000 N 
ATOM      2  C   UNL     1       2.124   6.241  19.917  0.00  0.00    +0.000 C 
ATOM      3  C   UNL     1       2.217   8.319  18.487  0.00  0.00    +0.000 C 
ATOM      4  O   UNL     1       2.496   8.905  17.440  0.00  0.00    +0.000 OA
ATOM      5  N   UNL     1       1.391   8.996  19.380  0.00  0.00    +0.000 N 
ATOM      6  C   UNL     1       0.719  10.212  18.876  0.00  0.00    +0.000 C 
ATOM      7  C   UNL     1      -0.702  10.371  19.452  0.00  0.00    +0.000 C 
ATOM      8  N   UNL     1      -0.754  10.194  20.944  0.00  0.00    +0.000 NA
ATOM      9  C   UNL     1      -0.044   8.941  21.351  0.00  0.00    +0.000 C 
ATOM     10  C   UNL     1       1.405   8.958  20.849  0.00  0.00    +0.000 C 
ENDROOT
BRANCH   1  15
ATOM     11  C   UNL     1       5.949   3.936  15.090  0.00  0.00    +0.000 C 
ATOM     12  C   UNL     1       5.119   4.733  16.048  0.00  0.00    +0.000 A 
ATOM     13  C   UNL     1       5.310   6.103  16.203  0.00  0.00    +0.000 A 
ATOM     14  C   UNL     1       4.520   6.843  17.098  0.00  0.00    +0.000 A 
ATOM     15  C   UNL     1       3.515   6.251  17.877  0.00  0.00    +0.000 A 
ATOM     16  C   UNL     1       3.365   4.858  17.722  0.00  0.00    +0.000 A 
ATOM     17  C   UNL     1       4.137   4.115  16.817  0.00  0.00    +0.000 A 
ENDBRANCH   1  15
BRANCH   8  18
ATOM     18  S   UNL     1      -0.350  11.550  21.892  0.00  0.00    +0.000 S 
ATOM     19  O   UNL     1      -0.494  11.180  23.285  0.00  0.00    +0.000 OA
ATOM     20  O   UNL     1       0.905  12.088  21.398  0.00  0.00    +0.000 OA
BRANCH  18  21
ATOM     21  C   UNL     1      -1.628  12.701  21.520  0.00  0.00    +0.000 A 
ATOM     22  C   UNL     1      -1.311  13.959  21.020  0.00  0.00    +0.000 A 
ATOM     23  C   UNL     1      -2.337  14.863  20.757  0.00  0.00    +0.000 A 
ATOM     24  C   UNL     1      -3.683  14.516  20.981  0.00  0.00    +0.000 A 
ATOM     25  C   UNL     1      -4.743  15.541  20.702  0.00  0.00    +0.000 C 
ATOM     26  C   UNL     1      -3.997  13.225  21.459  0.00  0.00    +0.000 A 
ATOM     27  C   UNL     1      -5.406  12.743  21.671  0.00  0.00    +0.000 C 
ATOM     28  C   UNL     1      -2.957  12.329  21.741  0.00  0.00    +0.000 A 
ENDBRANCH  18  21
ENDBRANCH   8  18
TORSDOF 3
ENDMDL
MODEL 4
REMARK VINA RESULT:      -8.1      0.892      1.858
REMARK  Name = 
REMARK  7 active torsions:
REMARK  status: ('A' for Active; 'I' for Inactive)
REMARK    1  A    between atoms: C_1  and  C_2
REMARK    2  A    between atoms: C_5  and  N_6
REMARK    3  A    between atoms: N_6  and  C_7
REMARK    4  A    between atoms: N_13  and  S_14
REMARK    5  A    between atoms: S_14  and  C_17
REMARK    6  A    between atoms: C_20  and  C_21
REMARK    7  A    between atoms: C_22  and  C_23
REMARK                            x       y       z     vdW  Elec       q    Type
REMARK                         _______ _______ _______ _____ _____    ______ ____
ROOT
ATOM      1  N   UNL     1       2.585   6.870  18.759  0.00  0.00    +0.000 N 
ATOM      2  C   UNL     1       2.033   6.067  19.851  0.00  0.00    +0.000 C 
ATOM      3  C   UNL     1       2.209   8.209  18.528  0.00  0.00    +0.000 C 
ATOM      4  O   UNL     1       2.519   8.836  17.514  0.00  0.00    +0.000 OA
ATOM      5  N   UNL     1       1.394   8.868  19.444  0.00  0.00    +0.000 N 
ATOM      6  C   UNL     1       0.768  10.128  18.993  0.00  0.00    +0.000 C 
ATOM      7  C   UNL     1      -0.655  10.304  19.561  0.00  0.00    +0.000 C 
ATOM      8  N   UNL     1      -0.731  10.055  21.041  0.00  0.00    +0.000 NA
ATOM      9  C   UNL     1      -0.067   8.762  21.394  0.00  0.00    +0.000 C 
ATOM     10  C   UNL     1       1.389   8.757  20.909  0.00  0.00    +0.000 C 
ENDROOT
BRANCH   1  15
ATOM     11  C   UNL     1       6.186   4.014  15.171  0.00  0.00    +0.000 C 
ATOM     12  C   UNL     1       5.243   4.738  16.081  0.00  0.00    +0.000 A 
ATOM     13  C   UNL     1       4.234   4.063  16.762  0.00  0.00    +0.000 A 
ATOM     14  C   UNL     1       3.360   4.749  17.620  0.00  0.00    +0.000 A 
ATOM     15  C   UNL     1       3.449   6.133  17.830  0.00  0.00    +0.000 A 
ATOM     16  C   UNL     1       4.460   6.796  17.104  0.00  0.00    +0.000 A 
ATOM     17  C   UNL     1       5.349   6.115  16.260  0.00  0.00    +0.000 A 
ENDBRANCH   1  15
BRANCH   8  18
ATOM     18  S   UNL     1      -0.296  11.350  22.060  0.00  0.00    +0.000 S 
ATOM     19  O   UNL     1      -0.416  10.898  23.431  0.00  0.00    +0.000 OA
ATOM     20  O   UNL     1       0.953  11.906  21.573  0.00  0.00    +0.000 OA
BRANCH  18  21
ATOM     21  C   UNL     1      -1.572  12.531  21.784  0.00  0.00    +0.000 A 
ATOM     22  C   UNL     1      -2.877  12.254  22.174  0.00  0.00    +0.000 A 
ATOM     23  C   UNL     1      -3.874  13.192  21.922  0.00  0.00    +0.000 A 
ATOM     24  C   UNL     1      -3.576  14.414  21.290  0.00  0.00    +0.000 A 
ATOM     25  C   UNL     1      -4.697  15.375  21.023  0.00  0.00    +0.000 C 
ATOM     26  C   UNL     1      -2.242  14.700  20.926  0.00  0.00    +0.000 A 
ATOM     27  C   UNL     1      -1.817  16.001  20.302  0.00  0.00    +0.000 C 
ATOM     28  C   UNL     1      -1.248  13.741  21.164  0.00  0.00    +0.000 A 
ENDBRANCH  18  21
ENDBRANCH   8  18
TORSDOF 3
ENDMDL
MODEL 5
REMARK VINA RESULT:      -8.1      1.030      1.100
REMARK  Name = 
REMARK  7 active torsions:
REMARK  status: ('A' for Active; 'I' for Inactive)
REMARK    1  A    between atoms: C_1  and  C_2
REMARK    2  A    between atoms: C_5  and  N_6
REMARK    3  A    between atoms: N_6  and  C_7
REMARK    4  A    between atoms: N_13  and  S_14
REMARK    5  A    between atoms: S_14  and  C_17
REMARK    6  A    between atoms: C_20  and  C_21
REMARK    7  A    between atoms: C_22  and  C_23
REMARK                            x       y       z     vdW  Elec       q    Type
REMARK                         _______ _______ _______ _____ _____    ______ ____
ROOT
ATOM      1  N   UNL     1       2.536   7.292  18.764  0.00  0.00    +0.000 N 
ATOM      2  C   UNL     1       2.091   6.731  20.040  0.00  0.00    +0.000 C 
ATOM      3  C   UNL     1       2.042   8.508  18.249  0.00  0.00    +0.000 C 
ATOM      4  O   UNL     1       2.262   8.900  17.102  0.00  0.00    +0.000 OA
ATOM      5  N   UNL     1       1.207   9.303  19.029  0.00  0.00    +0.000 N 
ATOM      6  C   UNL     1       0.462  10.373  18.334  0.00  0.00    +0.000 C 
ATOM      7  C   UNL     1      -0.949  10.573  18.921  0.00  0.00    +0.000 C 
ATOM      8  N   UNL     1      -0.952  10.675  20.421  0.00  0.00    +0.000 NA
ATOM      9  C   UNL     1      -0.170   9.553  21.028  0.00  0.00    +0.000 C 
ATOM     10  C   UNL     1       1.263   9.540  20.479  0.00  0.00    +0.000 C 
ENDROOT
BRANCH   1  15
ATOM     11  C   UNL     1       5.900   3.780  15.548  0.00  0.00    +0.000 C 
ATOM     12  C   UNL     1       5.055   4.688  16.387  0.00  0.00    +0.000 A 
ATOM     13  C   UNL     1       5.386   6.030  16.557  0.00  0.00    +0.000 A 
ATOM     14  C   UNL     1       4.583   6.875  17.339  0.00  0.00    +0.000 A 
ATOM     15  C   UNL     1       3.424   6.422  17.986  0.00  0.00    +0.000 A 
ATOM     16  C   UNL     1       3.130   5.053  17.820  0.00  0.00    +0.000 A 
ATOM     17  C   UNL     1       3.917   4.205  17.026  0.00  0.00    +0.000 A 
ENDBRANCH   1  15
BRANCH   8  18
ATOM     18  S   UNL     1      -0.590  12.201  21.087  0.00  0.00    +0.000 S 
ATOM     19  O   UNL     1       0.319  12.000  22.195  0.00  0.00    +0.000 OA
ATOM     20  O   UNL     1      -0.241  13.096  19.999  0.00  0.00    +0.000 OA
BRANCH  18  21
ATOM     21  C   UNL     1      -2.130  12.725  21.760  0.00  0.00    +0.000 A 
ATOM     22  C   UNL     1      -3.305  12.544  21.040  0.00  0.00    +0.000 A 
ATOM     23  C   UNL     1      -4.508  12.990  21.581  0.00  0.00    +0.000 A 
ATOM     24  C   UNL     1      -4.549  13.608  22.845  0.00  0.00    +0.000 A 
ATOM     25  C   UNL     1      -5.872  14.090  23.364  0.00  0.00    +0.000 C 
ATOM     26  C   UNL     1      -3.354  13.759  23.582  0.00  0.00    +0.000 A 
ATOM     27  C   UNL     1      -3.307  14.352  24.964  0.00  0.00    +0.000 C 
ATOM     28  C   UNL     1      -2.146  13.327  23.022  0.00  0.00    +0.000 A 
ENDBRANCH  18  21
ENDBRANCH   8  18
TORSDOF 3
ENDMDL
MODEL 6
REMARK VINA RESULT:      -8.0      1.247      1.667
REMARK  Name = 
REMARK  7 active torsions:
REMARK  status: ('A' for Active; 'I' for Inactive)
REMARK    1  A    between atoms: C_1  and  C_2
REMARK    2  A    between atoms: C_5  and  N_6
REMARK    3  A    between atoms: N_6  and  C_7
REMARK    4  A    between atoms: N_13  and  S_14
REMARK    5  A    between atoms: S_14  and  C_17
REMARK    6  A    between atoms: C_20  and  C_21
REMARK    7  A    between atoms: C_22  and  C_23
REMARK                            x       y       z     vdW  Elec       q    Type
REMARK                         _______ _______ _______ _____ _____    ______ ____
ROOT
ATOM      1  N   UNL     1       2.172   7.672  18.975  0.00  0.00    +0.000 N 
ATOM      2  C   UNL     1       1.855   7.235  20.335  0.00  0.00    +0.000 C 
ATOM      3  C   UNL     1       1.626   8.838  18.399  0.00  0.00    +0.000 C 
ATOM      4  O   UNL     1       1.733   9.121  17.205  0.00  0.00    +0.000 OA
ATOM      5  N   UNL     1       0.868   9.707  19.179  0.00  0.00    +0.000 N 
ATOM      6  C   UNL     1       0.055  10.711  18.462  0.00  0.00    +0.000 C 
ATOM      7  C   UNL     1      -1.293  10.973  19.162  0.00  0.00    +0.000 C 
ATOM      8  N   UNL     1      -1.151  11.214  20.640  0.00  0.00    +0.000 NA
ATOM      9  C   UNL     1      -0.310  10.149  21.269  0.00  0.00    +0.000 C 
ATOM     10  C   UNL     1       1.063  10.077  20.588  0.00  0.00    +0.000 C 
ENDROOT
BRANCH   1  15
ATOM     11  C   UNL     1       5.568   3.984  15.999  0.00  0.00    +0.000 C 
ATOM     12  C   UNL     1       4.677   4.924  16.751  0.00  0.00    +0.000 A 
ATOM     13  C   UNL     1       3.544   4.466  17.418  0.00  0.00    +0.000 A 
ATOM     14  C   UNL     1       2.719   5.354  18.127  0.00  0.00    +0.000 A 
ATOM     15  C   UNL     1       2.983   6.729  18.198  0.00  0.00    +0.000 A 
ATOM     16  C   UNL     1       4.120   7.168  17.489  0.00  0.00    +0.000 A 
ATOM     17  C   UNL     1       4.960   6.286  16.793  0.00  0.00    +0.000 A 
ENDBRANCH   1  15
BRANCH   8  18
ATOM     18  S   UNL     1      -0.732  12.793  21.123  0.00  0.00    +0.000 S 
ATOM     19  O   UNL     1       0.260  12.691  22.172  0.00  0.00    +0.000 OA
ATOM     20  O   UNL     1      -0.464  13.574  19.929  0.00  0.00    +0.000 OA
BRANCH  18  21
ATOM     21  C   UNL     1      -2.212  13.400  21.857  0.00  0.00    +0.000 A 
ATOM     22  C   UNL     1      -2.838  14.528  21.338  0.00  0.00    +0.000 A 
ATOM     23  C   UNL     1      -3.993  15.005  21.951  0.00  0.00    +0.000 A 
ATOM     24  C   UNL     1      -4.538  14.356  23.075  0.00  0.00    +0.000 A 
ATOM     25  C   UNL     1      -5.772  14.931  23.706  0.00  0.00    +0.000 C 
ATOM     26  C   UNL     1      -3.914  13.192  23.574  0.00  0.00    +0.000 A 
ATOM     27  C   UNL     1      -4.455  12.397  24.731  0.00  0.00    +0.000 C 
ATOM     28  C   UNL     1      -2.740  12.731  22.966  0.00  0.00    +0.000 A 
ENDBRANCH  18  21
ENDBRANCH   8  18
TORSDOF 3
ENDMDL
MODEL 7
REMARK VINA RESULT:      -7.9      2.811     10.200
REMARK  Name = 
REMARK  7 active torsions:
REMARK  status: ('A' for Active; 'I' for Inactive)
REMARK    1  A    between atoms: C_1  and  C_2
REMARK    2  A    between atoms: C_5  and  N_6
REMARK    3  A    between atoms: N_6  and  C_7
REMARK    4  A    between atoms: N_13  and  S_14
REMARK    5  A    between atoms: S_14  and  C_17
REMARK    6  A    between atoms: C_20  and  C_21
REMARK    7  A    between atoms: C_22  and  C_23
REMARK                            x       y       z     vdW  Elec       q    Type
REMARK                         _______ _______ _______ _____ _____    ______ ____
ROOT
ATOM      1  N   UNL     1       1.194   9.394  19.358  0.00  0.00    +0.000 N 
ATOM      2  C   UNL     1       1.463   9.427  17.920  0.00  0.00    +0.000 C 
ATOM      3  C   UNL     1       1.455   8.263  20.159  0.00  0.00    +0.000 C 
ATOM      4  O   UNL     1       1.067   8.151  21.323  0.00  0.00    +0.000 OA
ATOM      5  N   UNL     1       2.131   7.173  19.620  0.00  0.00    +0.000 N 
ATOM      6  C   UNL     1       2.079   5.910  20.386  0.00  0.00    +0.000 C 
ATOM      7  C   UNL     1       2.009   4.676  19.464  0.00  0.00    +0.000 C 
ATOM      8  N   UNL     1       3.034   4.705  18.365  0.00  0.00    +0.000 NA
ATOM      9  C   UNL     1       3.010   6.023  17.656  0.00  0.00    +0.000 C 
ATOM     10  C   UNL     1       3.236   7.170  18.650  0.00  0.00    +0.000 C 
ENDROOT
BRANCH   1  15
ATOM     11  C   UNL     1      -1.733  13.944  21.532  0.00  0.00    +0.000 C 
ATOM     12  C   UNL     1      -0.966  12.790  20.963  0.00  0.00    +0.000 A 
ATOM     13  C   UNL     1       0.402  12.655  21.181  0.00  0.00    +0.000 A 
ATOM     14  C   UNL     1       1.111  11.565  20.651  0.00  0.00    +0.000 A 
ATOM     15  C   UNL     1       0.492  10.571  19.880  0.00  0.00    +0.000 A 
ATOM     16  C   UNL     1      -0.888  10.750  19.650  0.00  0.00    +0.000 A 
ATOM     17  C   UNL     1      -1.607  11.825  20.192  0.00  0.00    +0.000 A 
ENDBRANCH   1  15
BRANCH   8  18
ATOM     18  S   UNL     1       4.601   4.168  18.762  0.00  0.00    +0.000 S 
ATOM     19  O   UNL     1       5.130   5.049  19.782  0.00  0.00    +0.000 OA
ATOM     20  O   UNL     1       4.544   2.735  18.982  0.00  0.00    +0.000 OA
BRANCH  18  21
ATOM     21  C   UNL     1       5.517   4.464  17.288  0.00  0.00    +0.000 A 
ATOM     22  C   UNL     1       6.723   5.155  17.341  0.00  0.00    +0.000 A 
ATOM     23  C   UNL     1       7.417   5.399  16.160  0.00  0.00    +0.000 A 
ATOM     24  C   UNL     1       6.921   4.949  14.921  0.00  0.00    +0.000 A 
ATOM     25  C   UNL     1       7.703   5.264  13.679  0.00  0.00    +0.000 C 
ATOM     26  C   UNL     1       5.712   4.220  14.881  0.00  0.00    +0.000 A 
ATOM     27  C   UNL     1       5.135   3.648  13.616  0.00  0.00    +0.000 C 
ATOM     28  C   UNL     1       5.009   3.997  16.072  0.00  0.00    +0.000 A 
ENDBRANCH  18  21
ENDBRANCH   8  18
TORSDOF 3
ENDMDL
MODEL 8
REMARK VINA RESULT:      -7.8      1.212      1.320
REMARK  Name = 
REMARK  7 active torsions:
REMARK  status: ('A' for Active; 'I' for Inactive)
REMARK    1  A    between atoms: C_1  and  C_2
REMARK    2  A    between atoms: C_5  and  N_6
REMARK    3  A    between atoms: N_6  and  C_7
REMARK    4  A    between atoms: N_13  and  S_14
REMARK    5  A    between atoms: S_14  and  C_17
REMARK    6  A    between atoms: C_20  and  C_21
REMARK    7  A    between atoms: C_22  and  C_23
REMARK                            x       y       z     vdW  Elec       q    Type
REMARK                         _______ _______ _______ _____ _____    ______ ____
ROOT
ATOM      1  N   UNL     1       2.676   6.904  18.708  0.00  0.00    +0.000 N 
ATOM      2  C   UNL     1       2.127   6.139  19.828  0.00  0.00    +0.000 C 
ATOM      3  C   UNL     1       2.281   8.227  18.419  0.00  0.00    +0.000 C 
ATOM      4  O   UNL     1       2.590   8.817  17.382  0.00  0.00    +0.000 OA
ATOM      5  N   UNL     1       1.448   8.910  19.300  0.00  0.00    +0.000 N 
ATOM      6  C   UNL     1       0.806  10.141  18.793  0.00  0.00    +0.000 C 
ATOM      7  C   UNL     1      -0.623  10.317  19.342  0.00  0.00    +0.000 C 
ATOM      8  N   UNL     1      -0.708  10.129  20.831  0.00  0.00    +0.000 NA
ATOM      9  C   UNL     1      -0.027   8.861  21.242  0.00  0.00    +0.000 C 
ATOM     10  C   UNL     1       1.432   8.860  20.768  0.00  0.00    +0.000 C 
ENDROOT
BRANCH   1  15
ATOM     11  C   UNL     1       6.011   3.815  15.057  0.00  0.00    +0.000 C 
ATOM     12  C   UNL     1       5.174   4.616  16.006  0.00  0.00    +0.000 A 
ATOM     13  C   UNL     1       5.399   5.977  16.195  0.00  0.00    +0.000 A 
ATOM     14  C   UNL     1       4.603   6.721  17.081  0.00  0.00    +0.000 A 
ATOM     15  C   UNL     1       3.558   6.143  17.817  0.00  0.00    +0.000 A 
ATOM     16  C   UNL     1       3.374   4.758  17.628  0.00  0.00    +0.000 A 
ATOM     17  C   UNL     1       4.152   4.011  16.731  0.00  0.00    +0.000 A 
ENDBRANCH   1  15
BRANCH   8  18
ATOM     18  S   UNL     1      -0.302  11.470  21.799  0.00  0.00    +0.000 S 
ATOM     19  O   UNL     1      -0.356  11.054  23.184  0.00  0.00    +0.000 OA
ATOM     20  O   UNL     1       0.903  12.070  21.255  0.00  0.00    +0.000 OA
BRANCH  18  21
ATOM     21  C   UNL     1      -1.640  12.583  21.533  0.00  0.00    +0.000 A 
ATOM     22  C   UNL     1      -2.740  12.186  20.781  0.00  0.00    +0.000 A 
ATOM     23  C   UNL     1      -3.774  13.091  20.562  0.00  0.00    +0.000 A 
ATOM     24  C   UNL     1      -3.724  14.392  21.098  0.00  0.00    +0.000 A 
ATOM     25  C   UNL     1      -4.859  15.331  20.807  0.00  0.00    +0.000 C 
ATOM     26  C   UNL     1      -2.618  14.775  21.888  0.00  0.00    +0.000 A 
ATOM     27  C   UNL     1      -2.504  16.120  22.551  0.00  0.00    +0.000 C 
ATOM     28  C   UNL     1      -1.572  13.865  22.085  0.00  0.00    +0.000 A 
ENDBRANCH  18  21
ENDBRANCH   8  18
TORSDOF 3
ENDMDL
MODEL 9
REMARK VINA RESULT:      -7.8      3.001     10.425
REMARK  Name = 
REMARK  7 active torsions:
REMARK  status: ('A' for Active; 'I' for Inactive)
REMARK    1  A    between atoms: C_1  and  C_2
REMARK    2  A    between atoms: C_5  and  N_6
REMARK    3  A    between atoms: N_6  and  C_7
REMARK    4  A    between atoms: N_13  and  S_14
REMARK    5  A    between atoms: S_14  and  C_17
REMARK    6  A    between atoms: C_20  and  C_21
REMARK    7  A    between atoms: C_22  and  C_23
REMARK                            x       y       z     vdW  Elec       q    Type
REMARK                         _______ _______ _______ _____ _____    ______ ____
ROOT
ATOM      1  N   UNL     1       1.141   8.914  19.829  0.00  0.00    +0.000 N 
ATOM      2  C   UNL     1       1.296   8.120  21.049  0.00  0.00    +0.000 C 
ATOM      3  C   UNL     1       1.844   8.634  18.640  0.00  0.00    +0.000 C 
ATOM      4  O   UNL     1       1.868   9.393  17.670  0.00  0.00    +0.000 OA
ATOM      5  N   UNL     1       2.611   7.477  18.544  0.00  0.00    +0.000 N 
ATOM      6  C   UNL     1       3.575   7.406  17.426  0.00  0.00    +0.000 C 
ATOM      7  C   UNL     1       4.877   6.684  17.829  0.00  0.00    +0.000 C 
ATOM      8  N   UNL     1       4.632   5.379  18.534  0.00  0.00    +0.000 NA
ATOM      9  C   UNL     1       3.641   5.557  19.642  0.00  0.00    +0.000 C 
ATOM     10  C   UNL     1       2.332   6.146  19.100  0.00  0.00    +0.000 C 
ENDROOT
BRANCH   1  15
ATOM     11  C   UNL     1      -2.319  13.565  20.457  0.00  0.00    +0.000 C 
ATOM     12  C   UNL     1      -1.412  12.385  20.292  0.00  0.00    +0.000 A 
ATOM     13  C   UNL     1      -0.263  12.244  21.066  0.00  0.00    +0.000 A 
ATOM     14  C   UNL     1       0.577  11.129  20.911  0.00  0.00    +0.000 A 
ATOM     15  C   UNL     1       0.313  10.116  19.978  0.00  0.00    +0.000 A 
ATOM     16  C   UNL     1      -0.840  10.300  19.188  0.00  0.00    +0.000 A 
ATOM     17  C   UNL     1      -1.695  11.401  19.350  0.00  0.00    +0.000 A 
ENDBRANCH   1  15
BRANCH   8  18
ATOM     18  S   UNL     1       4.326   4.021  17.552  0.00  0.00    +0.000 S 
ATOM     19  O   UNL     1       4.814   2.849  18.247  0.00  0.00    +0.000 OA
ATOM     20  O   UNL     1       2.947   4.091  17.103  0.00  0.00    +0.000 OA
BRANCH  18  21
ATOM     21  C   UNL     1       5.373   4.282  16.162  0.00  0.00    +0.000 A 
ATOM     22  C   UNL     1       6.629   4.854  16.330  0.00  0.00    +0.000 A 
ATOM     23  C   UNL     1       7.429   5.074  15.213  0.00  0.00    +0.000 A 
ATOM     24  C   UNL     1       6.989   4.717  13.925  0.00  0.00    +0.000 A 
ATOM     25  C   UNL     1       7.887   5.001  12.756  0.00  0.00    +0.000 C 
ATOM     26  C   UNL     1       5.726   4.106  13.767  0.00  0.00    +0.000 A 
ATOM     27  C   UNL     1       5.196   3.636  12.441  0.00  0.00    +0.000 C 
ATOM     28  C   UNL     1       4.918   3.908  14.894  0.00  0.00    +0.000 A 
ENDBRANCH  18  21
ENDBRANCH   8  18
TORSDOF 3
ENDMDL
