MODEL 1
REMARK VINA RESULT:      -8.9      0.000      0.000
REMARK  Name = 
REMARK  7 active torsions:
REMARK  status: ('A' for Active; 'I' for Inactive)
REMARK    1  A    between atoms: C_1  and  C_2
REMARK    2  A    between atoms: C_2  and  C_3
REMARK    3  A    between atoms: C_3  and  C_4
REMARK    4  A    between atoms: C_8  and  C_9
REMARK    5  A    between atoms: C_12  and  C_13
REMARK    6  A    between atoms: C_15  and  C_16
REMARK    7  A    between atoms: N_20  and  C_21
REMARK                            x       y       z     vdW  Elec       q    Type
REMARK                         _______ _______ _______ _____ _____    ______ ____
ROOT
ATOM      1  C   UNL     1       4.932   4.086  16.575  0.00  0.00    +0.000 A 
ATOM      2  C   UNL     1       5.532   4.365  17.807  0.00  0.00    +0.000 A 
ATOM      3  C   UNL     1       4.807   4.255  18.998  0.00  0.00    +0.000 A 
ATOM      4  C   UNL     1       3.448   3.914  19.016  0.00  0.00    +0.000 A 
ATOM      5  C   UNL     1       2.879   3.532  17.799  0.00  0.00    +0.000 A 
ATOM      6  C   UNL     1       3.601   3.631  16.605  0.00  0.00    +0.000 A 
ENDROOT
BRANCH   1  11
ATOM      7  C   UNL     1       5.970   3.712  12.925  0.00  0.00    +0.000 A 
ATOM      8  C   UNL     1       7.096   4.542  12.889  0.00  0.00    +0.000 A 
ATOM      9  C   UNL     1       7.474   5.258  14.018  0.00  0.00    +0.000 A 
ATOM     10  C   UNL     1       6.735   5.143  15.194  0.00  0.00    +0.000 A 
ATOM     11  C   UNL     1       5.619   4.296  15.283  0.00  0.00    +0.000 A 
ATOM     12  C   UNL     1       5.241   3.599  14.121  0.00  0.00    +0.000 A 
BRANCH   7  13
ATOM     13  C   UNL     1       5.580   2.906  11.710  0.00  0.00    +0.000 C 
BRANCH  13  15
ATOM     14  C   UNL     1       3.703   3.908  10.370  0.00  0.00    +0.000 C 
ATOM     15  C   UNL     1       4.071   2.917  11.460  0.00  0.00    +0.000 C 
ENDBRANCH  13  15
ENDBRANCH   7  13
ENDBRANCH   1  11
BRANCH   4  16
ATOM     16  C   UNL     1       2.661   3.945  20.304  0.00  0.00    +0.000 C 
ATOM     17  C   UNL     1       1.163   4.112  20.311  0.00  0.00    +0.000 C 
ATOM     18  C   UNL     1       2.033   5.230  20.836  0.00  0.00    +0.000 C 
BRANCH  18  19
ATOM     19  C   UNL     1       2.023   6.542  20.134  0.00  0.00    +0.000 A 
ATOM     20  C   UNL     1       2.456   6.703  18.877  0.00  0.00    +0.000 A 
ATOM     21  C   UNL     1       2.319   8.019  18.239  0.00  0.00    +0.000 A 
ATOM     22  O   UNL     1       2.729   8.161  17.089  0.00  0.00    +0.000 OA
ATOM     23  N   UNL     1       1.716   8.997  18.995  0.00  0.00    +0.000 N 
ATOM     24  C   UNL     1       1.547  10.308  18.392  0.00  0.00    +0.000 C 
ATOM     25  C   UNL     1       1.319   8.732  20.290  0.00  0.00    +0.000 A 
ATOM     26  N   UNL     1       0.763   9.721  21.045  0.00  0.00    +0.000 N 
ATOM     27  N   UNL     1       1.437   7.557  20.846  0.00  0.00    +0.000 NA
ATOM     28  H   UNL     1       0.260  10.460  20.579  0.00  0.00    +0.000 HD
ATOM     29  H   UNL     1       0.290   9.360  21.865  0.00  0.00    +0.000 HD
ENDBRANCH  18  19
ENDBRANCH   4  16
TORSDOF 5
ENDMDL
MODEL 2
REMARK VINA RESULT:      -8.9      3.679      8.290
REMARK  Name = 
REMARK  7 active torsions:
REMARK  status: ('A' for Active; 'I' for Inactive)
REMARK    1  A    between atoms: C_1  and  C_2
REMARK    2  A    between atoms: C_2  and  C_3
REMARK    3  A    between atoms: C_3  and  C_4
REMARK    4  A    between atoms: C_8  and  C_9
REMARK    5  A    between atoms: C_12  and  C_13
REMARK    6  A    between atoms: C_15  and  C_16
REMARK    7  A    between atoms: N_20  and  C_21
REMARK                            x       y       z     vdW  Elec       q    Type
REMARK                         _______ _______ _______ _____ _____    ______ ____
ROOT
ATOM      1  C   UNL     1       1.499   7.329  19.911  0.00  0.00    +0.000 A 
ATOM      2  C   UNL     1       1.868   6.960  18.613  0.00  0.00    +0.000 A 
ATOM      3  C   UNL     1       2.299   5.659  18.334  0.00  0.00    +0.000 A 
ATOM      4  C   UNL     1       2.432   4.686  19.334  0.00  0.00    +0.000 A 
ATOM      5  C   UNL     1       1.964   5.022  20.606  0.00  0.00    +0.000 A 
ATOM      6  C   UNL     1       1.522   6.319  20.890  0.00  0.00    +0.000 A 
ENDROOT
BRANCH   1  11
ATOM      7  C   UNL     1       0.004  10.317  21.750  0.00  0.00    +0.000 A 
ATOM      8  C   UNL     1       0.281  11.345  20.842  0.00  0.00    +0.000 A 
ATOM      9  C   UNL     1       0.995  11.080  19.680  0.00  0.00    +0.000 A 
ATOM     10  C   UNL     1       1.430   9.784  19.412  0.00  0.00    +0.000 A 
ATOM     11  C   UNL     1       1.146   8.716  20.279  0.00  0.00    +0.000 A 
ATOM     12  C   UNL     1       0.442   9.013  21.460  0.00  0.00    +0.000 A 
BRANCH   7  13
ATOM     13  C   UNL     1      -0.802  10.597  22.994  0.00  0.00    +0.000 C 
BRANCH  13  15
ATOM     14  C   UNL     1      -2.834  11.997  23.480  0.00  0.00    +0.000 C 
ATOM     15  C   UNL     1      -1.392  12.008  23.004  0.00  0.00    +0.000 C 
ENDBRANCH  13  15
ENDBRANCH   7  13
ENDBRANCH   1  11
BRANCH   4  16
ATOM     16  C   UNL     1       3.037   3.338  19.024  0.00  0.00    +0.000 C 
ATOM     17  C   UNL     1       4.144   2.756  19.864  0.00  0.00    +0.000 C 
ATOM     18  C   UNL     1       4.444   3.197  18.450  0.00  0.00    +0.000 C 
BRANCH  18  19
ATOM     19  C   UNL     1       5.403   4.312  18.230  0.00  0.00    +0.000 A 
ATOM     20  C   UNL     1       5.318   5.157  17.195  0.00  0.00    +0.000 A 
ATOM     21  C   UNL     1       6.258   6.284  17.114  0.00  0.00    +0.000 A 
ATOM     22  O   UNL     1       6.179   7.048  16.156  0.00  0.00    +0.000 OA
ATOM     23  N   UNL     1       7.155   6.397  18.151  0.00  0.00    +0.000 N 
ATOM     24  C   UNL     1       8.089   7.508  18.116  0.00  0.00    +0.000 C 
ATOM     25  C   UNL     1       7.170   5.460  19.165  0.00  0.00    +0.000 A 
ATOM     26  N   UNL     1       8.092   5.558  20.163  0.00  0.00    +0.000 N 
ATOM     27  N   UNL     1       6.326   4.468  19.232  0.00  0.00    +0.000 NA
ATOM     28  H   UNL     1       8.445   6.470  20.409  0.00  0.00    +0.000 HD
ATOM     29  H   UNL     1       7.856   4.984  20.964  0.00  0.00    +0.000 HD
ENDBRANCH  18  19
ENDBRANCH   4  16
TORSDOF 5
ENDMDL
MODEL 3
REMARK VINA RESULT:      -8.8      2.925      4.718
REMARK  Name = 
REMARK  7 active torsions:
REMARK  status: ('A' for Active; 'I' for Inactive)
REMARK    1  A    between atoms: C_1  and  C_2
REMARK    2  A    between atoms: C_2  and  C_3
REMARK    3  A    between atoms: C_3  and  C_4
REMARK    4  A    between atoms: C_8  and  C_9
REMARK    5  A    between atoms: C_12  and  C_13
REMARK    6  A    between atoms: C_15  and  C_16
REMARK    7  A    between atoms: N_20  and  C_21
REMARK                            x       y       z     vdW  Elec       q    Type
REMARK                         _______ _______ _______ _____ _____    ______ ____
ROOT
ATOM      1  C   UNL     1       6.387   4.027  14.006  0.00  0.00    +0.000 A 
ATOM      2  C   UNL     1       7.170   5.187  14.017  0.00  0.00    +0.000 A 
ATOM      3  C   UNL     1       7.490   5.823  15.221  0.00  0.00    +0.000 A 
ATOM      4  C   UNL     1       7.008   5.369  16.457  0.00  0.00    +0.000 A 
ATOM      5  C   UNL     1       6.317   4.154  16.455  0.00  0.00    +0.000 A 
ATOM      6  C   UNL     1       6.002   3.508  15.255  0.00  0.00    +0.000 A 
ENDROOT
BRANCH   1  11
ATOM      7  C   UNL     1       4.220   3.040  11.027  0.00  0.00    +0.000 A 
ATOM      8  C   UNL     1       4.965   1.977  10.506  0.00  0.00    +0.000 A 
ATOM      9  C   UNL     1       6.181   1.628  11.078  0.00  0.00    +0.000 A 
ATOM     10  C   UNL     1       6.659   2.332  12.181  0.00  0.00    +0.000 A 
ATOM     11  C   UNL     1       5.928   3.384  12.757  0.00  0.00    +0.000 A 
ATOM     12  C   UNL     1       4.710   3.735  12.147  0.00  0.00    +0.000 A 
BRANCH   7  13
ATOM     13  C   UNL     1       2.881   3.398  10.429  0.00  0.00    +0.000 C 
BRANCH  13  15
ATOM     14  C   UNL     1       2.017   5.202   8.905  0.00  0.00    +0.000 C 
ATOM     15  C   UNL     1       3.011   4.063   9.059  0.00  0.00    +0.000 C 
ENDBRANCH  13  15
ENDBRANCH   7  13
ENDBRANCH   1  11
BRANCH   4  16
ATOM     16  C   UNL     1       7.252   6.160  17.719  0.00  0.00    +0.000 C 
ATOM     17  C   UNL     1       7.721   5.498  18.989  0.00  0.00    +0.000 C 
ATOM     18  C   UNL     1       6.321   6.063  18.925  0.00  0.00    +0.000 C 
BRANCH  18  19
ATOM     19  C   UNL     1       5.163   5.139  19.051  0.00  0.00    +0.000 A 
ATOM     20  C   UNL     1       3.918   5.471  18.687  0.00  0.00    +0.000 A 
ATOM     21  C   UNL     1       2.858   4.457  18.762  0.00  0.00    +0.000 A 
ATOM     22  O   UNL     1       1.716   4.773  18.436  0.00  0.00    +0.000 OA
ATOM     23  N   UNL     1       3.246   3.207  19.187  0.00  0.00    +0.000 N 
ATOM     24  C   UNL     1       2.230   2.173  19.259  0.00  0.00    +0.000 C 
ATOM     25  C   UNL     1       4.555   2.973  19.556  0.00  0.00    +0.000 A 
ATOM     26  N   UNL     1       4.920   1.743  20.017  0.00  0.00    +0.000 N 
ATOM     27  N   UNL     1       5.493   3.877  19.476  0.00  0.00    +0.000 NA
ATOM     28  H   UNL     1       4.406   0.935  19.699  0.00  0.00    +0.000 HD
ATOM     29  H   UNL     1       5.925   1.612  20.015  0.00  0.00    +0.000 HD
ENDBRANCH  18  19
ENDBRANCH   4  16
TORSDOF 5
ENDMDL
MODEL 4
REMARK VINA RESULT:      -8.7      0.572      1.079
REMARK  Name = 
REMARK  7 active torsions:
REMARK  status: ('A' for Active; 'I' for Inactive)
REMARK    1  A    between atoms: C_1  and  C_2
REMARK    2  A    between atoms: C_2  and  C_3
REMARK    3  A    between atoms: C_3  and  C_4
REMARK    4  A    between atoms: C_8  and  C_9
REMARK    5  A    between atoms: C_12  and  C_13
REMARK    6  A    between atoms: C_15  and  C_16
REMARK    7  A    between atoms: N_20  and  C_21
REMARK                            x       y       z     vdW  Elec       q    Type
REMARK                         _______ _______ _______ _____ _____    ______ ____
ROOT
ATOM      1  C   UNL     1       4.908   4.481  16.055  0.00  0.00    +0.000 A 
ATOM      2  C   UNL     1       3.591   4.045  16.238  0.00  0.00    +0.000 A 
ATOM      3  C   UNL     1       3.014   4.027  17.512  0.00  0.00    +0.000 A 
ATOM      4  C   UNL     1       3.729   4.391  18.661  0.00  0.00    +0.000 A 
ATOM      5  C   UNL     1       5.004   4.927  18.466  0.00  0.00    +0.000 A 
ATOM      6  C   UNL     1       5.585   4.956  17.193  0.00  0.00    +0.000 A 
ENDROOT
BRANCH   1  11
ATOM      7  C   UNL     1       5.775   3.541  12.462  0.00  0.00    +0.000 A 
ATOM      8  C   UNL     1       7.051   4.102  12.348  0.00  0.00    +0.000 A 
ATOM      9  C   UNL     1       7.595   4.826  13.402  0.00  0.00    +0.000 A 
ATOM     10  C   UNL     1       6.870   4.987  14.581  0.00  0.00    +0.000 A 
ATOM     11  C   UNL     1       5.600   4.412  14.751  0.00  0.00    +0.000 A 
ATOM     12  C   UNL     1       5.061   3.704  13.662  0.00  0.00    +0.000 A 
BRANCH   7  13
ATOM     13  C   UNL     1       5.199   2.724  11.332  0.00  0.00    +0.000 C 
BRANCH  13  15
ATOM     14  C   UNL     1       3.421   3.945  10.039  0.00  0.00    +0.000 C 
ATOM     15  C   UNL     1       3.697   2.950  11.152  0.00  0.00    +0.000 C 
ENDBRANCH  13  15
ENDBRANCH   7  13
ENDBRANCH   1  11
BRANCH   4  16
ATOM     16  C   UNL     1       3.123   4.223  20.033  0.00  0.00    +0.000 C 
ATOM     17  C   UNL     1       1.631   4.183  20.240  0.00  0.00    +0.000 C 
ATOM     18  C   UNL     1       2.414   5.370  20.749  0.00  0.00    +0.000 C 
BRANCH  18  19
ATOM     19  C   UNL     1       2.144   6.714  20.170  0.00  0.00    +0.000 A 
ATOM     20  C   UNL     1       2.460   7.047  18.912  0.00  0.00    +0.000 A 
ATOM     21  C   UNL     1       2.068   8.368  18.404  0.00  0.00    +0.000 A 
ATOM     22  O   UNL     1       2.371   8.669  17.252  0.00  0.00    +0.000 OA
ATOM     23  N   UNL     1       1.366   9.167  19.276  0.00  0.00    +0.000 N 
ATOM     24  C   UNL     1       0.946  10.474  18.805  0.00  0.00    +0.000 C 
ATOM     25  C   UNL     1       1.105   8.735  20.561  0.00  0.00    +0.000 A 
ATOM     26  N   UNL     1       0.447   9.552  21.430  0.00  0.00    +0.000 N 
ATOM     27  N   UNL     1       1.449   7.555  21.001  0.00  0.00    +0.000 NA
ATOM     28  H   UNL     1      -0.200  10.231  21.061  0.00  0.00    +0.000 HD
ATOM     29  H   UNL     1       0.094   9.052  22.238  0.00  0.00    +0.000 HD
ENDBRANCH  18  19
ENDBRANCH   4  16
TORSDOF 5
ENDMDL
MODEL 5
REMARK VINA RESULT:      -8.7      5.610      7.548
REMARK  Name = 
REMARK  7 active torsions:
REMARK  status: ('A' for Active; 'I' for Inactive)
REMARK    1  A    between atoms: C_1  and  C_2
REMARK    2  A    between atoms: C_2  and  C_3
REMARK    3  A    between atoms: C_3  and  C_4
REMARK    4  A    between atoms: C_8  and  C_9
REMARK    5  A    between atoms: C_12  and  C_13
REMARK    6  A    between atoms: C_15  and  C_16
REMARK    7  A    between atoms: N_20  and  C_21
REMARK                            x       y       z     vdW  Elec       q    Type
REMARK                         _______ _______ _______ _____ _____    ______ ____
ROOT
ATOM      1  C   UNL     1       8.468   9.077  18.456  0.00  0.00    +0.000 A 
ATOM      2  C   UNL     1       7.540   9.143  17.411  0.00  0.00    +0.000 A 
ATOM      3  C   UNL     1       6.878   7.993  16.967  0.00  0.00    +0.000 A 
ATOM      4  C   UNL     1       7.142   6.725  17.503  0.00  0.00    +0.000 A 
ATOM      5  C   UNL     1       7.987   6.676  18.615  0.00  0.00    +0.000 A 
ATOM      6  C   UNL     1       8.645   7.823  19.070  0.00  0.00    +0.000 A 
ENDROOT
BRANCH   1  11
ATOM      7  C   UNL     1      10.887  12.023  18.395  0.00  0.00    +0.000 A 
ATOM      8  C   UNL     1      10.991  12.302  19.762  0.00  0.00    +0.000 A 
ATOM      9  C   UNL     1      10.239  11.583  20.682  0.00  0.00    +0.000 A 
ATOM     10  C   UNL     1       9.385  10.573  20.244  0.00  0.00    +0.000 A 
ATOM     11  C   UNL     1       9.276  10.237  18.885  0.00  0.00    +0.000 A 
ATOM     12  C   UNL     1      10.029  10.995  17.970  0.00  0.00    +0.000 A 
BRANCH   7  13
ATOM     13  C   UNL     1      11.731  12.779  17.398  0.00  0.00    +0.000 C 
BRANCH  13  15
ATOM     14  C   UNL     1      10.363  14.883  17.569  0.00  0.00    +0.000 C 
ATOM     15  C   UNL     1      11.755  14.284  17.673  0.00  0.00    +0.000 C 
ENDBRANCH  13  15
ENDBRANCH   7  13
ENDBRANCH   1  11
BRANCH   4  16
ATOM     16  C   UNL     1       6.518   5.489  16.904  0.00  0.00    +0.000 C 
ATOM     17  C   UNL     1       5.429   5.575  15.866  0.00  0.00    +0.000 C 
ATOM     18  C   UNL     1       5.095   5.057  17.246  0.00  0.00    +0.000 C 
BRANCH  18  19
ATOM     19  C   UNL     1       4.139   5.821  18.092  0.00  0.00    +0.000 A 
ATOM     20  C   UNL     1       3.595   6.985  17.714  0.00  0.00    +0.000 A 
ATOM     21  C   UNL     1       2.590   7.617  18.579  0.00  0.00    +0.000 A 
ATOM     22  O   UNL     1       2.104   8.690  18.229  0.00  0.00    +0.000 OA
ATOM     23  N   UNL     1       2.262   6.930  19.724  0.00  0.00    +0.000 N 
ATOM     24  C   UNL     1       1.259   7.515  20.597  0.00  0.00    +0.000 C 
ATOM     25  C   UNL     1       2.894   5.743  20.031  0.00  0.00    +0.000 A 
ATOM     26  N   UNL     1       2.592   5.093  21.190  0.00  0.00    +0.000 N 
ATOM     27  N   UNL     1       3.779   5.184  19.252  0.00  0.00    +0.000 NA
ATOM     28  H   UNL     1       1.671   5.209  21.584  0.00  0.00    +0.000 HD
ATOM     29  H   UNL     1       2.917   4.133  21.191  0.00  0.00    +0.000 HD
ENDBRANCH  18  19
ENDBRANCH   4  16
TORSDOF 5
ENDMDL
MODEL 6
REMARK VINA RESULT:      -8.7      3.824      8.570
REMARK  Name = 
REMARK  7 active torsions:
REMARK  status: ('A' for Active; 'I' for Inactive)
REMARK    1  A    between atoms: C_1  and  C_2
REMARK    2  A    between atoms: C_2  and  C_3
REMARK    3  A    between atoms: C_3  and  C_4
REMARK    4  A    between atoms: C_8  and  C_9
REMARK    5  A    between atoms: C_12  and  C_13
REMARK    6  A    between atoms: C_15  and  C_16
REMARK    7  A    between atoms: N_20  and  C_21
REMARK                            x       y       z     vdW  Elec       q    Type
REMARK                         _______ _______ _______ _____ _____    ______ ____
ROOT
ATOM      1  C   UNL     1       1.456   7.998  19.851  0.00  0.00    +0.000 A 
ATOM      2  C   UNL     1       1.547   6.942  20.765  0.00  0.00    +0.000 A 
ATOM      3  C   UNL     1       2.093   5.712  20.385  0.00  0.00    +0.000 A 
ATOM      4  C   UNL     1       2.525   5.458  19.075  0.00  0.00    +0.000 A 
ATOM      5  C   UNL     1       2.533   6.543  18.194  0.00  0.00    +0.000 A 
ATOM      6  C   UNL     1       1.996   7.779  18.571  0.00  0.00    +0.000 A 
ENDROOT
BRANCH   1  11
ATOM      7  C   UNL     1      -0.514  10.691  21.697  0.00  0.00    +0.000 A 
ATOM      8  C   UNL     1      -0.690  11.630  20.675  0.00  0.00    +0.000 A 
ATOM      9  C   UNL     1      -0.125  11.418  19.424  0.00  0.00    +0.000 A 
ATOM     10  C   UNL     1       0.613  10.260  19.182  0.00  0.00    +0.000 A 
ATOM     11  C   UNL     1       0.786   9.276  20.168  0.00  0.00    +0.000 A 
ATOM     12  C   UNL     1       0.225   9.524  21.434  0.00  0.00    +0.000 A 
BRANCH   7  13
ATOM     13  C   UNL     1      -1.157  10.904  23.045  0.00  0.00    +0.000 C 
BRANCH  13  15
ATOM     14  C   UNL     1      -3.228  12.292  23.382  0.00  0.00    +0.000 C 
ATOM     15  C   UNL     1      -1.719  12.317  23.209  0.00  0.00    +0.000 C 
ENDBRANCH  13  15
ENDBRANCH   7  13
ENDBRANCH   1  11
BRANCH   4  16
ATOM     16  C   UNL     1       2.974   4.078  18.664  0.00  0.00    +0.000 C 
ATOM     17  C   UNL     1       3.909   3.262  19.519  0.00  0.00    +0.000 C 
ATOM     18  C   UNL     1       4.399   3.799  18.194  0.00  0.00    +0.000 C 
BRANCH  18  19
ATOM     19  C   UNL     1       5.513   4.784  18.182  0.00  0.00    +0.000 A 
ATOM     20  C   UNL     1       5.629   5.747  17.258  0.00  0.00    +0.000 A 
ATOM     21  C   UNL     1       6.713   6.730  17.385  0.00  0.00    +0.000 A 
ATOM     22  O   UNL     1       6.818   7.604  16.527  0.00  0.00    +0.000 OA
ATOM     23  N   UNL     1       7.526   6.594  18.486  0.00  0.00    +0.000 N 
ATOM     24  C   UNL     1       8.599   7.558  18.656  0.00  0.00    +0.000 C 
ATOM     25  C   UNL     1       7.331   5.554  19.372  0.00  0.00    +0.000 A 
ATOM     26  N   UNL     1       8.170   5.404  20.436  0.00  0.00    +0.000 N 
ATOM     27  N   UNL     1       6.360   4.691  19.257  0.00  0.00    +0.000 NA
ATOM     28  H   UNL     1       8.619   6.222  20.818  0.00  0.00    +0.000 HD
ATOM     29  H   UNL     1       7.792   4.780  21.140  0.00  0.00    +0.000 HD
ENDBRANCH  18  19
ENDBRANCH   4  16
TORSDOF 5
ENDMDL
MODEL 7
REMARK VINA RESULT:      -8.6      3.558      6.379
REMARK  Name = 
REMARK  7 active torsions:
REMARK  status: ('A' for Active; 'I' for Inactive)
REMARK    1  A    between atoms: C_1  and  C_2
REMARK    2  A    between atoms: C_2  and  C_3
REMARK    3  A    between atoms: C_3  and  C_4
REMARK    4  A    between atoms: C_8  and  C_9
REMARK    5  A    between atoms: C_12  and  C_13
REMARK    6  A    between atoms: C_15  and  C_16
REMARK    7  A    between atoms: N_20  and  C_21
REMARK                            x       y       z     vdW  Elec       q    Type
REMARK                         _______ _______ _______ _____ _____    ______ ____
ROOT
ATOM      1  C   UNL     1       2.081   7.990  18.631  0.00  0.00    +0.000 A 
ATOM      2  C   UNL     1       1.540   9.036  17.875  0.00  0.00    +0.000 A 
ATOM      3  C   UNL     1       0.776  10.038  18.482  0.00  0.00    +0.000 A 
ATOM      4  C   UNL     1       0.474  10.021  19.851  0.00  0.00    +0.000 A 
ATOM      5  C   UNL     1       1.101   9.039  20.622  0.00  0.00    +0.000 A 
ATOM      6  C   UNL     1       1.874   8.039  20.022  0.00  0.00    +0.000 A 
ENDROOT
BRANCH   1  11
ATOM      7  C   UNL     1       2.997   4.446  17.564  0.00  0.00    +0.000 A 
ATOM      8  C   UNL     1       4.287   4.651  17.064  0.00  0.00    +0.000 A 
ATOM      9  C   UNL     1       4.826   5.931  17.019  0.00  0.00    +0.000 A 
ATOM     10  C   UNL     1       4.082   7.014  17.483  0.00  0.00    +0.000 A 
ATOM     11  C   UNL     1       2.797   6.849  18.023  0.00  0.00    +0.000 A 
ATOM     12  C   UNL     1       2.263   5.548  18.037  0.00  0.00    +0.000 A 
BRANCH   7  13
ATOM     13  C   UNL     1       2.426   3.052  17.647  0.00  0.00    +0.000 C 
BRANCH  13  15
ATOM     14  C   UNL     1       1.573   2.500  19.947  0.00  0.00    +0.000 C 
ATOM     15  C   UNL     1       1.197   2.976  18.555  0.00  0.00    +0.000 C 
ENDBRANCH  13  15
ENDBRANCH   7  13
ENDBRANCH   1  11
BRANCH   4  16
ATOM     16  C   UNL     1      -0.470  11.037  20.446  0.00  0.00    +0.000 C 
ATOM     17  C   UNL     1      -1.083  12.132  19.612  0.00  0.00    +0.000 C 
ATOM     18  C   UNL     1      -0.060  12.491  20.664  0.00  0.00    +0.000 C 
BRANCH  18  19
ATOM     19  C   UNL     1       1.230  13.097  20.238  0.00  0.00    +0.000 A 
ATOM     20  C   UNL     1       1.454  13.545  18.996  0.00  0.00    +0.000 A 
ATOM     21  C   UNL     1       2.728  14.214  18.698  0.00  0.00    +0.000 A 
ATOM     22  O   UNL     1       2.929  14.613  17.553  0.00  0.00    +0.000 OA
ATOM     23  N   UNL     1       3.599  14.353  19.754  0.00  0.00    +0.000 N 
ATOM     24  C   UNL     1       4.862  15.024  19.502  0.00  0.00    +0.000 C 
ATOM     25  C   UNL     1       3.278  13.839  20.994  0.00  0.00    +0.000 A 
ATOM     26  N   UNL     1       4.167  13.944  22.021  0.00  0.00    +0.000 N 
ATOM     27  N   UNL     1       2.140  13.255  21.252  0.00  0.00    +0.000 NA
ATOM     28  H   UNL     1       4.814  14.718  22.025  0.00  0.00    +0.000 HD
ATOM     29  H   UNL     1       3.738  13.767  22.922  0.00  0.00    +0.000 HD
ENDBRANCH  18  19
ENDBRANCH   4  16
TORSDOF 5
ENDMDL
MODEL 8
REMARK VINA RESULT:      -8.6      3.297      6.348
REMARK  Name = 
REMARK  7 active torsions:
REMARK  status: ('A' for Active; 'I' for Inactive)
REMARK    1  A    between atoms: C_1  and  C_2
REMARK    2  A    between atoms: C_2  and  C_3
REMARK    3  A    between atoms: C_3  and  C_4
REMARK    4  A    between atoms: C_8  and  C_9
REMARK    5  A    between atoms: C_12  and  C_13
REMARK    6  A    between atoms: C_15  and  C_16
REMARK    7  A    between atoms: N_20  and  C_21
REMARK                            x       y       z     vdW  Elec       q    Type
REMARK                         _______ _______ _______ _____ _____    ______ ____
ROOT
ATOM      1  C   UNL     1       2.082   8.154  18.868  0.00  0.00    +0.000 A 
ATOM      2  C   UNL     1       1.637   8.976  17.826  0.00  0.00    +0.000 A 
ATOM      3  C   UNL     1       0.671   9.961  18.054  0.00  0.00    +0.000 A 
ATOM      4  C   UNL     1       0.068  10.141  19.306  0.00  0.00    +0.000 A 
ATOM      5  C   UNL     1       0.587   9.395  20.367  0.00  0.00    +0.000 A 
ATOM      6  C   UNL     1       1.560   8.414  20.149  0.00  0.00    +0.000 A 
ENDROOT
BRANCH   1  11
ATOM      7  C   UNL     1       4.567   5.770  17.230  0.00  0.00    +0.000 A 
ATOM      8  C   UNL     1       4.609   4.745  18.181  0.00  0.00    +0.000 A 
ATOM      9  C   UNL     1       3.887   4.857  19.363  0.00  0.00    +0.000 A 
ATOM     10  C   UNL     1       3.111   5.990  19.599  0.00  0.00    +0.000 A 
ATOM     11  C   UNL     1       3.014   7.027  18.657  0.00  0.00    +0.000 A 
ATOM     12  C   UNL     1       3.771   6.903  17.479  0.00  0.00    +0.000 A 
BRANCH   7  13
ATOM     13  C   UNL     1       5.321   5.634  15.930  0.00  0.00    +0.000 C 
BRANCH  13  15
ATOM     14  C   UNL     1       6.161   3.957  14.254  0.00  0.00    +0.000 C 
ATOM     15  C   UNL     1       5.879   4.225  15.722  0.00  0.00    +0.000 C 
ENDBRANCH  13  15
ENDBRANCH   7  13
ENDBRANCH   1  11
BRANCH   4  16
ATOM     16  C   UNL     1      -1.072  11.114  19.482  0.00  0.00    +0.000 C 
ATOM     17  C   UNL     1      -1.348  12.200  18.474  0.00  0.00    +0.000 C 
ATOM     18  C   UNL     1      -0.835  12.578  19.844  0.00  0.00    +0.000 C 
BRANCH  18  19
ATOM     19  C   UNL     1       0.494  13.236  19.960  0.00  0.00    +0.000 A 
ATOM     20  C   UNL     1       1.064  13.532  21.135  0.00  0.00    +0.000 A 
ATOM     21  C   UNL     1       2.421  14.096  21.148  0.00  0.00    +0.000 A 
ATOM     22  O   UNL     1       2.931  14.375  22.230  0.00  0.00    +0.000 OA
ATOM     23  N   UNL     1       3.021  14.252  19.921  0.00  0.00    +0.000 N 
ATOM     24  C   UNL     1       4.370  14.791  19.893  0.00  0.00    +0.000 C 
ATOM     25  C   UNL     1       2.339  13.930  18.765  0.00  0.00    +0.000 A 
ATOM     26  N   UNL     1       2.928  14.131  17.552  0.00  0.00    +0.000 N 
ATOM     27  N   UNL     1       1.138  13.421  18.763  0.00  0.00    +0.000 NA
ATOM     28  H   UNL     1       3.934  14.088  17.490  0.00  0.00    +0.000 HD
ATOM     29  H   UNL     1       2.453  13.636  16.806  0.00  0.00    +0.000 HD
ENDBRANCH  18  19
ENDBRANCH   4  16
TORSDOF 5
ENDMDL
MODEL 9
REMARK VINA RESULT:      -8.6      3.466      6.357
REMARK  Name = 
REMARK  7 active torsions:
REMARK  status: ('A' for Active; 'I' for Inactive)
REMARK    1  A    between atoms: C_1  and  C_2
REMARK    2  A    between atoms: C_2  and  C_3
REMARK    3  A    between atoms: C_3  and  C_4
REMARK    4  A    between atoms: C_8  and  C_9
REMARK    5  A    between atoms: C_12  and  C_13
REMARK    6  A    between atoms: C_15  and  C_16
REMARK    7  A    between atoms: N_20  and  C_21
REMARK                            x       y       z     vdW  Elec       q    Type
REMARK                         _______ _______ _______ _____ _____    ______ ____
ROOT
ATOM      1  C   UNL     1       2.203   7.954  18.681  0.00  0.00    +0.000 A 
ATOM      2  C   UNL     1       1.741   8.959  17.825  0.00  0.00    +0.000 A 
ATOM      3  C   UNL     1       0.897   9.970  18.297  0.00  0.00    +0.000 A 
ATOM      4  C   UNL     1       0.436  10.001  19.620  0.00  0.00    +0.000 A 
ATOM      5  C   UNL     1       0.982   9.061  20.499  0.00  0.00    +0.000 A 
ATOM      6  C   UNL     1       1.833   8.053  20.035  0.00  0.00    +0.000 A 
ENDROOT
BRANCH   1  11
ATOM      7  C   UNL     1       5.001   5.888  17.118  0.00  0.00    +0.000 A 
ATOM      8  C   UNL     1       4.409   4.620  17.100  0.00  0.00    +0.000 A 
ATOM      9  C   UNL     1       3.144   4.431  17.643  0.00  0.00    +0.000 A 
ATOM     10  C   UNL     1       2.458   5.508  18.200  0.00  0.00    +0.000 A 
ATOM     11  C   UNL     1       3.001   6.803  18.209  0.00  0.00    +0.000 A 
ATOM     12  C   UNL     1       4.292   6.967  17.675  0.00  0.00    +0.000 A 
BRANCH   7  13
ATOM     13  C   UNL     1       6.359   6.102  16.496  0.00  0.00    +0.000 C 
BRANCH  13  15
ATOM     14  C   UNL     1       7.698   5.885  18.614  0.00  0.00    +0.000 C 
ATOM     15  C   UNL     1       7.337   6.791  17.449  0.00  0.00    +0.000 C 
ENDBRANCH  13  15
ENDBRANCH   7  13
ENDBRANCH   1  11
BRANCH   4  16
ATOM     16  C   UNL     1      -0.586  11.021  20.059  0.00  0.00    +0.000 C 
ATOM     17  C   UNL     1      -1.122  12.062  19.110  0.00  0.00    +0.000 C 
ATOM     18  C   UNL     1      -0.227  12.493  20.249  0.00  0.00    +0.000 C 
BRANCH  18  19
ATOM     19  C   UNL     1       1.091  13.108  19.938  0.00  0.00    +0.000 A 
ATOM     20  C   UNL     1       1.395  13.621  18.739  0.00  0.00    +0.000 A 
ATOM     21  C   UNL     1       2.690  14.291  18.557  0.00  0.00    +0.000 A 
ATOM     22  O   UNL     1       2.964  14.750  17.450  0.00  0.00    +0.000 OA
ATOM     23  N   UNL     1       3.494  14.363  19.670  0.00  0.00    +0.000 N 
ATOM     24  C   UNL     1       4.776  15.033  19.534  0.00  0.00    +0.000 C 
ATOM     25  C   UNL     1       3.094  13.786  20.858  0.00  0.00    +0.000 A 
ATOM     26  N   UNL     1       3.918  13.824  21.942  0.00  0.00    +0.000 N 
ATOM     27  N   UNL     1       1.938  13.200  21.013  0.00  0.00    +0.000 NA
ATOM     28  H   UNL     1       4.568  14.590  22.029  0.00  0.00    +0.000 HD
ATOM     29  H   UNL     1       3.433  13.603  22.804  0.00  0.00    +0.000 HD
ENDBRANCH  18  19
ENDBRANCH   4  16
TORSDOF 5
ENDMDL
