MODEL 1
REMARK VINA RESULT:      -9.1      0.000      0.000
REMARK  Name = 
REMARK  8 active torsions:
REMARK  status: ('A' for Active; 'I' for Inactive)
REMARK    1  A    between atoms: S_2  and  N_4
REMARK    2  A    between atoms: S_2  and  C_28
REMARK    3  A    between atoms: N_4  and  C_5
REMARK    4  A    between atoms: C_5  and  C_6
REMARK    5  A    between atoms: C_6  and  N_7
REMARK    6  A    between atoms: C_12  and  C_13
REMARK    7  A    between atoms: C_14  and  C_15
REMARK    8  A    between atoms: C_31  and  O_32
REMARK                            x       y       z     vdW  Elec       q    Type
REMARK                         _______ _______ _______ _____ _____    ______ ____
ROOT
ATOM      1  N   UNL     1       1.314   8.103  21.469  0.00  0.00    +0.000 N 
ATOM      2  C   UNL     1       1.800   8.090  20.171  0.00  0.00    +0.000 A 
ATOM      3  N   UNL     1       1.372   8.997  19.286  0.00  0.00    +0.000 NA
ATOM      4  C   UNL     1       1.811   8.882  18.024  0.00  0.00    +0.000 A 
ATOM      5  C   UNL     1       2.652   7.884  17.610  0.00  0.00    +0.000 A 
ATOM      6  C   UNL     1       3.074   7.016  18.591  0.00  0.00    +0.000 A 
ATOM      7  N   UNL     1       2.665   7.116  19.871  0.00  0.00    +0.000 NA
ATOM      8  H   UNL     1       1.537   7.196  21.870  0.00  0.00    +0.000 HD
ENDROOT
BRANCH   6   9
ATOM      9  C   UNL     1       3.952   5.883  18.308  0.00  0.00    +0.000 A 
ATOM     10  C   UNL     1       3.810   4.495  18.489  0.00  0.00    +0.000 A 
ATOM     11  N   UNL     1       4.952   3.801  18.105  0.00  0.00    +0.000 NA
ATOM     12  C   UNL     1       5.752   4.741  17.699  0.00  0.00    +0.000 A 
ATOM     13  S   UNL     1       7.370   4.769  17.065  0.00  0.00    +0.000 S 
ATOM     14  C   UNL     1       7.266   6.531  16.973  0.00  0.00    +0.000 A 
ATOM     15  C   UNL     1       6.085   7.008  17.402  0.00  0.00    +0.000 A 
ATOM     16  N   UNL     1       5.231   5.996  17.801  0.00  0.00    +0.000 N 
BRANCH  10  17
ATOM     17  C   UNL     1       2.656   3.792  19.041  0.00  0.00    +0.000 A 
ATOM     18  C   UNL     1       1.696   3.174  18.228  0.00  0.00    +0.000 A 
ATOM     19  C   UNL     1       0.549   2.601  18.781  0.00  0.00    +0.000 A 
ATOM     20  C   UNL     1       0.372   2.596  20.162  0.00  0.00    +0.000 A 
ATOM     21  C   UNL     1       1.351   3.141  20.989  0.00  0.00    +0.000 A 
ATOM     22  C   UNL     1       2.488   3.734  20.433  0.00  0.00    +0.000 A 
ENDBRANCH  10  17
ENDBRANCH   6   9
BRANCH   1  23
ATOM     23  C   UNL     1      -0.061   8.565  21.626  0.00  0.00    +0.000 C 
BRANCH  23  24
ATOM     24  C   UNL     1      -0.273   9.307  22.956  0.00  0.00    +0.000 C 
BRANCH  24  25
ATOM     25  N   UNL     1       0.185  10.705  22.859  0.00  0.00    +0.000 NA
ATOM     26  H   UNL     1       0.964  10.998  23.445  0.00  0.00    +0.000 HD
BRANCH  25  28
ATOM     27  O   UNL     1      -2.228  11.341  23.223  0.00  0.00    +0.000 OA
ATOM     28  S   UNL     1      -0.995  11.901  22.713  0.00  0.00    +0.000 S 
ATOM     29  O   UNL     1      -0.443  13.140  23.215  0.00  0.00    +0.000 OA
BRANCH  28  30
ATOM     30  C   UNL     1      -1.172  12.036  20.953  0.00  0.00    +0.000 A 
ATOM     31  C   UNL     1      -0.019  12.055  20.155  0.00  0.00    +0.000 A 
ATOM     32  C   UNL     1      -0.142  12.161  18.768  0.00  0.00    +0.000 A 
ATOM     33  C   UNL     1      -1.407  12.234  18.197  0.00  0.00    +0.000 A 
ATOM     34  C   UNL     1      -2.556  12.203  18.986  0.00  0.00    +0.000 A 
ATOM     35  C   UNL     1      -2.441  12.102  20.376  0.00  0.00    +0.000 A 
BRANCH  33  36
ATOM     36  O   UNL     1      -1.577  12.322  16.847  0.00  0.00    +0.000 OA
ATOM     37  H   UNL     1      -2.182  11.617  16.561  0.00  0.00    +0.000 HD
ENDBRANCH  33  36
ENDBRANCH  28  30
ENDBRANCH  25  28
ENDBRANCH  24  25
ENDBRANCH  23  24
ENDBRANCH   1  23
TORSDOF 8
ENDMDL
MODEL 2
REMARK VINA RESULT:      -8.8      1.139      1.292
REMARK  Name = 
REMARK  8 active torsions:
REMARK  status: ('A' for Active; 'I' for Inactive)
REMARK    1  A    between atoms: S_2  and  N_4
REMARK    2  A    between atoms: S_2  and  C_28
REMARK    3  A    between atoms: N_4  and  C_5
REMARK    4  A    between atoms: C_5  and  C_6
REMARK    5  A    between atoms: C_6  and  N_7
REMARK    6  A    between atoms: C_12  and  C_13
REMARK    7  A    between atoms: C_14  and  C_15
REMARK    8  A    between atoms: C_31  and  O_32
REMARK                            x       y       z     vdW  Elec       q    Type
REMARK                         _______ _______ _______ _____ _____    ______ ____
ROOT
ATOM      1  N   UNL     1       1.468   7.763  21.281  0.00  0.00    +0.000 N 
ATOM      2  C   UNL     1       1.925   7.829  19.973  0.00  0.00    +0.000 A 
ATOM      3  N   UNL     1       1.657   8.902  19.222  0.00  0.00    +0.000 NA
ATOM      4  C   UNL     1       2.049   8.872  17.941  0.00  0.00    +0.000 A 
ATOM      5  C   UNL     1       2.687   7.800  17.376  0.00  0.00    +0.000 A 
ATOM      6  C   UNL     1       2.957   6.752  18.228  0.00  0.00    +0.000 A 
ATOM      7  N   UNL     1       2.592   6.761  19.524  0.00  0.00    +0.000 NA
ATOM      8  H   UNL     1       1.527   6.788  21.559  0.00  0.00    +0.000 HD
ENDROOT
BRANCH   6   9
ATOM      9  C   UNL     1       3.609   5.525  17.775  0.00  0.00    +0.000 A 
ATOM     10  C   UNL     1       3.529   4.187  18.204  0.00  0.00    +0.000 A 
ATOM     11  N   UNL     1       4.386   3.360  17.486  0.00  0.00    +0.000 NA
ATOM     12  C   UNL     1       4.955   4.173  16.647  0.00  0.00    +0.000 A 
ATOM     13  S   UNL     1       6.151   3.989  15.399  0.00  0.00    +0.000 S 
ATOM     14  C   UNL     1       6.053   5.728  15.098  0.00  0.00    +0.000 A 
ATOM     15  C   UNL     1       5.176   6.350  15.905  0.00  0.00    +0.000 A 
ATOM     16  N   UNL     1       4.552   5.469  16.770  0.00  0.00    +0.000 N 
BRANCH  10  17
ATOM     17  C   UNL     1       2.705   3.655  19.285  0.00  0.00    +0.000 A 
ATOM     18  C   UNL     1       1.310   3.567  19.189  0.00  0.00    +0.000 A 
ATOM     19  C   UNL     1       0.541   3.153  20.279  0.00  0.00    +0.000 A 
ATOM     20  C   UNL     1       1.165   2.775  21.465  0.00  0.00    +0.000 A 
ATOM     21  C   UNL     1       2.555   2.788  21.554  0.00  0.00    +0.000 A 
ATOM     22  C   UNL     1       3.322   3.224  20.469  0.00  0.00    +0.000 A 
ENDBRANCH  10  17
ENDBRANCH   6   9
BRANCH   1  23
ATOM     23  C   UNL     1       0.203   8.442  21.544  0.00  0.00    +0.000 C 
BRANCH  23  24
ATOM     24  C   UNL     1       0.300   9.398  22.745  0.00  0.00    +0.000 C 
BRANCH  24  25
ATOM     25  N   UNL     1      -0.763  10.417  22.695  0.00  0.00    +0.000 NA
ATOM     26  H   UNL     1      -1.709  10.115  22.476  0.00  0.00    +0.000 HD
BRANCH  25  28
ATOM     27  O   UNL     1      -0.908  12.928  22.868  0.00  0.00    +0.000 OA
ATOM     28  S   UNL     1      -0.383  11.903  21.994  0.00  0.00    +0.000 S 
ATOM     29  O   UNL     1       1.006  11.867  21.592  0.00  0.00    +0.000 OA
BRANCH  28  30
ATOM     30  C   UNL     1      -1.391  11.894  20.534  0.00  0.00    +0.000 A 
ATOM     31  C   UNL     1      -0.855  11.382  19.344  0.00  0.00    +0.000 A 
ATOM     32  C   UNL     1      -1.637  11.367  18.186  0.00  0.00    +0.000 A 
ATOM     33  C   UNL     1      -2.939  11.850  18.234  0.00  0.00    +0.000 A 
ATOM     34  C   UNL     1      -3.479  12.348  19.418  0.00  0.00    +0.000 A 
ATOM     35  C   UNL     1      -2.702  12.370  20.580  0.00  0.00    +0.000 A 
BRANCH  33  36
ATOM     36  O   UNL     1      -3.745  11.841  17.134  0.00  0.00    +0.000 OA
ATOM     37  H   UNL     1      -4.289  11.036  17.151  0.00  0.00    +0.000 HD
ENDBRANCH  33  36
ENDBRANCH  28  30
ENDBRANCH  25  28
ENDBRANCH  24  25
ENDBRANCH  23  24
ENDBRANCH   1  23
TORSDOF 8
ENDMDL
MODEL 3
REMARK VINA RESULT:      -8.7      2.392      4.555
REMARK  Name = 
REMARK  8 active torsions:
REMARK  status: ('A' for Active; 'I' for Inactive)
REMARK    1  A    between atoms: S_2  and  N_4
REMARK    2  A    between atoms: S_2  and  C_28
REMARK    3  A    between atoms: N_4  and  C_5
REMARK    4  A    between atoms: C_5  and  C_6
REMARK    5  A    between atoms: C_6  and  N_7
REMARK    6  A    between atoms: C_12  and  C_13
REMARK    7  A    between atoms: C_14  and  C_15
REMARK    8  A    between atoms: C_31  and  O_32
REMARK                            x       y       z     vdW  Elec       q    Type
REMARK                         _______ _______ _______ _____ _____    ______ ____
ROOT
ATOM      1  N   UNL     1       1.166   8.313  21.706  0.00  0.00    +0.000 N 
ATOM      2  C   UNL     1       1.632   8.113  20.415  0.00  0.00    +0.000 A 
ATOM      3  N   UNL     1       1.412   9.034  19.472  0.00  0.00    +0.000 NA
ATOM      4  C   UNL     1       1.808   8.747  18.224  0.00  0.00    +0.000 A 
ATOM      5  C   UNL     1       2.405   7.563  17.880  0.00  0.00    +0.000 A 
ATOM      6  C   UNL     1       2.627   6.686  18.917  0.00  0.00    +0.000 A 
ATOM      7  N   UNL     1       2.258   6.954  20.184  0.00  0.00    +0.000 NA
ATOM      8  H   UNL     1       1.185   7.406  22.164  0.00  0.00    +0.000 HD
ENDROOT
BRANCH   6   9
ATOM      9  C   UNL     1       3.231   5.371  18.712  0.00  0.00    +0.000 A 
ATOM     10  C   UNL     1       4.551   4.954  18.464  0.00  0.00    +0.000 A 
ATOM     11  N   UNL     1       4.638   3.577  18.291  0.00  0.00    +0.000 NA
ATOM     12  C   UNL     1       3.410   3.178  18.440  0.00  0.00    +0.000 A 
ATOM     13  S   UNL     1       2.619   1.632  18.378  0.00  0.00    +0.000 S 
ATOM     14  C   UNL     1       1.080   2.446  18.681  0.00  0.00    +0.000 A 
ATOM     15  C   UNL     1       1.209   3.777  18.807  0.00  0.00    +0.000 A 
ATOM     16  N   UNL     1       2.524   4.186  18.679  0.00  0.00    +0.000 N 
BRANCH  10  17
ATOM     17  C   UNL     1       5.735   5.799  18.347  0.00  0.00    +0.000 A 
ATOM     18  C   UNL     1       5.830   6.829  17.400  0.00  0.00    +0.000 A 
ATOM     19  C   UNL     1       7.015   7.550  17.241  0.00  0.00    +0.000 A 
ATOM     20  C   UNL     1       8.106   7.283  18.063  0.00  0.00    +0.000 A 
ATOM     21  C   UNL     1       8.005   6.313  19.058  0.00  0.00    +0.000 A 
ATOM     22  C   UNL     1       6.826   5.576  19.201  0.00  0.00    +0.000 A 
ENDBRANCH  10  17
ENDBRANCH   6   9
BRANCH   1  23
ATOM     23  C   UNL     1      -0.071   9.079  21.821  0.00  0.00    +0.000 C 
BRANCH  23  24
ATOM     24  C   UNL     1      -0.103   9.935  23.098  0.00  0.00    +0.000 C 
BRANCH  24  25
ATOM     25  N   UNL     1      -1.353  10.712  23.181  0.00  0.00    +0.000 NA
ATOM     26  H   UNL     1      -2.234  10.220  23.052  0.00  0.00    +0.000 HD
BRANCH  25  28
ATOM     27  O   UNL     1      -0.331  13.016  23.137  0.00  0.00    +0.000 OA
ATOM     28  S   UNL     1      -1.362  12.245  22.480  0.00  0.00    +0.000 S 
ATOM     29  O   UNL     1      -1.409  12.081  21.043  0.00  0.00    +0.000 OA
BRANCH  28  30
ATOM     30  C   UNL     1      -2.924  12.892  23.022  0.00  0.00    +0.000 A 
ATOM     31  C   UNL     1      -3.406  14.074  22.442  0.00  0.00    +0.000 A 
ATOM     32  C   UNL     1      -4.633  14.595  22.858  0.00  0.00    +0.000 A 
ATOM     33  C   UNL     1      -5.365  13.928  23.832  0.00  0.00    +0.000 A 
ATOM     34  C   UNL     1      -4.895  12.745  24.402  0.00  0.00    +0.000 A 
ATOM     35  C   UNL     1      -3.665  12.220  23.995  0.00  0.00    +0.000 A 
BRANCH  33  36
ATOM     36  O   UNL     1      -6.575  14.389  24.258  0.00  0.00    +0.000 OA
ATOM     37  H   UNL     1      -6.465  15.297  24.588  0.00  0.00    +0.000 HD
ENDBRANCH  33  36
ENDBRANCH  28  30
ENDBRANCH  25  28
ENDBRANCH  24  25
ENDBRANCH  23  24
ENDBRANCH   1  23
TORSDOF 8
ENDMDL
MODEL 4
REMARK VINA RESULT:      -8.7      1.664      3.830
REMARK  Name = 
REMARK  8 active torsions:
REMARK  status: ('A' for Active; 'I' for Inactive)
REMARK    1  A    between atoms: S_2  and  N_4
REMARK    2  A    between atoms: S_2  and  C_28
REMARK    3  A    between atoms: N_4  and  C_5
REMARK    4  A    between atoms: C_5  and  C_6
REMARK    5  A    between atoms: C_6  and  N_7
REMARK    6  A    between atoms: C_12  and  C_13
REMARK    7  A    between atoms: C_14  and  C_15
REMARK    8  A    between atoms: C_31  and  O_32
REMARK                            x       y       z     vdW  Elec       q    Type
REMARK                         _______ _______ _______ _____ _____    ______ ____
ROOT
ATOM      1  N   UNL     1       0.991   8.303  21.560  0.00  0.00    +0.000 N 
ATOM      2  C   UNL     1       1.542   8.114  20.302  0.00  0.00    +0.000 A 
ATOM      3  N   UNL     1       1.387   9.044  19.354  0.00  0.00    +0.000 NA
ATOM      4  C   UNL     1       1.866   8.768  18.133  0.00  0.00    +0.000 A 
ATOM      5  C   UNL     1       2.484   7.587  17.819  0.00  0.00    +0.000 A 
ATOM      6  C   UNL     1       2.636   6.700  18.861  0.00  0.00    +0.000 A 
ATOM      7  N   UNL     1       2.182   6.956  20.103  0.00  0.00    +0.000 NA
ATOM      8  H   UNL     1       0.978   7.392  22.009  0.00  0.00    +0.000 HD
ENDROOT
BRANCH   6   9
ATOM      9  C   UNL     1       3.252   5.386  18.686  0.00  0.00    +0.000 A 
ATOM     10  C   UNL     1       4.579   4.975  18.467  0.00  0.00    +0.000 A 
ATOM     11  N   UNL     1       4.678   3.596  18.315  0.00  0.00    +0.000 NA
ATOM     12  C   UNL     1       3.450   3.191  18.447  0.00  0.00    +0.000 A 
ATOM     13  S   UNL     1       2.671   1.639  18.393  0.00  0.00    +0.000 S 
ATOM     14  C   UNL     1       1.121   2.446  18.657  0.00  0.00    +0.000 A 
ATOM     15  C   UNL     1       1.239   3.780  18.766  0.00  0.00    +0.000 A 
ATOM     16  N   UNL     1       2.554   4.196  18.656  0.00  0.00    +0.000 N 
BRANCH  10  17
ATOM     17  C   UNL     1       5.760   5.826  18.360  0.00  0.00    +0.000 A 
ATOM     18  C   UNL     1       5.853   6.861  17.420  0.00  0.00    +0.000 A 
ATOM     19  C   UNL     1       7.035   7.589  17.270  0.00  0.00    +0.000 A 
ATOM     20  C   UNL     1       8.125   7.323  18.094  0.00  0.00    +0.000 A 
ATOM     21  C   UNL     1       8.024   6.346  19.082  0.00  0.00    +0.000 A 
ATOM     22  C   UNL     1       6.848   5.603  19.216  0.00  0.00    +0.000 A 
ENDBRANCH  10  17
ENDBRANCH   6   9
BRANCH   1  23
ATOM     23  C   UNL     1      -0.251   9.068  21.598  0.00  0.00    +0.000 C 
BRANCH  23  24
ATOM     24  C   UNL     1      -0.091  10.390  22.368  0.00  0.00    +0.000 C 
BRANCH  24  25
ATOM     25  N   UNL     1       0.721  11.352  21.601  0.00  0.00    +0.000 NA
ATOM     26  H   UNL     1       1.710  11.436  21.829  0.00  0.00    +0.000 HD
BRANCH  25  28
ATOM     27  O   UNL     1      -0.606  13.325  22.439  0.00  0.00    +0.000 OA
ATOM     28  S   UNL     1       0.019  12.839  21.229  0.00  0.00    +0.000 S 
ATOM     29  O   UNL     1       0.987  13.620  20.490  0.00  0.00    +0.000 OA
BRANCH  28  30
ATOM     30  C   UNL     1      -1.285  12.368  20.121  0.00  0.00    +0.000 A 
ATOM     31  C   UNL     1      -2.608  12.683  20.458  0.00  0.00    +0.000 A 
ATOM     32  C   UNL     1      -3.646  12.319  19.596  0.00  0.00    +0.000 A 
ATOM     33  C   UNL     1      -3.349  11.660  18.409  0.00  0.00    +0.000 A 
ATOM     34  C   UNL     1      -2.033  11.356  18.064  0.00  0.00    +0.000 A 
ATOM     35  C   UNL     1      -0.990  11.712  18.925  0.00  0.00    +0.000 A 
BRANCH  33  36
ATOM     36  O   UNL     1      -4.325  11.299  17.529  0.00  0.00    +0.000 OA
ATOM     37  H   UNL     1      -3.989  10.583  16.965  0.00  0.00    +0.000 HD
ENDBRANCH  33  36
ENDBRANCH  28  30
ENDBRANCH  25  28
ENDBRANCH  24  25
ENDBRANCH  23  24
ENDBRANCH   1  23
TORSDOF 8
ENDMDL
MODEL 5
REMARK VINA RESULT:      -8.6      1.503      3.673
REMARK  Name = 
REMARK  8 active torsions:
REMARK  status: ('A' for Active; 'I' for Inactive)
REMARK    1  A    between atoms: S_2  and  N_4
REMARK    2  A    between atoms: S_2  and  C_28
REMARK    3  A    between atoms: N_4  and  C_5
REMARK    4  A    between atoms: C_5  and  C_6
REMARK    5  A    between atoms: C_6  and  N_7
REMARK    6  A    between atoms: C_12  and  C_13
REMARK    7  A    between atoms: C_14  and  C_15
REMARK    8  A    between atoms: C_31  and  O_32
REMARK                            x       y       z     vdW  Elec       q    Type
REMARK                         _______ _______ _______ _____ _____    ______ ____
ROOT
ATOM      1  N   UNL     1       1.095   8.032  21.802  0.00  0.00    +0.000 N 
ATOM      2  C   UNL     1       1.606   7.928  20.517  0.00  0.00    +0.000 A 
ATOM      3  N   UNL     1       1.387   8.902  19.627  0.00  0.00    +0.000 NA
ATOM      4  C   UNL     1       1.830   8.707  18.377  0.00  0.00    +0.000 A 
ATOM      5  C   UNL     1       2.474   7.566  17.978  0.00  0.00    +0.000 A 
ATOM      6  C   UNL     1       2.692   6.631  18.965  0.00  0.00    +0.000 A 
ATOM      7  N   UNL     1       2.275   6.805  20.233  0.00  0.00    +0.000 NA
ATOM      8  H   UNL     1       1.128   7.098  22.201  0.00  0.00    +0.000 HD
ENDROOT
BRANCH   6   9
ATOM      9  C   UNL     1       3.343   5.350  18.697  0.00  0.00    +0.000 A 
ATOM     10  C   UNL     1       4.674   4.997  18.406  0.00  0.00    +0.000 A 
ATOM     11  N   UNL     1       4.811   3.632  18.178  0.00  0.00    +0.000 NA
ATOM     12  C   UNL     1       3.603   3.178  18.337  0.00  0.00    +0.000 A 
ATOM     13  S   UNL     1       2.874   1.604  18.233  0.00  0.00    +0.000 S 
ATOM     14  C   UNL     1       1.311   2.343  18.599  0.00  0.00    +0.000 A 
ATOM     15  C   UNL     1       1.389   3.673  18.772  0.00  0.00    +0.000 A 
ATOM     16  N   UNL     1       2.684   4.139  18.633  0.00  0.00    +0.000 N 
BRANCH  10  17
ATOM     17  C   UNL     1       5.820   5.894  18.297  0.00  0.00    +0.000 A 
ATOM     18  C   UNL     1       5.861   6.947  17.373  0.00  0.00    +0.000 A 
ATOM     19  C   UNL     1       7.013   7.721  17.219  0.00  0.00    +0.000 A 
ATOM     20  C   UNL     1       8.124   7.482  18.024  0.00  0.00    +0.000 A 
ATOM     21  C   UNL     1       8.074   6.486  18.997  0.00  0.00    +0.000 A 
ATOM     22  C   UNL     1       6.928   5.697  19.135  0.00  0.00    +0.000 A 
ENDBRANCH  10  17
ENDBRANCH   6   9
BRANCH   1  23
ATOM     23  C   UNL     1      -0.168   8.751  21.924  0.00  0.00    +0.000 C 
BRANCH  23  24
ATOM     24  C   UNL     1      -0.026  10.030  22.766  0.00  0.00    +0.000 C 
BRANCH  24  25
ATOM     25  N   UNL     1       0.741  11.057  22.039  0.00  0.00    +0.000 NA
ATOM     26  H   UNL     1       1.726  11.173  22.267  0.00  0.00    +0.000 HD
BRANCH  25  28
ATOM     27  O   UNL     1      -1.158  12.607  22.628  0.00  0.00    +0.000 OA
ATOM     28  S   UNL     1      -0.026  12.527  21.733  0.00  0.00    +0.000 S 
ATOM     29  O   UNL     1       0.988  13.558  21.672  0.00  0.00    +0.000 OA
BRANCH  28  30
ATOM     30  C   UNL     1      -0.670  12.276  20.098  0.00  0.00    +0.000 A 
ATOM     31  C   UNL     1      -0.285  13.155  19.076  0.00  0.00    +0.000 A 
ATOM     32  C   UNL     1      -0.784  12.970  17.783  0.00  0.00    +0.000 A 
ATOM     33  C   UNL     1      -1.645  11.910  17.528  0.00  0.00    +0.000 A 
ATOM     34  C   UNL     1      -2.020  11.027  18.539  0.00  0.00    +0.000 A 
ATOM     35  C   UNL     1      -1.529  11.208  19.836  0.00  0.00    +0.000 A 
BRANCH  33  36
ATOM     36  O   UNL     1      -2.144  11.680  16.280  0.00  0.00    +0.000 OA
ATOM     37  H   UNL     1      -1.523  12.039  15.624  0.00  0.00    +0.000 HD
ENDBRANCH  33  36
ENDBRANCH  28  30
ENDBRANCH  25  28
ENDBRANCH  24  25
ENDBRANCH  23  24
ENDBRANCH   1  23
TORSDOF 8
ENDMDL
MODEL 6
REMARK VINA RESULT:      -8.6      4.056      8.885
REMARK  Name = 
REMARK  8 active torsions:
REMARK  status: ('A' for Active; 'I' for Inactive)
REMARK    1  A    between atoms: S_2  and  N_4
REMARK    2  A    between atoms: S_2  and  C_28
REMARK    3  A    between atoms: N_4  and  C_5
REMARK    4  A    between atoms: C_5  and  C_6
REMARK    5  A    between atoms: C_6  and  N_7
REMARK    6  A    between atoms: C_12  and  C_13
REMARK    7  A    between atoms: C_14  and  C_15
REMARK    8  A    between atoms: C_31  and  O_32
REMARK                            x       y       z     vdW  Elec       q    Type
REMARK                         _______ _______ _______ _____ _____    ______ ____
ROOT
ATOM      1  N   UNL     1       2.082   7.551  20.334  0.00  0.00    +0.000 N 
ATOM      2  C   UNL     1       1.255   8.527  20.870  0.00  0.00    +0.000 A 
ATOM      3  N   UNL     1       0.554   8.276  21.981  0.00  0.00    +0.000 NA
ATOM      4  C   UNL     1      -0.294   9.225  22.403  0.00  0.00    +0.000 A 
ATOM      5  C   UNL     1      -0.479  10.412  21.746  0.00  0.00    +0.000 A 
ATOM      6  C   UNL     1       0.307  10.604  20.632  0.00  0.00    +0.000 A 
ATOM      7  N   UNL     1       1.182   9.678  20.194  0.00  0.00    +0.000 NA
ATOM      8  H   UNL     1       2.281   7.834  19.379  0.00  0.00    +0.000 HD
ENDROOT
BRANCH   6   9
ATOM      9  C   UNL     1       0.213  11.807  19.806  0.00  0.00    +0.000 A 
ATOM     10  C   UNL     1      -0.691  12.209  18.806  0.00  0.00    +0.000 A 
ATOM     11  N   UNL     1      -0.345  13.441  18.259  0.00  0.00    +0.000 NA
ATOM     12  C   UNL     1       0.726  13.771  18.917  0.00  0.00    +0.000 A 
ATOM     13  S   UNL     1       1.804  15.133  18.875  0.00  0.00    +0.000 S 
ATOM     14  C   UNL     1       2.771  14.362  20.138  0.00  0.00    +0.000 A 
ATOM     15  C   UNL     1       2.276  13.173  20.522  0.00  0.00    +0.000 A 
ATOM     16  N   UNL     1       1.119  12.847  19.838  0.00  0.00    +0.000 N 
BRANCH  10  17
ATOM     17  C   UNL     1      -1.849  11.470  18.314  0.00  0.00    +0.000 A 
ATOM     18  C   UNL     1      -1.723  10.358  17.470  0.00  0.00    +0.000 A 
ATOM     19  C   UNL     1      -2.851   9.736  16.930  0.00  0.00    +0.000 A 
ATOM     20  C   UNL     1      -4.123  10.190  17.269  0.00  0.00    +0.000 A 
ATOM     21  C   UNL     1      -4.267  11.248  18.164  0.00  0.00    +0.000 A 
ATOM     22  C   UNL     1      -3.136  11.883  18.685  0.00  0.00    +0.000 A 
ENDBRANCH  10  17
ENDBRANCH   6   9
BRANCH   1  23
ATOM     23  C   UNL     1       1.645   6.173  20.530  0.00  0.00    +0.000 C 
BRANCH  23  24
ATOM     24  C   UNL     1       2.089   5.257  19.378  0.00  0.00    +0.000 C 
BRANCH  24  25
ATOM     25  N   UNL     1       3.557   5.132  19.338  0.00  0.00    +0.000 NA
ATOM     26  H   UNL     1       4.101   5.943  19.049  0.00  0.00    +0.000 HD
BRANCH  25  28
ATOM     27  O   UNL     1       5.029   3.140  19.807  0.00  0.00    +0.000 OA
ATOM     28  S   UNL     1       4.199   3.686  18.757  0.00  0.00    +0.000 S 
ATOM     29  O   UNL     1       3.126   2.932  18.148  0.00  0.00    +0.000 OA
BRANCH  28  30
ATOM     30  C   UNL     1       5.286   4.251  17.473  0.00  0.00    +0.000 A 
ATOM     31  C   UNL     1       6.333   5.121  17.805  0.00  0.00    +0.000 A 
ATOM     32  C   UNL     1       7.198   5.575  16.805  0.00  0.00    +0.000 A 
ATOM     33  C   UNL     1       7.014   5.146  15.497  0.00  0.00    +0.000 A 
ATOM     34  C   UNL     1       5.981   4.271  15.164  0.00  0.00    +0.000 A 
ATOM     35  C   UNL     1       5.109   3.817  16.158  0.00  0.00    +0.000 A 
BRANCH  33  36
ATOM     36  O   UNL     1       7.841   5.548  14.490  0.00  0.00    +0.000 OA
ATOM     37  H   UNL     1       8.636   4.989  14.497  0.00  0.00    +0.000 HD
ENDBRANCH  33  36
ENDBRANCH  28  30
ENDBRANCH  25  28
ENDBRANCH  24  25
ENDBRANCH  23  24
ENDBRANCH   1  23
TORSDOF 8
ENDMDL
MODEL 7
REMARK VINA RESULT:      -8.6      1.203      1.715
REMARK  Name = 
REMARK  8 active torsions:
REMARK  status: ('A' for Active; 'I' for Inactive)
REMARK    1  A    between atoms: S_2  and  N_4
REMARK    2  A    between atoms: S_2  and  C_28
REMARK    3  A    between atoms: N_4  and  C_5
REMARK    4  A    between atoms: C_5  and  C_6
REMARK    5  A    between atoms: C_6  and  N_7
REMARK    6  A    between atoms: C_12  and  C_13
REMARK    7  A    between atoms: C_14  and  C_15
REMARK    8  A    between atoms: C_31  and  O_32
REMARK                            x       y       z     vdW  Elec       q    Type
REMARK                         _______ _______ _______ _____ _____    ______ ____
ROOT
ATOM      1  N   UNL     1       1.474   7.822  21.357  0.00  0.00    +0.000 N 
ATOM      2  C   UNL     1       1.934   7.889  20.051  0.00  0.00    +0.000 A 
ATOM      3  N   UNL     1       1.682   8.970  19.306  0.00  0.00    +0.000 NA
ATOM      4  C   UNL     1       2.075   8.942  18.025  0.00  0.00    +0.000 A 
ATOM      5  C   UNL     1       2.701   7.864  17.455  0.00  0.00    +0.000 A 
ATOM      6  C   UNL     1       2.955   6.809  18.301  0.00  0.00    +0.000 A 
ATOM      7  N   UNL     1       2.589   6.815  19.597  0.00  0.00    +0.000 NA
ATOM      8  H   UNL     1       1.520   6.844  21.630  0.00  0.00    +0.000 HD
ENDROOT
BRANCH   6   9
ATOM      9  C   UNL     1       3.592   5.575  17.843  0.00  0.00    +0.000 A 
ATOM     10  C   UNL     1       3.523   4.243  18.288  0.00  0.00    +0.000 A 
ATOM     11  N   UNL     1       4.357   3.406  17.554  0.00  0.00    +0.000 NA
ATOM     12  C   UNL     1       4.903   4.210  16.690  0.00  0.00    +0.000 A 
ATOM     13  S   UNL     1       6.061   4.011  15.410  0.00  0.00    +0.000 S 
ATOM     14  C   UNL     1       5.956   5.746  15.093  0.00  0.00    +0.000 A 
ATOM     15  C   UNL     1       5.104   6.378  15.918  0.00  0.00    +0.000 A 
ATOM     16  N   UNL     1       4.506   5.507  16.811  0.00  0.00    +0.000 N 
BRANCH  10  17
ATOM     17  C   UNL     1       2.731   3.724  19.398  0.00  0.00    +0.000 A 
ATOM     18  C   UNL     1       3.303   3.391  20.634  0.00  0.00    +0.000 A 
ATOM     19  C   UNL     1       2.539   2.797  21.641  0.00  0.00    +0.000 A 
ATOM     20  C   UNL     1       1.179   2.575  21.442  0.00  0.00    +0.000 A 
ATOM     21  C   UNL     1       0.580   2.965  20.246  0.00  0.00    +0.000 A 
ATOM     22  C   UNL     1       1.351   3.539  19.231  0.00  0.00    +0.000 A 
ENDBRANCH  10  17
ENDBRANCH   6   9
BRANCH   1  23
ATOM     23  C   UNL     1       0.218   8.515  21.623  0.00  0.00    +0.000 C 
BRANCH  23  24
ATOM     24  C   UNL     1       0.349   9.528  22.772  0.00  0.00    +0.000 C 
BRANCH  24  25
ATOM     25  N   UNL     1      -0.681  10.578  22.671  0.00  0.00    +0.000 NA
ATOM     26  H   UNL     1      -1.649  10.291  22.549  0.00  0.00    +0.000 HD
BRANCH  25  28
ATOM     27  O   UNL     1      -0.728  13.096  22.557  0.00  0.00    +0.000 OA
ATOM     28  S   UNL     1      -0.300  11.956  21.777  0.00  0.00    +0.000 S 
ATOM     29  O   UNL     1       1.055  11.816  21.291  0.00  0.00    +0.000 OA
BRANCH  28  30
ATOM     30  C   UNL     1      -1.408  11.823  20.398  0.00  0.00    +0.000 A 
ATOM     31  C   UNL     1      -2.683  12.397  20.494  0.00  0.00    +0.000 A 
ATOM     32  C   UNL     1      -3.567  12.301  19.416  0.00  0.00    +0.000 A 
ATOM     33  C   UNL     1      -3.164  11.647  18.258  0.00  0.00    +0.000 A 
ATOM     34  C   UNL     1      -1.892  11.085  18.154  0.00  0.00    +0.000 A 
ATOM     35  C   UNL     1      -1.004  11.173  19.230  0.00  0.00    +0.000 A 
BRANCH  33  36
ATOM     36  O   UNL     1      -3.985  11.542  17.175  0.00  0.00    +0.000 OA
ATOM     37  H   UNL     1      -4.362  12.417  16.982  0.00  0.00    +0.000 HD
ENDBRANCH  33  36
ENDBRANCH  28  30
ENDBRANCH  25  28
ENDBRANCH  24  25
ENDBRANCH  23  24
ENDBRANCH   1  23
TORSDOF 8
ENDMDL
MODEL 8
REMARK VINA RESULT:      -8.6      1.553      3.757
REMARK  Name = 
REMARK  8 active torsions:
REMARK  status: ('A' for Active; 'I' for Inactive)
REMARK    1  A    between atoms: S_2  and  N_4
REMARK    2  A    between atoms: S_2  and  C_28
REMARK    3  A    between atoms: N_4  and  C_5
REMARK    4  A    between atoms: C_5  and  C_6
REMARK    5  A    between atoms: C_6  and  N_7
REMARK    6  A    between atoms: C_12  and  C_13
REMARK    7  A    between atoms: C_14  and  C_15
REMARK    8  A    between atoms: C_31  and  O_32
REMARK                            x       y       z     vdW  Elec       q    Type
REMARK                         _______ _______ _______ _____ _____    ______ ____
ROOT
ATOM      1  N   UNL     1       1.221   8.174  21.675  0.00  0.00    +0.000 N 
ATOM      2  C   UNL     1       1.719   8.013  20.390  0.00  0.00    +0.000 A 
ATOM      3  N   UNL     1       1.527   8.966  19.472  0.00  0.00    +0.000 NA
ATOM      4  C   UNL     1       1.954   8.717  18.226  0.00  0.00    +0.000 A 
ATOM      5  C   UNL     1       2.554   7.542  17.858  0.00  0.00    +0.000 A 
ATOM      6  C   UNL     1       2.745   6.630  18.872  0.00  0.00    +0.000 A 
ATOM      7  N   UNL     1       2.345   6.859  20.137  0.00  0.00    +0.000 NA
ATOM      8  H   UNL     1       1.224   7.252  22.103  0.00  0.00    +0.000 HD
ENDROOT
BRANCH   6   9
ATOM      9  C   UNL     1       3.348   5.319  18.640  0.00  0.00    +0.000 A 
ATOM     10  C   UNL     1       4.664   4.909  18.361  0.00  0.00    +0.000 A 
ATOM     11  N   UNL     1       4.750   3.534  18.169  0.00  0.00    +0.000 NA
ATOM     12  C   UNL     1       3.527   3.131  18.338  0.00  0.00    +0.000 A 
ATOM     13  S   UNL     1       2.739   1.583  18.274  0.00  0.00    +0.000 S 
ATOM     14  C   UNL     1       1.204   2.389  18.617  0.00  0.00    +0.000 A 
ATOM     15  C   UNL     1       1.332   3.719  18.756  0.00  0.00    +0.000 A 
ATOM     16  N   UNL     1       2.644   4.133  18.607  0.00  0.00    +0.000 N 
BRANCH  10  17
ATOM     17  C   UNL     1       5.844   5.758  18.230  0.00  0.00    +0.000 A 
ATOM     18  C   UNL     1       6.964   5.616  19.060  0.00  0.00    +0.000 A 
ATOM     19  C   UNL     1       8.033   6.512  18.981  0.00  0.00    +0.000 A 
ATOM     20  C   UNL     1       8.015   7.533  18.035  0.00  0.00    +0.000 A 
ATOM     21  C   UNL     1       6.942   7.645  17.155  0.00  0.00    +0.000 A 
ATOM     22  C   UNL     1       5.863   6.761  17.249  0.00  0.00    +0.000 A 
ENDBRANCH  10  17
ENDBRANCH   6   9
BRANCH   1  23
ATOM     23  C   UNL     1      -0.014   8.942  21.783  0.00  0.00    +0.000 C 
BRANCH  23  24
ATOM     24  C   UNL     1       0.118  10.112  22.773  0.00  0.00    +0.000 C 
BRANCH  24  25
ATOM     25  N   UNL     1      -1.182  10.774  22.984  0.00  0.00    +0.000 NA
ATOM     26  H   UNL     1      -2.029  10.245  22.785  0.00  0.00    +0.000 HD
BRANCH  25  28
ATOM     27  O   UNL     1      -2.240  13.014  23.450  0.00  0.00    +0.000 OA
ATOM     28  S   UNL     1      -1.312  12.393  22.532  0.00  0.00    +0.000 S 
ATOM     29  O   UNL     1       0.022  12.906  22.315  0.00  0.00    +0.000 OA
BRANCH  28  30
ATOM     30  C   UNL     1      -2.131  12.276  20.962  0.00  0.00    +0.000 A 
ATOM     31  C   UNL     1      -1.396  11.859  19.843  0.00  0.00    +0.000 A 
ATOM     32  C   UNL     1      -2.026  11.762  18.600  0.00  0.00    +0.000 A 
ATOM     33  C   UNL     1      -3.377  12.068  18.493  0.00  0.00    +0.000 A 
ATOM     34  C   UNL     1      -4.115  12.471  19.606  0.00  0.00    +0.000 A 
ATOM     35  C   UNL     1      -3.490  12.576  20.852  0.00  0.00    +0.000 A 
BRANCH  33  36
ATOM     36  O   UNL     1      -4.039  11.972  17.305  0.00  0.00    +0.000 OA
ATOM     37  H   UNL     1      -4.826  12.543  17.338  0.00  0.00    +0.000 HD
ENDBRANCH  33  36
ENDBRANCH  28  30
ENDBRANCH  25  28
ENDBRANCH  24  25
ENDBRANCH  23  24
ENDBRANCH   1  23
TORSDOF 8
ENDMDL
MODEL 9
REMARK VINA RESULT:      -8.6      1.708      2.617
REMARK  Name = 
REMARK  8 active torsions:
REMARK  status: ('A' for Active; 'I' for Inactive)
REMARK    1  A    between atoms: S_2  and  N_4
REMARK    2  A    between atoms: S_2  and  C_28
REMARK    3  A    between atoms: N_4  and  C_5
REMARK    4  A    between atoms: C_5  and  C_6
REMARK    5  A    between atoms: C_6  and  N_7
REMARK    6  A    between atoms: C_12  and  C_13
REMARK    7  A    between atoms: C_14  and  C_15
REMARK    8  A    between atoms: C_31  and  O_32
REMARK                            x       y       z     vdW  Elec       q    Type
REMARK                         _______ _______ _______ _____ _____    ______ ____
ROOT
ATOM      1  N   UNL     1       1.369   8.178  21.437  0.00  0.00    +0.000 N 
ATOM      2  C   UNL     1       1.826   8.134  20.129  0.00  0.00    +0.000 A 
ATOM      3  N   UNL     1       1.366   9.008  19.228  0.00  0.00    +0.000 NA
ATOM      4  C   UNL     1       1.777   8.862  17.961  0.00  0.00    +0.000 A 
ATOM      5  C   UNL     1       2.622   7.863  17.556  0.00  0.00    +0.000 A 
ATOM      6  C   UNL     1       3.077   7.029  18.552  0.00  0.00    +0.000 A 
ATOM      7  N   UNL     1       2.697   7.161  19.837  0.00  0.00    +0.000 NA
ATOM      8  H   UNL     1       1.614   7.286  21.859  0.00  0.00    +0.000 HD
ENDROOT
BRANCH   6   9
ATOM      9  C   UNL     1       3.963   5.899  18.282  0.00  0.00    +0.000 A 
ATOM     10  C   UNL     1       3.829   4.512  18.474  0.00  0.00    +0.000 A 
ATOM     11  N   UNL     1       4.977   3.822  18.100  0.00  0.00    +0.000 NA
ATOM     12  C   UNL     1       5.772   4.763  17.688  0.00  0.00    +0.000 A 
ATOM     13  S   UNL     1       7.392   4.796  17.060  0.00  0.00    +0.000 S 
ATOM     14  C   UNL     1       7.278   6.556  16.953  0.00  0.00    +0.000 A 
ATOM     15  C   UNL     1       6.092   7.030  17.373  0.00  0.00    +0.000 A 
ATOM     16  N   UNL     1       5.243   6.016  17.778  0.00  0.00    +0.000 N 
BRANCH  10  17
ATOM     17  C   UNL     1       2.677   3.806  19.028  0.00  0.00    +0.000 A 
ATOM     18  C   UNL     1       1.740   3.151  18.217  0.00  0.00    +0.000 A 
ATOM     19  C   UNL     1       0.593   2.576  18.769  0.00  0.00    +0.000 A 
ATOM     20  C   UNL     1       0.395   2.606  20.147  0.00  0.00    +0.000 A 
ATOM     21  C   UNL     1       1.352   3.189  20.973  0.00  0.00    +0.000 A 
ATOM     22  C   UNL     1       2.489   3.784  20.418  0.00  0.00    +0.000 A 
ENDBRANCH  10  17
ENDBRANCH   6   9
BRANCH   1  23
ATOM     23  C   UNL     1      -0.008   8.628  21.613  0.00  0.00    +0.000 C 
BRANCH  23  24
ATOM     24  C   UNL     1      -0.092   9.918  22.445  0.00  0.00    +0.000 C 
BRANCH  24  25
ATOM     25  N   UNL     1       0.550  11.043  21.742  0.00  0.00    +0.000 NA
ATOM     26  H   UNL     1       1.317  11.525  22.205  0.00  0.00    +0.000 HD
BRANCH  25  28
ATOM     27  O   UNL     1       0.394  13.147  20.362  0.00  0.00    +0.000 OA
ATOM     28  S   UNL     1      -0.451  12.098  20.889  0.00  0.00    +0.000 S 
ATOM     29  O   UNL     1      -1.321  11.309  20.046  0.00  0.00    +0.000 OA
BRANCH  28  30
ATOM     30  C   UNL     1      -1.426  12.817  22.186  0.00  0.00    +0.000 A 
ATOM     31  C   UNL     1      -0.853  13.807  22.996  0.00  0.00    +0.000 A 
ATOM     32  C   UNL     1      -1.609  14.382  24.021  0.00  0.00    +0.000 A 
ATOM     33  C   UNL     1      -2.922  13.973  24.215  0.00  0.00    +0.000 A 
ATOM     34  C   UNL     1      -3.500  12.997  23.404  0.00  0.00    +0.000 A 
ATOM     35  C   UNL     1      -2.748  12.413  22.379  0.00  0.00    +0.000 A 
BRANCH  33  36
ATOM     36  O   UNL     1      -3.703  14.516  25.192  0.00  0.00    +0.000 OA
ATOM     37  H   UNL     1      -3.813  13.864  25.904  0.00  0.00    +0.000 HD
ENDBRANCH  33  36
ENDBRANCH  28  30
ENDBRANCH  25  28
ENDBRANCH  24  25
ENDBRANCH  23  24
ENDBRANCH   1  23
TORSDOF 8
ENDMDL
