MODEL 1
REMARK VINA RESULT:      -6.9      0.000      0.000
REMARK  Name = 
REMARK  4 active torsions:
REMARK  status: ('A' for Active; 'I' for Inactive)
REMARK    1  A    between atoms: C_1  and  C_2
REMARK    2  A    between atoms: N_13  and  C_14
REMARK    3  A    between atoms: C_14  and  C_15
REMARK    4  A    between atoms: C_15  and  O_16
REMARK                            x       y       z     vdW  Elec       q    Type
REMARK                         _______ _______ _______ _____ _____    ______ ____
ROOT
ATOM      1  C   UNL     1       7.544   4.778  13.080  0.00  0.00    +0.000 C 
ATOM      2  C   UNL     1       6.807   4.761  14.386  0.00  0.00    +0.000 A 
ATOM      3  C   UNL     1       5.444   4.421  14.443  0.00  0.00    +0.000 A 
ATOM      4  C   UNL     1       4.757   4.410  15.663  0.00  0.00    +0.000 A 
ATOM      5  C   UNL     1       5.441   4.738  16.828  0.00  0.00    +0.000 A 
ATOM      6  C   UNL     1       6.791   5.074  16.770  0.00  0.00    +0.000 A 
ATOM      7  C   UNL     1       7.485   5.090  15.566  0.00  0.00    +0.000 A 
ATOM      8  C   UNL     1       7.357   5.386  18.113  0.00  0.00    +0.000 C 
ATOM      9  C   UNL     1       6.163   5.219  19.060  0.00  0.00    +0.000 C 
ATOM     10  C   UNL     1       4.905   4.783  18.241  0.00  0.00    +0.000 C 
ATOM     11  C   UNL     1       3.773   5.824  18.386  0.00  0.00    +0.000 C 
ATOM     12  C   UNL     1       3.089   5.747  19.759  0.00  0.00    +0.000 C 
ATOM     13  N   UNL     1       2.595   4.399  20.105  0.00  0.00    +0.000 NA
ATOM     14  C   UNL     1       3.712   3.442  20.050  0.00  0.00    +0.000 C 
ATOM     15  C   UNL     1       4.411   3.391  18.691  0.00  0.00    +0.000 C 
ENDROOT
BRANCH  13  16
ATOM     16  C   UNL     1       1.438   4.028  19.256  0.00  0.00    +0.000 C 
BRANCH  16  17
ATOM     17  C   UNL     1       0.816   2.664  19.586  0.00  0.00    +0.000 C 
BRANCH  17  18
ATOM     18  O   UNL     1       1.055   1.727  18.544  0.00  0.00    +0.000 OA
ATOM     19  H   UNL     1       1.107   2.264  17.729  0.00  0.00    +0.000 HD
ENDBRANCH  17  18
ENDBRANCH  16  17
ENDBRANCH  13  16
TORSDOF 3
ENDMDL
MODEL 2
REMARK VINA RESULT:      -6.9      3.149      5.914
REMARK  Name = 
REMARK  4 active torsions:
REMARK  status: ('A' for Active; 'I' for Inactive)
REMARK    1  A    between atoms: C_1  and  C_2
REMARK    2  A    between atoms: N_13  and  C_14
REMARK    3  A    between atoms: C_14  and  C_15
REMARK    4  A    between atoms: C_15  and  O_16
REMARK                            x       y       z     vdW  Elec       q    Type
REMARK                         _______ _______ _______ _____ _____    ______ ____
ROOT
ATOM      1  C   UNL     1       0.605  10.853  19.278  0.00  0.00    +0.000 C 
ATOM      2  C   UNL     1       1.304   9.540  19.083  0.00  0.00    +0.000 A 
ATOM      3  C   UNL     1       2.050   9.284  17.920  0.00  0.00    +0.000 A 
ATOM      4  C   UNL     1       2.699   8.056  17.739  0.00  0.00    +0.000 A 
ATOM      5  C   UNL     1       2.600   7.086  18.730  0.00  0.00    +0.000 A 
ATOM      6  C   UNL     1       1.861   7.342  19.882  0.00  0.00    +0.000 A 
ATOM      7  C   UNL     1       1.212   8.556  20.074  0.00  0.00    +0.000 A 
ATOM      8  C   UNL     1       1.875   6.194  20.833  0.00  0.00    +0.000 C 
ATOM      9  C   UNL     1       2.725   5.137  20.117  0.00  0.00    +0.000 C 
ATOM     10  C   UNL     1       3.219   5.706  18.747  0.00  0.00    +0.000 C 
ATOM     11  C   UNL     1       2.702   4.838  17.579  0.00  0.00    +0.000 C 
ATOM     12  C   UNL     1       3.461   3.507  17.468  0.00  0.00    +0.000 C 
ATOM     13  N   UNL     1       4.927   3.661  17.385  0.00  0.00    +0.000 NA
ATOM     14  C   UNL     1       5.405   4.412  18.557  0.00  0.00    +0.000 C 
ATOM     15  C   UNL     1       4.760   5.790  18.710  0.00  0.00    +0.000 C 
ENDROOT
BRANCH  13  16
ATOM     16  C   UNL     1       5.322   4.254  16.085  0.00  0.00    +0.000 C 
BRANCH  16  17
ATOM     17  C   UNL     1       6.838   4.359  15.864  0.00  0.00    +0.000 C 
BRANCH  17  18
ATOM     18  O   UNL     1       7.244   5.715  15.740  0.00  0.00    +0.000 OA
ATOM     19  H   UNL     1       7.646   5.938  16.602  0.00  0.00    +0.000 HD
ENDBRANCH  17  18
ENDBRANCH  16  17
ENDBRANCH  13  16
TORSDOF 3
ENDMDL
MODEL 3
REMARK VINA RESULT:      -6.8      2.485      5.908
REMARK  Name = 
REMARK  4 active torsions:
REMARK  status: ('A' for Active; 'I' for Inactive)
REMARK    1  A    between atoms: C_1  and  C_2
REMARK    2  A    between atoms: N_13  and  C_14
REMARK    3  A    between atoms: C_14  and  C_15
REMARK    4  A    between atoms: C_15  and  O_16
REMARK                            x       y       z     vdW  Elec       q    Type
REMARK                         _______ _______ _______ _____ _____    ______ ____
ROOT
ATOM      1  C   UNL     1       1.434   2.475  21.827  0.00  0.00    +0.000 C 
ATOM      2  C   UNL     1       2.239   3.284  20.854  0.00  0.00    +0.000 A 
ATOM      3  C   UNL     1       3.275   2.698  20.107  0.00  0.00    +0.000 A 
ATOM      4  C   UNL     1       4.028   3.457  19.202  0.00  0.00    +0.000 A 
ATOM      5  C   UNL     1       3.736   4.807  19.046  0.00  0.00    +0.000 A 
ATOM      6  C   UNL     1       2.709   5.387  19.786  0.00  0.00    +0.000 A 
ATOM      7  C   UNL     1       1.955   4.645  20.688  0.00  0.00    +0.000 A 
ATOM      8  C   UNL     1       2.537   6.835  19.481  0.00  0.00    +0.000 C 
ATOM      9  C   UNL     1       3.623   7.121  18.436  0.00  0.00    +0.000 C 
ATOM     10  C   UNL     1       4.409   5.805  18.129  0.00  0.00    +0.000 C 
ATOM     11  C   UNL     1       5.905   5.971  18.473  0.00  0.00    +0.000 C 
ATOM     12  C   UNL     1       6.644   6.830  17.435  0.00  0.00    +0.000 C 
ATOM     13  N   UNL     1       6.485   6.356  16.045  0.00  0.00    +0.000 NA
ATOM     14  C   UNL     1       5.052   6.294  15.713  0.00  0.00    +0.000 C 
ATOM     15  C   UNL     1       4.242   5.397  16.650  0.00  0.00    +0.000 C 
ENDROOT
BRANCH  13  16
ATOM     16  C   UNL     1       7.210   5.079  15.838  0.00  0.00    +0.000 C 
BRANCH  16  17
ATOM     17  C   UNL     1       7.145   4.533  14.405  0.00  0.00    +0.000 C 
BRANCH  17  18
ATOM     18  O   UNL     1       6.324   3.375  14.335  0.00  0.00    +0.000 OA
ATOM     19  H   UNL     1       5.459   3.697  14.015  0.00  0.00    +0.000 HD
ENDBRANCH  17  18
ENDBRANCH  16  17
ENDBRANCH  13  16
TORSDOF 3
ENDMDL
MODEL 4
REMARK VINA RESULT:      -6.6      3.161      6.161
REMARK  Name = 
REMARK  4 active torsions:
REMARK  status: ('A' for Active; 'I' for Inactive)
REMARK    1  A    between atoms: C_1  and  C_2
REMARK    2  A    between atoms: N_13  and  C_14
REMARK    3  A    between atoms: C_14  and  C_15
REMARK    4  A    between atoms: C_15  and  O_16
REMARK                            x       y       z     vdW  Elec       q    Type
REMARK                         _______ _______ _______ _____ _____    ______ ____
ROOT
ATOM      1  C   UNL     1       1.130   2.612  21.804  0.00  0.00    +0.000 C 
ATOM      2  C   UNL     1       2.070   3.186  20.786  0.00  0.00    +0.000 A 
ATOM      3  C   UNL     1       2.670   4.441  20.982  0.00  0.00    +0.000 A 
ATOM      4  C   UNL     1       3.545   4.977  20.027  0.00  0.00    +0.000 A 
ATOM      5  C   UNL     1       3.818   4.247  18.876  0.00  0.00    +0.000 A 
ATOM      6  C   UNL     1       3.223   3.003  18.684  0.00  0.00    +0.000 A 
ATOM      7  C   UNL     1       2.353   2.460  19.622  0.00  0.00    +0.000 A 
ATOM      8  C   UNL     1       3.639   2.367  17.402  0.00  0.00    +0.000 C 
ATOM      9  C   UNL     1       4.587   3.395  16.774  0.00  0.00    +0.000 C 
ATOM     10  C   UNL     1       4.727   4.625  17.728  0.00  0.00    +0.000 C 
ATOM     11  C   UNL     1       4.250   5.915  17.027  0.00  0.00    +0.000 C 
ATOM     12  C   UNL     1       5.264   6.418  15.989  0.00  0.00    +0.000 C 
ATOM     13  N   UNL     1       6.628   6.599  16.525  0.00  0.00    +0.000 NA
ATOM     14  C   UNL     1       7.095   5.329  17.105  0.00  0.00    +0.000 C 
ATOM     15  C   UNL     1       6.186   4.786  18.208  0.00  0.00    +0.000 C 
ENDROOT
BRANCH  13  16
ATOM     16  C   UNL     1       6.678   7.747  17.462  0.00  0.00    +0.000 C 
BRANCH  16  17
ATOM     17  C   UNL     1       8.084   8.313  17.703  0.00  0.00    +0.000 C 
BRANCH  17  18
ATOM     18  O   UNL     1       8.628   7.831  18.924  0.00  0.00    +0.000 OA
ATOM     19  H   UNL     1       8.267   8.422  19.613  0.00  0.00    +0.000 HD
ENDBRANCH  17  18
ENDBRANCH  16  17
ENDBRANCH  13  16
TORSDOF 3
ENDMDL
MODEL 5
REMARK VINA RESULT:      -6.5      2.866      6.024
REMARK  Name = 
REMARK  4 active torsions:
REMARK  status: ('A' for Active; 'I' for Inactive)
REMARK    1  A    between atoms: C_1  and  C_2
REMARK    2  A    between atoms: N_13  and  C_14
REMARK    3  A    between atoms: C_14  and  C_15
REMARK    4  A    between atoms: C_15  and  O_16
REMARK                            x       y       z     vdW  Elec       q    Type
REMARK                         _______ _______ _______ _____ _____    ______ ____
ROOT
ATOM      1  C   UNL     1      -0.261  10.016  21.816  0.00  0.00    +0.000 C 
ATOM      2  C   UNL     1       0.566   9.039  21.036  0.00  0.00    +0.000 A 
ATOM      3  C   UNL     1       0.812   7.745  21.526  0.00  0.00    +0.000 A 
ATOM      4  C   UNL     1       1.589   6.835  20.797  0.00  0.00    +0.000 A 
ATOM      5  C   UNL     1       2.117   7.227  19.572  0.00  0.00    +0.000 A 
ATOM      6  C   UNL     1       1.872   8.509  19.087  0.00  0.00    +0.000 A 
ATOM      7  C   UNL     1       1.103   9.422  19.801  0.00  0.00    +0.000 A 
ATOM      8  C   UNL     1       2.508   8.746  17.761  0.00  0.00    +0.000 C 
ATOM      9  C   UNL     1       3.224   7.424  17.457  0.00  0.00    +0.000 C 
ATOM     10  C   UNL     1       2.969   6.414  18.623  0.00  0.00    +0.000 C 
ATOM     11  C   UNL     1       4.302   5.991  19.278  0.00  0.00    +0.000 C 
ATOM     12  C   UNL     1       5.090   5.007  18.401  0.00  0.00    +0.000 C 
ATOM     13  N   UNL     1       4.316   3.817  17.994  0.00  0.00    +0.000 NA
ATOM     14  C   UNL     1       3.097   4.246  17.290  0.00  0.00    +0.000 C 
ATOM     15  C   UNL     1       2.204   5.172  18.117  0.00  0.00    +0.000 C 
ENDROOT
BRANCH  13  16
ATOM     16  C   UNL     1       4.064   2.931  19.156  0.00  0.00    +0.000 C 
BRANCH  16  17
ATOM     17  C   UNL     1       3.391   1.596  18.806  0.00  0.00    +0.000 C 
BRANCH  17  18
ATOM     18  O   UNL     1       4.358   0.603  18.488  0.00  0.00    +0.000 OA
ATOM     19  H   UNL     1       3.884  -0.247  18.570  0.00  0.00    +0.000 HD
ENDBRANCH  17  18
ENDBRANCH  16  17
ENDBRANCH  13  16
TORSDOF 3
ENDMDL
MODEL 6
REMARK VINA RESULT:      -6.3      3.184      6.058
REMARK  Name = 
REMARK  4 active torsions:
REMARK  status: ('A' for Active; 'I' for Inactive)
REMARK    1  A    between atoms: C_1  and  C_2
REMARK    2  A    between atoms: N_13  and  C_14
REMARK    3  A    between atoms: C_14  and  C_15
REMARK    4  A    between atoms: C_15  and  O_16
REMARK                            x       y       z     vdW  Elec       q    Type
REMARK                         _______ _______ _______ _____ _____    ______ ____
ROOT
ATOM      1  C   UNL     1       0.527   9.605  19.808  0.00  0.00    +0.000 C 
ATOM      2  C   UNL     1       1.526   8.588  19.341  0.00  0.00    +0.000 A 
ATOM      3  C   UNL     1       2.307   8.815  18.194  0.00  0.00    +0.000 A 
ATOM      4  C   UNL     1       3.236   7.862  17.757  0.00  0.00    +0.000 A 
ATOM      5  C   UNL     1       3.382   6.681  18.476  0.00  0.00    +0.000 A 
ATOM      6  C   UNL     1       2.608   6.458  19.612  0.00  0.00    +0.000 A 
ATOM      7  C   UNL     1       1.682   7.395  20.056  0.00  0.00    +0.000 A 
ATOM      8  C   UNL     1       2.907   5.147  20.255  0.00  0.00    +0.000 C 
ATOM      9  C   UNL     1       3.986   4.536  19.354  0.00  0.00    +0.000 C 
ATOM     10  C   UNL     1       4.319   5.528  18.193  0.00  0.00    +0.000 C 
ATOM     11  C   UNL     1       4.025   4.882  16.822  0.00  0.00    +0.000 C 
ATOM     12  C   UNL     1       5.087   3.841  16.434  0.00  0.00    +0.000 C 
ATOM     13  N   UNL     1       6.470   4.355  16.474  0.00  0.00    +0.000 NA
ATOM     14  C   UNL     1       6.756   4.882  17.819  0.00  0.00    +0.000 C 
ATOM     15  C   UNL     1       5.793   5.984  18.264  0.00  0.00    +0.000 C 
ENDROOT
BRANCH  13  16
ATOM     16  C   UNL     1       6.702   5.330  15.381  0.00  0.00    +0.000 C 
BRANCH  16  17
ATOM     17  C   UNL     1       7.167   4.706  14.058  0.00  0.00    +0.000 C 
BRANCH  17  18
ATOM     18  O   UNL     1       8.154   5.514  13.431  0.00  0.00    +0.000 OA
ATOM     19  H   UNL     1       8.093   5.296  12.480  0.00  0.00    +0.000 HD
ENDBRANCH  17  18
ENDBRANCH  16  17
ENDBRANCH  13  16
TORSDOF 3
ENDMDL
MODEL 7
REMARK VINA RESULT:      -6.2      2.984      6.195
REMARK  Name = 
REMARK  4 active torsions:
REMARK  status: ('A' for Active; 'I' for Inactive)
REMARK    1  A    between atoms: C_1  and  C_2
REMARK    2  A    between atoms: N_13  and  C_14
REMARK    3  A    between atoms: C_14  and  C_15
REMARK    4  A    between atoms: C_15  and  O_16
REMARK                            x       y       z     vdW  Elec       q    Type
REMARK                         _______ _______ _______ _____ _____    ______ ____
ROOT
ATOM      1  C   UNL     1       0.066   8.622  21.241  0.00  0.00    +0.000 C 
ATOM      2  C   UNL     1       1.058   7.727  20.558  0.00  0.00    +0.000 A 
ATOM      3  C   UNL     1       1.781   8.169  19.437  0.00  0.00    +0.000 A 
ATOM      4  C   UNL     1       2.703   7.330  18.800  0.00  0.00    +0.000 A 
ATOM      5  C   UNL     1       2.901   6.045  19.292  0.00  0.00    +0.000 A 
ATOM      6  C   UNL     1       2.184   5.608  20.403  0.00  0.00    +0.000 A 
ATOM      7  C   UNL     1       1.265   6.430  21.044  0.00  0.00    +0.000 A 
ATOM      8  C   UNL     1       2.532   4.212  20.790  0.00  0.00    +0.000 C 
ATOM      9  C   UNL     1       3.578   3.793  19.750  0.00  0.00    +0.000 C 
ATOM     10  C   UNL     1       3.842   4.982  18.769  0.00  0.00    +0.000 C 
ATOM     11  C   UNL     1       3.494   4.580  17.320  0.00  0.00    +0.000 C 
ATOM     12  C   UNL     1       4.553   3.648  16.709  0.00  0.00    +0.000 C 
ATOM     13  N   UNL     1       5.928   4.180  16.780  0.00  0.00    +0.000 NA
ATOM     14  C   UNL     1       6.267   4.468  18.183  0.00  0.00    +0.000 C 
ATOM     15  C   UNL     1       5.310   5.452  18.857  0.00  0.00    +0.000 C 
ENDROOT
BRANCH  13  16
ATOM     16  C   UNL     1       6.094   5.337  15.867  0.00  0.00    +0.000 C 
BRANCH  16  17
ATOM     17  C   UNL     1       6.604   4.975  14.465  0.00  0.00    +0.000 C 
BRANCH  17  18
ATOM     18  O   UNL     1       7.891   5.531  14.230  0.00  0.00    +0.000 OA
ATOM     19  H   UNL     1       7.870   5.831  13.300  0.00  0.00    +0.000 HD
ENDBRANCH  17  18
ENDBRANCH  16  17
ENDBRANCH  13  16
TORSDOF 3
ENDMDL
MODEL 8
REMARK VINA RESULT:      -6.2      1.522      2.122
REMARK  Name = 
REMARK  4 active torsions:
REMARK  status: ('A' for Active; 'I' for Inactive)
REMARK    1  A    between atoms: C_1  and  C_2
REMARK    2  A    between atoms: N_13  and  C_14
REMARK    3  A    between atoms: C_14  and  C_15
REMARK    4  A    between atoms: C_15  and  O_16
REMARK                            x       y       z     vdW  Elec       q    Type
REMARK                         _______ _______ _______ _____ _____    ______ ____
ROOT
ATOM      1  C   UNL     1       7.084   5.053  14.139  0.00  0.00    +0.000 C 
ATOM      2  C   UNL     1       6.080   5.013  15.253  0.00  0.00    +0.000 A 
ATOM      3  C   UNL     1       5.708   3.796  15.849  0.00  0.00    +0.000 A 
ATOM      4  C   UNL     1       4.767   3.761  16.887  0.00  0.00    +0.000 A 
ATOM      5  C   UNL     1       4.204   4.953  17.328  0.00  0.00    +0.000 A 
ATOM      6  C   UNL     1       4.575   6.158  16.738  0.00  0.00    +0.000 A 
ATOM      7  C   UNL     1       5.506   6.207  15.707  0.00  0.00    +0.000 A 
ATOM      8  C   UNL     1       3.876   7.326  17.345  0.00  0.00    +0.000 C 
ATOM      9  C   UNL     1       2.975   6.699  18.415  0.00  0.00    +0.000 C 
ATOM     10  C   UNL     1       3.185   5.149  18.428  0.00  0.00    +0.000 C 
ATOM     11  C   UNL     1       1.862   4.418  18.114  0.00  0.00    +0.000 C 
ATOM     12  C   UNL     1       0.889   4.445  19.302  0.00  0.00    +0.000 C 
ATOM     13  N   UNL     1       1.471   3.938  20.561  0.00  0.00    +0.000 NA
ATOM     14  C   UNL     1       2.679   4.713  20.887  0.00  0.00    +0.000 C 
ATOM     15  C   UNL     1       3.744   4.682  19.790  0.00  0.00    +0.000 C 
ENDROOT
BRANCH  13  16
ATOM     16  C   UNL     1       1.693   2.474  20.486  0.00  0.00    +0.000 C 
BRANCH  16  17
ATOM     17  C   UNL     1       1.392   1.852  19.115  0.00  0.00    +0.000 C 
BRANCH  17  18
ATOM     18  O   UNL     1       2.545   1.219  18.576  0.00  0.00    +0.000 OA
ATOM     19  H   UNL     1       2.399   1.208  17.610  0.00  0.00    +0.000 HD
ENDBRANCH  17  18
ENDBRANCH  16  17
ENDBRANCH  13  16
TORSDOF 3
ENDMDL
MODEL 9
REMARK VINA RESULT:      -6.1      3.026      6.078
REMARK  Name = 
REMARK  4 active torsions:
REMARK  status: ('A' for Active; 'I' for Inactive)
REMARK    1  A    between atoms: C_1  and  C_2
REMARK    2  A    between atoms: N_13  and  C_14
REMARK    3  A    between atoms: C_14  and  C_15
REMARK    4  A    between atoms: C_15  and  O_16
REMARK                            x       y       z     vdW  Elec       q    Type
REMARK                         _______ _______ _______ _____ _____    ______ ____
ROOT
ATOM      1  C   UNL     1       0.862   7.961  20.751  0.00  0.00    +0.000 C 
ATOM      2  C   UNL     1       1.890   7.174  19.993  0.00  0.00    +0.000 A 
ATOM      3  C   UNL     1       2.471   7.685  18.819  0.00  0.00    +0.000 A 
ATOM      4  C   UNL     1       3.427   6.947  18.110  0.00  0.00    +0.000 A 
ATOM      5  C   UNL     1       3.802   5.695  18.584  0.00  0.00    +0.000 A 
ATOM      6  C   UNL     1       3.227   5.190  19.747  0.00  0.00    +0.000 A 
ATOM      7  C   UNL     1       2.276   5.912  20.460  0.00  0.00    +0.000 A 
ATOM      8  C   UNL     1       3.755   3.844  20.105  0.00  0.00    +0.000 C 
ATOM      9  C   UNL     1       4.756   3.535  18.986  0.00  0.00    +0.000 C 
ATOM     10  C   UNL     1       4.811   4.738  17.989  0.00  0.00    +0.000 C 
ATOM     11  C   UNL     1       4.399   4.289  16.570  0.00  0.00    +0.000 C 
ATOM     12  C   UNL     1       5.502   3.475  15.878  0.00  0.00    +0.000 C 
ATOM     13  N   UNL     1       6.813   4.154  15.842  0.00  0.00    +0.000 NA
ATOM     14  C   UNL     1       7.226   4.489  17.214  0.00  0.00    +0.000 C 
ATOM     15  C   UNL     1       6.221   5.367  17.962  0.00  0.00    +0.000 C 
ENDROOT
BRANCH  13  16
ATOM     16  C   UNL     1       6.778   5.315  14.920  0.00  0.00    +0.000 C 
BRANCH  16  17
ATOM     17  C   UNL     1       7.432   5.065  13.554  0.00  0.00    +0.000 C 
BRANCH  17  18
ATOM     18  O   UNL     1       8.580   5.886  13.378  0.00  0.00    +0.000 OA
ATOM     19  H   UNL     1       8.390   6.417  12.580  0.00  0.00    +0.000 HD
ENDBRANCH  17  18
ENDBRANCH  16  17
ENDBRANCH  13  16
TORSDOF 3
ENDMDL
