MODEL 1
REMARK VINA RESULT:      -6.0      0.000      0.000
REMARK  Name = 
REMARK  0 active torsions:
REMARK  status: ('A' for Active; 'I' for Inactive)
REMARK                            x       y       z     vdW  Elec       q    Type
REMARK                         _______ _______ _______ _____ _____    ______ ____
ROOT
ATOM      1 CL   UNL     1       5.963   3.635  15.611  0.00  0.00    +0.000 Cl
ATOM      2  C   UNL     1       4.896   4.668  16.507  0.00  0.00    +0.000 A 
ATOM      3  C   UNL     1       5.192   6.032  16.485  0.00  0.00    +0.000 A 
ATOM      4  C   UNL     1       4.390   6.927  17.183  0.00  0.00    +0.000 A 
ATOM      5  C   UNL     1       3.284   6.459  17.895  0.00  0.00    +0.000 A 
ATOM      6 CL   UNL     1       2.353   7.653  18.743  0.00  0.00    +0.000 Cl
ATOM      7  C   UNL     1       2.944   5.082  17.917  0.00  0.00    +0.000 A 
ATOM      8  C   UNL     1       1.811   4.575  18.599  0.00  0.00    +0.000 A 
ATOM      9  C   UNL     1       1.490   3.217  18.594  0.00  0.00    +0.000 A 
ATOM     10  C   UNL     1       2.307   2.323  17.922  0.00  0.00    +0.000 A 
ATOM     11  C   UNL     1       3.435   2.789  17.249  0.00  0.00    +0.000 A 
ATOM     12  C   UNL     1       3.775   4.164  17.215  0.00  0.00    +0.000 A 
ENDROOT
TORSDOF 0
ENDMDL
MODEL 2
REMARK VINA RESULT:      -6.0      1.486      3.645
REMARK  Name = 
REMARK  0 active torsions:
REMARK  status: ('A' for Active; 'I' for Inactive)
REMARK                            x       y       z     vdW  Elec       q    Type
REMARK                         _______ _______ _______ _____ _____    ______ ____
ROOT
ATOM      1 CL   UNL     1       1.589   7.624  20.634  0.00  0.00    +0.000 Cl
ATOM      2  C   UNL     1       2.329   6.523  19.516  0.00  0.00    +0.000 A 
ATOM      3  C   UNL     1       3.163   7.089  18.550  0.00  0.00    +0.000 A 
ATOM      4  C   UNL     1       3.790   6.276  17.613  0.00  0.00    +0.000 A 
ATOM      5  C   UNL     1       3.591   4.894  17.648  0.00  0.00    +0.000 A 
ATOM      6 CL   UNL     1       4.406   3.968  16.429  0.00  0.00    +0.000 Cl
ATOM      7  C   UNL     1       2.768   4.288  18.631  0.00  0.00    +0.000 A 
ATOM      8  C   UNL     1       2.569   2.888  18.720  0.00  0.00    +0.000 A 
ATOM      9  C   UNL     1       1.765   2.315  19.705  0.00  0.00    +0.000 A 
ATOM     10  C   UNL     1       1.119   3.129  20.621  0.00  0.00    +0.000 A 
ATOM     11  C   UNL     1       1.286   4.512  20.555  0.00  0.00    +0.000 A 
ATOM     12  C   UNL     1       2.114   5.123  19.582  0.00  0.00    +0.000 A 
ENDROOT
TORSDOF 0
ENDMDL
MODEL 3
REMARK VINA RESULT:      -6.0      0.098      3.169
REMARK  Name = 
REMARK  0 active torsions:
REMARK  status: ('A' for Active; 'I' for Inactive)
REMARK                            x       y       z     vdW  Elec       q    Type
REMARK                         _______ _______ _______ _____ _____    ______ ____
ROOT
ATOM      1 CL   UNL     1       2.395   7.754  18.637  0.00  0.00    +0.000 Cl
ATOM      2  C   UNL     1       3.334   6.525  17.851  0.00  0.00    +0.000 A 
ATOM      3  C   UNL     1       4.479   6.957  17.178  0.00  0.00    +0.000 A 
ATOM      4  C   UNL     1       5.282   6.035  16.517  0.00  0.00    +0.000 A 
ATOM      5  C   UNL     1       4.948   4.680  16.539  0.00  0.00    +0.000 A 
ATOM      6 CL   UNL     1       6.007   3.611  15.674  0.00  0.00    +0.000 Cl
ATOM      7  C   UNL     1       3.804   4.209  17.233  0.00  0.00    +0.000 A 
ATOM      8  C   UNL     1       3.452   2.838  17.306  0.00  0.00    +0.000 A 
ATOM      9  C   UNL     1       2.330   2.399  18.008  0.00  0.00    +0.000 A 
ATOM     10  C   UNL     1       1.514   3.321  18.642  0.00  0.00    +0.000 A 
ATOM     11  C   UNL     1       1.828   4.678  18.581  0.00  0.00    +0.000 A 
ATOM     12  C   UNL     1       2.973   5.154  17.897  0.00  0.00    +0.000 A 
ENDROOT
TORSDOF 0
ENDMDL
MODEL 4
REMARK VINA RESULT:      -6.0      1.451      1.806
REMARK  Name = 
REMARK  0 active torsions:
REMARK  status: ('A' for Active; 'I' for Inactive)
REMARK                            x       y       z     vdW  Elec       q    Type
REMARK                         _______ _______ _______ _____ _____    ______ ____
ROOT
ATOM      1 CL   UNL     1       4.528   3.753  16.514  0.00  0.00    +0.000 Cl
ATOM      2  C   UNL     1       3.682   4.754  17.651  0.00  0.00    +0.000 A 
ATOM      3  C   UNL     1       3.861   6.132  17.516  0.00  0.00    +0.000 A 
ATOM      4  C   UNL     1       3.222   7.002  18.390  0.00  0.00    +0.000 A 
ATOM      5  C   UNL     1       2.394   6.496  19.395  0.00  0.00    +0.000 A 
ATOM      6 CL   UNL     1       1.653   7.662  20.443  0.00  0.00    +0.000 Cl
ATOM      7  C   UNL     1       2.175   5.102  19.542  0.00  0.00    +0.000 A 
ATOM      8  C   UNL     1       1.317   4.553  20.527  0.00  0.00    +0.000 A 
ATOM      9  C   UNL     1       1.106   3.179  20.642  0.00  0.00    +0.000 A 
ATOM     10  C   UNL     1       1.766   2.311  19.788  0.00  0.00    +0.000 A 
ATOM     11  C   UNL     1       2.625   2.819  18.814  0.00  0.00    +0.000 A 
ATOM     12  C   UNL     1       2.842   4.209  18.656  0.00  0.00    +0.000 A 
ENDROOT
TORSDOF 0
ENDMDL
MODEL 5
REMARK VINA RESULT:      -5.9      1.473      4.451
REMARK  Name = 
REMARK  0 active torsions:
REMARK  status: ('A' for Active; 'I' for Inactive)
REMARK                            x       y       z     vdW  Elec       q    Type
REMARK                         _______ _______ _______ _____ _____    ______ ____
ROOT
ATOM      1 CL   UNL     1       2.183   7.573  19.690  0.00  0.00    +0.000 Cl
ATOM      2  C   UNL     1       2.585   5.979  19.135  0.00  0.00    +0.000 A 
ATOM      3  C   UNL     1       1.945   4.919  19.781  0.00  0.00    +0.000 A 
ATOM      4  C   UNL     1       2.216   3.611  19.399  0.00  0.00    +0.000 A 
ATOM      5  C   UNL     1       3.119   3.361  18.364  0.00  0.00    +0.000 A 
ATOM      6 CL   UNL     1       3.399   1.695  17.971  0.00  0.00    +0.000 Cl
ATOM      7  C   UNL     1       3.767   4.418  17.674  0.00  0.00    +0.000 A 
ATOM      8  C   UNL     1       4.663   4.206  16.597  0.00  0.00    +0.000 A 
ATOM      9  C   UNL     1       5.276   5.263  15.925  0.00  0.00    +0.000 A 
ATOM     10  C   UNL     1       5.027   6.565  16.325  0.00  0.00    +0.000 A 
ATOM     11  C   UNL     1       4.158   6.807  17.388  0.00  0.00    +0.000 A 
ATOM     12  C   UNL     1       3.501   5.758  18.075  0.00  0.00    +0.000 A 
ENDROOT
TORSDOF 0
ENDMDL
MODEL 6
REMARK VINA RESULT:      -5.9      2.199      4.455
REMARK  Name = 
REMARK  0 active torsions:
REMARK  status: ('A' for Active; 'I' for Inactive)
REMARK                            x       y       z     vdW  Elec       q    Type
REMARK                         _______ _______ _______ _____ _____    ______ ____
ROOT
ATOM      1 CL   UNL     1       1.423   2.669  21.534  0.00  0.00    +0.000 Cl
ATOM      2  C   UNL     1       2.252   3.155  20.089  0.00  0.00    +0.000 A 
ATOM      3  C   UNL     1       2.776   2.129  19.301  0.00  0.00    +0.000 A 
ATOM      4  C   UNL     1       3.459   2.434  18.131  0.00  0.00    +0.000 A 
ATOM      5  C   UNL     1       3.610   3.766  17.741  0.00  0.00    +0.000 A 
ATOM      6 CL   UNL     1       4.490   4.045  16.272  0.00  0.00    +0.000 Cl
ATOM      7  C   UNL     1       3.069   4.829  18.509  0.00  0.00    +0.000 A 
ATOM      8  C   UNL     1       3.172   6.190  18.129  0.00  0.00    +0.000 A 
ATOM      9  C   UNL     1       2.619   7.217  18.894  0.00  0.00    +0.000 A 
ATOM     10  C   UNL     1       1.962   6.913  20.075  0.00  0.00    +0.000 A 
ATOM     11  C   UNL     1       1.852   5.584  20.482  0.00  0.00    +0.000 A 
ATOM     12  C   UNL     1       2.382   4.517  19.716  0.00  0.00    +0.000 A 
ENDROOT
TORSDOF 0
ENDMDL
MODEL 7
REMARK VINA RESULT:      -5.9      2.192      3.766
REMARK  Name = 
REMARK  0 active torsions:
REMARK  status: ('A' for Active; 'I' for Inactive)
REMARK                            x       y       z     vdW  Elec       q    Type
REMARK                         _______ _______ _______ _____ _____    ______ ____
ROOT
ATOM      1 CL   UNL     1       4.493   4.090  16.279  0.00  0.00    +0.000 Cl
ATOM      2  C   UNL     1       3.604   3.804  17.741  0.00  0.00    +0.000 A 
ATOM      3  C   UNL     1       3.480   2.471  18.139  0.00  0.00    +0.000 A 
ATOM      4  C   UNL     1       2.778   2.157  19.297  0.00  0.00    +0.000 A 
ATOM      5  C   UNL     1       2.208   3.176  20.063  0.00  0.00    +0.000 A 
ATOM      6 CL   UNL     1       1.342   2.680  21.482  0.00  0.00    +0.000 Cl
ATOM      7  C   UNL     1       2.337   4.540  19.696  0.00  0.00    +0.000 A 
ATOM      8  C   UNL     1       1.803   5.603  20.465  0.00  0.00    +0.000 A 
ATOM      9  C   UNL     1       1.956   6.938  20.090  0.00  0.00    +0.000 A 
ATOM     10  C   UNL     1       2.631   7.248  18.922  0.00  0.00    +0.000 A 
ATOM     11  C   UNL     1       3.160   6.224  18.137  0.00  0.00    +0.000 A 
ATOM     12  C   UNL     1       3.043   4.861  18.502  0.00  0.00    +0.000 A 
ENDROOT
TORSDOF 0
ENDMDL
MODEL 8
REMARK VINA RESULT:      -5.9      1.626      3.367
REMARK  Name = 
REMARK  0 active torsions:
REMARK  status: ('A' for Active; 'I' for Inactive)
REMARK                            x       y       z     vdW  Elec       q    Type
REMARK                         _______ _______ _______ _____ _____    ______ ____
ROOT
ATOM      1 CL   UNL     1       3.388   1.496  18.393  0.00  0.00    +0.000 Cl
ATOM      2  C   UNL     1       3.127   3.184  18.697  0.00  0.00    +0.000 A 
ATOM      3  C   UNL     1       2.296   3.497  19.774  0.00  0.00    +0.000 A 
ATOM      4  C   UNL     1       2.032   4.827  20.081  0.00  0.00    +0.000 A 
ATOM      5  C   UNL     1       2.606   5.844  19.317  0.00  0.00    +0.000 A 
ATOM      6 CL   UNL     1       2.205   7.470  19.771  0.00  0.00    +0.000 Cl
ATOM      7  C   UNL     1       3.472   5.557  18.230  0.00  0.00    +0.000 A 
ATOM      8  C   UNL     1       4.100   6.562  17.454  0.00  0.00    +0.000 A 
ATOM      9  C   UNL     1       4.959   6.253  16.399  0.00  0.00    +0.000 A 
ATOM     10  C   UNL     1       5.199   4.928  16.076  0.00  0.00    +0.000 A 
ATOM     11  C   UNL     1       4.588   3.915  16.815  0.00  0.00    +0.000 A 
ATOM     12  C   UNL     1       3.731   4.195  17.906  0.00  0.00    +0.000 A 
ENDROOT
TORSDOF 0
ENDMDL
MODEL 9
REMARK VINA RESULT:      -5.8      1.532      4.233
REMARK  Name = 
REMARK  0 active torsions:
REMARK  status: ('A' for Active; 'I' for Inactive)
REMARK                            x       y       z     vdW  Elec       q    Type
REMARK                         _______ _______ _______ _____ _____    ______ ____
ROOT
ATOM      1 CL   UNL     1       2.981   7.951  17.923  0.00  0.00    +0.000 Cl
ATOM      2  C   UNL     1       3.166   6.227  17.890  0.00  0.00    +0.000 A 
ATOM      3  C   UNL     1       2.294   5.495  18.698  0.00  0.00    +0.000 A 
ATOM      4  C   UNL     1       2.381   4.109  18.733  0.00  0.00    +0.000 A 
ATOM      5  C   UNL     1       3.333   3.451  17.952  0.00  0.00    +0.000 A 
ATOM      6 CL   UNL     1       3.370   1.721  18.075  0.00  0.00    +0.000 Cl
ATOM      7  C   UNL     1       4.218   4.166  17.104  0.00  0.00    +0.000 A 
ATOM      8  C   UNL     1       5.174   3.533  16.271  0.00  0.00    +0.000 A 
ATOM      9  C   UNL     1       6.023   4.258  15.435  0.00  0.00    +0.000 A 
ATOM     10  C   UNL     1       5.955   5.641  15.423  0.00  0.00    +0.000 A 
ATOM     11  C   UNL     1       5.031   6.295  16.238  0.00  0.00    +0.000 A 
ATOM     12  C   UNL     1       4.139   5.587  17.079  0.00  0.00    +0.000 A 
ENDROOT
TORSDOF 0
ENDMDL
