MODEL 1
REMARK VINA RESULT:      -7.2      0.000      0.000
REMARK  Name = 
REMARK  10 active torsions:
REMARK  status: ('A' for Active; 'I' for Inactive)
REMARK    1  A    between atoms: C_1  and  O_2
REMARK    2  A    between atoms: O_2  and  C_3
REMARK    3  A    between atoms: C_3  and  C_4
REMARK    4  A    between atoms: C_4  and  N_5
REMARK    5  A    between atoms: C_6  and  C_8
REMARK    6  A    between atoms: C_11  and  N_12
REMARK    7  A    between atoms: N_12  and  C_13
REMARK    8  A    between atoms: C_13  and  C_14
REMARK    9  A    between atoms: C_27  and  O_28
REMARK   10  A    between atoms: O_28  and  C_29
REMARK                            x       y       z     vdW  Elec       q    Type
REMARK                         _______ _______ _______ _____ _____    ______ ____
ROOT
ATOM      1  C   UNL     1      -0.738  11.183  22.410  0.00  0.00    +0.000 A 
ATOM      2  C   UNL     1      -0.775   9.842  22.770  0.00  0.00    +0.000 A 
ATOM      3  C   UNL     1      -0.039   8.919  22.026  0.00  0.00    +0.000 A 
ATOM      4  C   UNL     1       0.730   9.275  20.886  0.00  0.00    +0.000 A 
ATOM      5  C   UNL     1       0.762  10.652  20.519  0.00  0.00    +0.000 A 
ATOM      6  C   UNL     1       1.443  11.260  19.318  0.00  0.00    +0.000 A 
ATOM      7  O   UNL     1       1.748  10.626  18.304  0.00  0.00    +0.000 OA
ATOM      8  C   UNL     1       1.658  12.713  19.197  0.00  0.00    +0.000 A 
ATOM      9  C   UNL     1       2.526  13.189  18.203  0.00  0.00    +0.000 A 
ATOM     10  C   UNL     1       2.628  14.545  17.972  0.00  0.00    +0.000 A 
ATOM     11  C   UNL     1       1.868  15.416  18.749  0.00  0.00    +0.000 A 
ATOM     12  C   UNL     1       1.007  14.947  19.766  0.00  0.00    +0.000 A 
ATOM     13  C   UNL     1       0.873  13.566  19.985  0.00  0.00    +0.000 A 
ATOM     14  N   UNL     1       0.104  12.975  20.986  0.00  0.00    +0.000 N 
ATOM     15  C   UNL     1       0.016  11.592  21.280  0.00  0.00    +0.000 A 
ATOM     16  H   UNL     1      -0.767  13.446  21.239  0.00  0.00    +0.000 HD
ENDROOT
BRANCH   1  18
ATOM     17  N   UNL     1      -2.882  11.938  23.371  0.00  0.00    +0.000 N 
ATOM     18  C   UNL     1      -1.547  12.193  23.160  0.00  0.00    +0.000 C 
ATOM     19  O   UNL     1      -1.002  13.221  23.574  0.00  0.00    +0.000 OA
ATOM     20  H   UNL     1      -3.229  10.989  23.251  0.00  0.00    +0.000 HD
BRANCH  17  21
ATOM     21  C   UNL     1      -3.688  12.860  24.164  0.00  0.00    +0.000 C 
BRANCH  21  22
ATOM     22  C   UNL     1      -5.082  12.324  24.491  0.00  0.00    +0.000 C 
BRANCH  22  24
ATOM     23  C   UNL     1      -7.310  12.339  23.717  0.00  0.00    +0.000 C 
ATOM     24  O   UNL     1      -5.939  12.468  23.354  0.00  0.00    +0.000 OA
ENDBRANCH  22  24
ENDBRANCH  21  22
ENDBRANCH  17  21
ENDBRANCH   1  18
BRANCH   4  25
ATOM     25  N   UNL     1       1.473   8.187  20.357  0.00  0.00    +0.000 N 
ATOM     26  H   UNL     1       2.391   8.482  20.048  0.00  0.00    +0.000 HD
BRANCH  25  27
ATOM     27  C   UNL     1       1.547   6.954  21.130  0.00  0.00    +0.000 C 
BRANCH  27  28
ATOM     28  C   UNL     1       1.808   5.701  20.347  0.00  0.00    +0.000 A 
ATOM     29  C   UNL     1       1.111   4.504  20.478  0.00  0.00    +0.000 A 
ATOM     30  C   UNL     1       1.465   3.426  19.678  0.00  0.00    +0.000 A 
ATOM     31  C   UNL     1       2.529   3.567  18.796  0.00  0.00    +0.000 A 
ATOM     32  N   UNL     1       3.252   4.698  18.668  0.00  0.00    +0.000 NA
ATOM     33  C   UNL     1       2.884   5.729  19.451  0.00  0.00    +0.000 A 
ENDBRANCH  27  28
ENDBRANCH  25  27
ENDBRANCH   4  25
BRANCH  12  34
ATOM     34  O   UNL     1       0.400  15.992  20.414  0.00  0.00    +0.000 OA
ATOM     35  C   UNL     1       1.098  16.696  21.424  0.00  0.00    +0.000 C 
ENDBRANCH  12  34
TORSDOF 8
ENDMDL
MODEL 2
REMARK VINA RESULT:      -7.1      0.861      1.042
REMARK  Name = 
REMARK  10 active torsions:
REMARK  status: ('A' for Active; 'I' for Inactive)
REMARK    1  A    between atoms: C_1  and  O_2
REMARK    2  A    between atoms: O_2  and  C_3
REMARK    3  A    between atoms: C_3  and  C_4
REMARK    4  A    between atoms: C_4  and  N_5
REMARK    5  A    between atoms: C_6  and  C_8
REMARK    6  A    between atoms: C_11  and  N_12
REMARK    7  A    between atoms: N_12  and  C_13
REMARK    8  A    between atoms: C_13  and  C_14
REMARK    9  A    between atoms: C_27  and  O_28
REMARK   10  A    between atoms: O_28  and  C_29
REMARK                            x       y       z     vdW  Elec       q    Type
REMARK                         _______ _______ _______ _____ _____    ______ ____
ROOT
ATOM      1  C   UNL     1      -0.729  11.120  22.348  0.00  0.00    +0.000 A 
ATOM      2  C   UNL     1      -0.731   9.770  22.673  0.00  0.00    +0.000 A 
ATOM      3  C   UNL     1       0.039   8.888  21.913  0.00  0.00    +0.000 A 
ATOM      4  C   UNL     1       0.809   9.295  20.791  0.00  0.00    +0.000 A 
ATOM      5  C   UNL     1       0.804  10.682  20.460  0.00  0.00    +0.000 A 
ATOM      6  C   UNL     1       1.479  11.340  19.281  0.00  0.00    +0.000 A 
ATOM      7  O   UNL     1       1.812  10.742  18.255  0.00  0.00    +0.000 OA
ATOM      8  C   UNL     1       1.653  12.802  19.201  0.00  0.00    +0.000 A 
ATOM      9  C   UNL     1       2.516  13.328  18.229  0.00  0.00    +0.000 A 
ATOM     10  C   UNL     1       2.581  14.692  18.034  0.00  0.00    +0.000 A 
ATOM     11  C   UNL     1       1.789  15.520  18.825  0.00  0.00    +0.000 A 
ATOM     12  C   UNL     1       0.932  15.000  19.820  0.00  0.00    +0.000 A 
ATOM     13  C   UNL     1       0.836  13.611  20.002  0.00  0.00    +0.000 A 
ATOM     14  N   UNL     1       0.075  12.973  20.979  0.00  0.00    +0.000 N 
ATOM     15  C   UNL     1       0.024  11.580  21.237  0.00  0.00    +0.000 A 
ATOM     16  H   UNL     1      -0.812  13.412  21.235  0.00  0.00    +0.000 HD
ENDROOT
BRANCH   1  18
ATOM     17  N   UNL     1      -2.893  11.768  23.344  0.00  0.00    +0.000 N 
ATOM     18  C   UNL     1      -1.574  12.087  23.115  0.00  0.00    +0.000 C 
ATOM     19  O   UNL     1      -1.072  13.137  23.528  0.00  0.00    +0.000 OA
ATOM     20  H   UNL     1      -3.196  10.804  23.223  0.00  0.00    +0.000 HD
BRANCH  17  21
ATOM     21  C   UNL     1      -3.730  12.646  24.154  0.00  0.00    +0.000 C 
BRANCH  21  22
ATOM     22  C   UNL     1      -4.960  13.169  23.412  0.00  0.00    +0.000 C 
BRANCH  22  24
ATOM     23  C   UNL     1      -6.496  12.566  21.726  0.00  0.00    +0.000 C 
ATOM     24  O   UNL     1      -5.167  12.412  22.216  0.00  0.00    +0.000 OA
ENDBRANCH  22  24
ENDBRANCH  21  22
ENDBRANCH  17  21
ENDBRANCH   1  18
BRANCH   4  25
ATOM     25  N   UNL     1       1.587   8.243  20.242  0.00  0.00    +0.000 N 
ATOM     26  H   UNL     1       2.537   8.544  20.058  0.00  0.00    +0.000 HD
BRANCH  25  27
ATOM     27  C   UNL     1       1.564   6.944  20.900  0.00  0.00    +0.000 C 
BRANCH  27  28
ATOM     28  C   UNL     1       2.112   5.794  20.107  0.00  0.00    +0.000 A 
ATOM     29  C   UNL     1       2.453   5.830  18.759  0.00  0.00    +0.000 A 
ATOM     30  C   UNL     1       2.954   4.683  18.159  0.00  0.00    +0.000 A 
ATOM     31  C   UNL     1       3.064   3.524  18.917  0.00  0.00    +0.000 A 
ATOM     32  N   UNL     1       2.708   3.440  20.214  0.00  0.00    +0.000 NA
ATOM     33  C   UNL     1       2.231   4.567  20.773  0.00  0.00    +0.000 A 
ENDBRANCH  27  28
ENDBRANCH  25  27
ENDBRANCH   4  25
BRANCH  12  34
ATOM     34  O   UNL     1       0.289  16.010  20.489  0.00  0.00    +0.000 OA
ATOM     35  C   UNL     1      -0.356  17.038  19.760  0.00  0.00    +0.000 C 
ENDBRANCH  12  34
TORSDOF 8
ENDMDL
MODEL 3
REMARK VINA RESULT:      -7.0      3.243      4.759
REMARK  Name = 
REMARK  10 active torsions:
REMARK  status: ('A' for Active; 'I' for Inactive)
REMARK    1  A    between atoms: C_1  and  O_2
REMARK    2  A    between atoms: O_2  and  C_3
REMARK    3  A    between atoms: C_3  and  C_4
REMARK    4  A    between atoms: C_4  and  N_5
REMARK    5  A    between atoms: C_6  and  C_8
REMARK    6  A    between atoms: C_11  and  N_12
REMARK    7  A    between atoms: N_12  and  C_13
REMARK    8  A    between atoms: C_13  and  C_14
REMARK    9  A    between atoms: C_27  and  O_28
REMARK   10  A    between atoms: O_28  and  C_29
REMARK                            x       y       z     vdW  Elec       q    Type
REMARK                         _______ _______ _______ _____ _____    ______ ____
ROOT
ATOM      1  C   UNL     1      -2.832  10.986  18.209  0.00  0.00    +0.000 A 
ATOM      2  C   UNL     1      -2.068  10.160  17.394  0.00  0.00    +0.000 A 
ATOM      3  C   UNL     1      -0.712   9.992  17.680  0.00  0.00    +0.000 A 
ATOM      4  C   UNL     1      -0.055  10.651  18.753  0.00  0.00    +0.000 A 
ATOM      5  C   UNL     1      -0.844  11.500  19.583  0.00  0.00    +0.000 A 
ATOM      6  C   UNL     1      -0.363  12.356  20.730  0.00  0.00    +0.000 A 
ATOM      7  O   UNL     1       0.806  12.723  20.873  0.00  0.00    +0.000 OA
ATOM      8  C   UNL     1      -1.299  12.959  21.696  0.00  0.00    +0.000 A 
ATOM      9  C   UNL     1      -0.786  13.510  22.880  0.00  0.00    +0.000 A 
ATOM     10  C   UNL     1      -1.619  14.211  23.727  0.00  0.00    +0.000 A 
ATOM     11  C   UNL     1      -2.963  14.344  23.387  0.00  0.00    +0.000 A 
ATOM     12  C   UNL     1      -3.492  13.776  22.207  0.00  0.00    +0.000 A 
ATOM     13  C   UNL     1      -2.643  13.088  21.324  0.00  0.00    +0.000 A 
ATOM     14  N   UNL     1      -3.044  12.436  20.159  0.00  0.00    +0.000 N 
ATOM     15  C   UNL     1      -2.225  11.667  19.295  0.00  0.00    +0.000 A 
ATOM     16  H   UNL     1      -3.814  12.857  19.634  0.00  0.00    +0.000 HD
ENDROOT
BRANCH   1  18
ATOM     17  N   UNL     1      -5.221  10.569  18.669  0.00  0.00    +0.000 N 
ATOM     18  C   UNL     1      -4.278  11.222  17.908  0.00  0.00    +0.000 C 
ATOM     19  O   UNL     1      -4.591  11.992  16.996  0.00  0.00    +0.000 OA
ATOM     20  H   UNL     1      -4.941  10.160  19.558  0.00  0.00    +0.000 HD
BRANCH  17  21
ATOM     21  C   UNL     1      -6.641  10.830  18.460  0.00  0.00    +0.000 C 
BRANCH  21  22
ATOM     22  C   UNL     1      -7.389  11.197  19.742  0.00  0.00    +0.000 C 
BRANCH  22  24
ATOM     23  C   UNL     1      -7.616   8.924  20.331  0.00  0.00    +0.000 C 
ATOM     24  O   UNL     1      -7.152  10.206  20.746  0.00  0.00    +0.000 OA
ENDBRANCH  22  24
ENDBRANCH  21  22
ENDBRANCH  17  21
ENDBRANCH   1  18
BRANCH   4  25
ATOM     25  N   UNL     1       1.295  10.244  18.909  0.00  0.00    +0.000 N 
ATOM     26  H   UNL     1       1.453   9.832  19.821  0.00  0.00    +0.000 HD
BRANCH  25  27
ATOM     27  C   UNL     1       1.908   9.445  17.856  0.00  0.00    +0.000 C 
BRANCH  27  28
ATOM     28  C   UNL     1       2.490   8.130  18.282  0.00  0.00    +0.000 A 
ATOM     29  C   UNL     1       3.406   7.376  17.556  0.00  0.00    +0.000 A 
ATOM     30  C   UNL     1       3.861   6.175  18.082  0.00  0.00    +0.000 A 
ATOM     31  C   UNL     1       3.359   5.747  19.305  0.00  0.00    +0.000 A 
ATOM     32  N   UNL     1       2.443   6.430  20.020  0.00  0.00    +0.000 NA
ATOM     33  C   UNL     1       2.023   7.593  19.489  0.00  0.00    +0.000 A 
ENDBRANCH  27  28
ENDBRANCH  25  27
ENDBRANCH   4  25
BRANCH  12  34
ATOM     34  O   UNL     1      -4.840  14.008  22.112  0.00  0.00    +0.000 OA
ATOM     35  C   UNL     1      -5.703  13.581  23.149  0.00  0.00    +0.000 C 
ENDBRANCH  12  34
TORSDOF 8
ENDMDL
MODEL 4
REMARK VINA RESULT:      -6.9      3.591      4.917
REMARK  Name = 
REMARK  10 active torsions:
REMARK  status: ('A' for Active; 'I' for Inactive)
REMARK    1  A    between atoms: C_1  and  O_2
REMARK    2  A    between atoms: O_2  and  C_3
REMARK    3  A    between atoms: C_3  and  C_4
REMARK    4  A    between atoms: C_4  and  N_5
REMARK    5  A    between atoms: C_6  and  C_8
REMARK    6  A    between atoms: C_11  and  N_12
REMARK    7  A    between atoms: N_12  and  C_13
REMARK    8  A    between atoms: C_13  and  C_14
REMARK    9  A    between atoms: C_27  and  O_28
REMARK   10  A    between atoms: O_28  and  C_29
REMARK                            x       y       z     vdW  Elec       q    Type
REMARK                         _______ _______ _______ _____ _____    ______ ____
ROOT
ATOM      1  C   UNL     1      -3.578  11.061  18.049  0.00  0.00    +0.000 A 
ATOM      2  C   UNL     1      -3.005  10.219  17.103  0.00  0.00    +0.000 A 
ATOM      3  C   UNL     1      -1.638   9.947  17.176  0.00  0.00    +0.000 A 
ATOM      4  C   UNL     1      -0.783  10.516  18.157  0.00  0.00    +0.000 A 
ATOM      5  C   UNL     1      -1.375  11.381  19.123  0.00  0.00    +0.000 A 
ATOM      6  C   UNL     1      -0.668  12.154  20.209  0.00  0.00    +0.000 A 
ATOM      7  O   UNL     1       0.533  12.435  20.185  0.00  0.00    +0.000 OA
ATOM      8  C   UNL     1      -1.403  12.779  21.323  0.00  0.00    +0.000 A 
ATOM      9  C   UNL     1      -0.681  13.245  22.432  0.00  0.00    +0.000 A 
ATOM     10  C   UNL     1      -1.325  13.965  23.417  0.00  0.00    +0.000 A 
ATOM     11  C   UNL     1      -2.692  14.203  23.288  0.00  0.00    +0.000 A 
ATOM     12  C   UNL     1      -3.430  13.721  22.185  0.00  0.00    +0.000 A 
ATOM     13  C   UNL     1      -2.775  13.014  21.162  0.00  0.00    +0.000 A 
ATOM     14  N   UNL     1      -3.390  12.440  20.052  0.00  0.00    +0.000 N 
ATOM     15  C   UNL     1      -2.767  11.653  19.051  0.00  0.00    +0.000 A 
ATOM     16  H   UNL     1      -4.197  12.933  19.663  0.00  0.00    +0.000 HD
ENDROOT
BRANCH   1  18
ATOM     17  N   UNL     1      -5.411  12.492  17.223  0.00  0.00    +0.000 N 
ATOM     18  C   UNL     1      -5.031  11.406  17.978  0.00  0.00    +0.000 C 
ATOM     19  O   UNL     1      -5.850  10.712  18.587  0.00  0.00    +0.000 OA
ATOM     20  H   UNL     1      -4.758  12.871  16.540  0.00  0.00    +0.000 HD
BRANCH  17  21
ATOM     21  C   UNL     1      -6.824  12.817  17.064  0.00  0.00    +0.000 C 
BRANCH  21  22
ATOM     22  C   UNL     1      -7.241  14.095  17.791  0.00  0.00    +0.000 C 
BRANCH  22  24
ATOM     23  C   UNL     1      -7.561  13.774  20.106  0.00  0.00    +0.000 C 
ATOM     24  O   UNL     1      -6.636  14.139  19.086  0.00  0.00    +0.000 OA
ENDBRANCH  22  24
ENDBRANCH  21  22
ENDBRANCH  17  21
ENDBRANCH   1  18
BRANCH   4  25
ATOM     25  N   UNL     1       0.543  10.011  18.095  0.00  0.00    +0.000 N 
ATOM     26  H   UNL     1       1.191  10.718  17.769  0.00  0.00    +0.000 HD
BRANCH  25  27
ATOM     27  C   UNL     1       1.072   9.302  19.252  0.00  0.00    +0.000 C 
BRANCH  27  28
ATOM     28  C   UNL     1       2.002   8.162  18.956  0.00  0.00    +0.000 A 
ATOM     29  C   UNL     1       2.186   7.038  19.754  0.00  0.00    +0.000 A 
ATOM     30  C   UNL     1       3.082   6.060  19.347  0.00  0.00    +0.000 A 
ATOM     31  C   UNL     1       3.794   6.252  18.169  0.00  0.00    +0.000 A 
ATOM     32  N   UNL     1       3.672   7.345  17.389  0.00  0.00    +0.000 NA
ATOM     33  C   UNL     1       2.792   8.275  17.805  0.00  0.00    +0.000 A 
ENDBRANCH  27  28
ENDBRANCH  25  27
ENDBRANCH   4  25
BRANCH  12  34
ATOM     34  O   UNL     1      -4.756  14.048  22.302  0.00  0.00    +0.000 OA
ATOM     35  C   UNL     1      -5.494  13.609  23.427  0.00  0.00    +0.000 C 
ENDBRANCH  12  34
TORSDOF 8
ENDMDL
MODEL 5
REMARK VINA RESULT:      -6.9      3.381      4.766
REMARK  Name = 
REMARK  10 active torsions:
REMARK  status: ('A' for Active; 'I' for Inactive)
REMARK    1  A    between atoms: C_1  and  O_2
REMARK    2  A    between atoms: O_2  and  C_3
REMARK    3  A    between atoms: C_3  and  C_4
REMARK    4  A    between atoms: C_4  and  N_5
REMARK    5  A    between atoms: C_6  and  C_8
REMARK    6  A    between atoms: C_11  and  N_12
REMARK    7  A    between atoms: N_12  and  C_13
REMARK    8  A    between atoms: C_13  and  C_14
REMARK    9  A    between atoms: C_27  and  O_28
REMARK   10  A    between atoms: O_28  and  C_29
REMARK                            x       y       z     vdW  Elec       q    Type
REMARK                         _______ _______ _______ _____ _____    ______ ____
ROOT
ATOM      1  C   UNL     1      -2.952  10.961  18.187  0.00  0.00    +0.000 A 
ATOM      2  C   UNL     1      -2.225  10.080  17.396  0.00  0.00    +0.000 A 
ATOM      3  C   UNL     1      -0.879   9.857  17.691  0.00  0.00    +0.000 A 
ATOM      4  C   UNL     1      -0.195  10.513  18.749  0.00  0.00    +0.000 A 
ATOM      5  C   UNL     1      -0.945  11.417  19.555  0.00  0.00    +0.000 A 
ATOM      6  C   UNL     1      -0.428  12.279  20.681  0.00  0.00    +0.000 A 
ATOM      7  O   UNL     1       0.756  12.595  20.819  0.00  0.00    +0.000 OA
ATOM      8  C   UNL     1      -1.337  12.949  21.629  0.00  0.00    +0.000 A 
ATOM      9  C   UNL     1      -0.803  13.505  22.800  0.00  0.00    +0.000 A 
ATOM     10  C   UNL     1      -1.605  14.265  23.627  0.00  0.00    +0.000 A 
ATOM     11  C   UNL     1      -2.940  14.451  23.280  0.00  0.00    +0.000 A 
ATOM     12  C   UNL     1      -3.492  13.878  22.112  0.00  0.00    +0.000 A 
ATOM     13  C   UNL     1      -2.674  13.129  21.249  0.00  0.00    +0.000 A 
ATOM     14  N   UNL     1      -3.101  12.468  20.100  0.00  0.00    +0.000 N 
ATOM     15  C   UNL     1      -2.316  11.641  19.258  0.00  0.00    +0.000 A 
ATOM     16  H   UNL     1      -3.850  12.910  19.562  0.00  0.00    +0.000 HD
ENDROOT
BRANCH   1  18
ATOM     17  N   UNL     1      -5.359  10.544  18.538  0.00  0.00    +0.000 N 
ATOM     18  C   UNL     1      -4.385  11.255  17.876  0.00  0.00    +0.000 C 
ATOM     19  O   UNL     1      -4.659  12.124  17.043  0.00  0.00    +0.000 OA
ATOM     20  H   UNL     1      -5.111  10.037  19.385  0.00  0.00    +0.000 HD
BRANCH  17  21
ATOM     21  C   UNL     1      -6.768  10.853  18.321  0.00  0.00    +0.000 C 
BRANCH  21  22
ATOM     22  C   UNL     1      -7.382  11.710  19.429  0.00  0.00    +0.000 C 
BRANCH  22  24
ATOM     23  C   UNL     1      -7.844  13.525  17.995  0.00  0.00    +0.000 C 
ATOM     24  O   UNL     1      -7.147  13.095  19.161  0.00  0.00    +0.000 OA
ENDBRANCH  22  24
ENDBRANCH  21  22
ENDBRANCH  17  21
ENDBRANCH   1  18
BRANCH   4  25
ATOM     25  N   UNL     1       1.135  10.048  18.920  0.00  0.00    +0.000 N 
ATOM     26  H   UNL     1       1.264   9.623  19.831  0.00  0.00    +0.000 HD
BRANCH  25  27
ATOM     27  C   UNL     1       1.728   9.231  17.869  0.00  0.00    +0.000 C 
BRANCH  27  28
ATOM     28  C   UNL     1       2.404   7.970  18.318  0.00  0.00    +0.000 A 
ATOM     29  C   UNL     1       2.116   7.266  19.482  0.00  0.00    +0.000 A 
ATOM     30  C   UNL     1       2.827   6.108  19.765  0.00  0.00    +0.000 A 
ATOM     31  C   UNL     1       3.830   5.707  18.891  0.00  0.00    +0.000 A 
ATOM     32  N   UNL     1       4.165   6.383  17.774  0.00  0.00    +0.000 NA
ATOM     33  C   UNL     1       3.456   7.499  17.521  0.00  0.00    +0.000 A 
ENDBRANCH  27  28
ENDBRANCH  25  27
ENDBRANCH   4  25
BRANCH  12  34
ATOM     34  O   UNL     1      -4.827  14.170  22.007  0.00  0.00    +0.000 OA
ATOM     35  C   UNL     1      -5.790  13.244  22.475  0.00  0.00    +0.000 C 
ENDBRANCH  12  34
TORSDOF 8
ENDMDL
MODEL 6
REMARK VINA RESULT:      -6.8      0.951      1.334
REMARK  Name = 
REMARK  10 active torsions:
REMARK  status: ('A' for Active; 'I' for Inactive)
REMARK    1  A    between atoms: C_1  and  O_2
REMARK    2  A    between atoms: O_2  and  C_3
REMARK    3  A    between atoms: C_3  and  C_4
REMARK    4  A    between atoms: C_4  and  N_5
REMARK    5  A    between atoms: C_6  and  C_8
REMARK    6  A    between atoms: C_11  and  N_12
REMARK    7  A    between atoms: N_12  and  C_13
REMARK    8  A    between atoms: C_13  and  C_14
REMARK    9  A    between atoms: C_27  and  O_28
REMARK   10  A    between atoms: O_28  and  C_29
REMARK                            x       y       z     vdW  Elec       q    Type
REMARK                         _______ _______ _______ _____ _____    ______ ____
ROOT
ATOM      1  C   UNL     1      -0.734  11.173  22.343  0.00  0.00    +0.000 A 
ATOM      2  C   UNL     1      -0.744   9.820  22.659  0.00  0.00    +0.000 A 
ATOM      3  C   UNL     1       0.023   8.939  21.895  0.00  0.00    +0.000 A 
ATOM      4  C   UNL     1       0.798   9.350  20.778  0.00  0.00    +0.000 A 
ATOM      5  C   UNL     1       0.802  10.739  20.456  0.00  0.00    +0.000 A 
ATOM      6  C   UNL     1       1.484  11.401  19.285  0.00  0.00    +0.000 A 
ATOM      7  O   UNL     1       1.817  10.808  18.256  0.00  0.00    +0.000 OA
ATOM      8  C   UNL     1       1.667  12.862  19.215  0.00  0.00    +0.000 A 
ATOM      9  C   UNL     1       2.536  13.390  18.249  0.00  0.00    +0.000 A 
ATOM     10  C   UNL     1       2.610  14.755  18.063  0.00  0.00    +0.000 A 
ATOM     11  C   UNL     1       1.821  15.582  18.858  0.00  0.00    +0.000 A 
ATOM     12  C   UNL     1       0.957  15.061  19.847  0.00  0.00    +0.000 A 
ATOM     13  C   UNL     1       0.853  13.670  20.019  0.00  0.00    +0.000 A 
ATOM     14  N   UNL     1       0.085  13.030  20.990  0.00  0.00    +0.000 N 
ATOM     15  C   UNL     1       0.026  11.636  21.238  0.00  0.00    +0.000 A 
ATOM     16  H   UNL     1      -0.800  13.472  21.247  0.00  0.00    +0.000 HD
ENDROOT
BRANCH   1  18
ATOM     17  N   UNL     1      -2.906  11.845  23.304  0.00  0.00    +0.000 N 
ATOM     18  C   UNL     1      -1.575  12.140  23.115  0.00  0.00    +0.000 C 
ATOM     19  O   UNL     1      -1.060  13.167  23.566  0.00  0.00    +0.000 OA
ATOM     20  H   UNL     1      -3.227  10.891  23.152  0.00  0.00    +0.000 HD
BRANCH  17  21
ATOM     21  C   UNL     1      -3.742  12.721  24.116  0.00  0.00    +0.000 C 
BRANCH  21  22
ATOM     22  C   UNL     1      -4.541  13.734  23.295  0.00  0.00    +0.000 C 
BRANCH  22  24
ATOM     23  C   UNL     1      -3.627  15.510  24.550  0.00  0.00    +0.000 C 
ATOM     24  O   UNL     1      -4.824  14.891  24.088  0.00  0.00    +0.000 OA
ENDBRANCH  22  24
ENDBRANCH  21  22
ENDBRANCH  17  21
ENDBRANCH   1  18
BRANCH   4  25
ATOM     25  N   UNL     1       1.572   8.297  20.224  0.00  0.00    +0.000 N 
ATOM     26  H   UNL     1       2.498   8.616  19.966  0.00  0.00    +0.000 HD
BRANCH  25  27
ATOM     27  C   UNL     1       1.631   7.027  20.937  0.00  0.00    +0.000 C 
BRANCH  27  28
ATOM     28  C   UNL     1       2.048   5.837  20.125  0.00  0.00    +0.000 A 
ATOM     29  C   UNL     1       2.406   5.857  18.781  0.00  0.00    +0.000 A 
ATOM     30  C   UNL     1       2.775   4.670  18.163  0.00  0.00    +0.000 A 
ATOM     31  C   UNL     1       2.741   3.492  18.898  0.00  0.00    +0.000 A 
ATOM     32  N   UNL     1       2.364   3.426  20.191  0.00  0.00    +0.000 NA
ATOM     33  C   UNL     1       2.016   4.592  20.768  0.00  0.00    +0.000 A 
ENDBRANCH  27  28
ENDBRANCH  25  27
ENDBRANCH   4  25
BRANCH  12  34
ATOM     34  O   UNL     1       0.318  16.069  20.521  0.00  0.00    +0.000 OA
ATOM     35  C   UNL     1       0.887  16.598  21.704  0.00  0.00    +0.000 C 
ENDBRANCH  12  34
TORSDOF 8
ENDMDL
MODEL 7
REMARK VINA RESULT:      -6.8      3.489      5.033
REMARK  Name = 
REMARK  10 active torsions:
REMARK  status: ('A' for Active; 'I' for Inactive)
REMARK    1  A    between atoms: C_1  and  O_2
REMARK    2  A    between atoms: O_2  and  C_3
REMARK    3  A    between atoms: C_3  and  C_4
REMARK    4  A    between atoms: C_4  and  N_5
REMARK    5  A    between atoms: C_6  and  C_8
REMARK    6  A    between atoms: C_11  and  N_12
REMARK    7  A    between atoms: N_12  and  C_13
REMARK    8  A    between atoms: C_13  and  C_14
REMARK    9  A    between atoms: C_27  and  O_28
REMARK   10  A    between atoms: O_28  and  C_29
REMARK                            x       y       z     vdW  Elec       q    Type
REMARK                         _______ _______ _______ _____ _____    ______ ____
ROOT
ATOM      1  C   UNL     1      -3.194  11.218  18.410  0.00  0.00    +0.000 A 
ATOM      2  C   UNL     1      -2.460  10.390  17.571  0.00  0.00    +0.000 A 
ATOM      3  C   UNL     1      -1.108  10.173  17.843  0.00  0.00    +0.000 A 
ATOM      4  C   UNL     1      -0.425  10.786  18.927  0.00  0.00    +0.000 A 
ATOM      5  C   UNL     1      -1.182  11.638  19.784  0.00  0.00    +0.000 A 
ATOM      6  C   UNL     1      -0.669  12.450  20.947  0.00  0.00    +0.000 A 
ATOM      7  O   UNL     1       0.511  12.778  21.091  0.00  0.00    +0.000 OA
ATOM      8  C   UNL     1      -1.580  13.058  21.934  0.00  0.00    +0.000 A 
ATOM      9  C   UNL     1      -1.044  13.563  23.127  0.00  0.00    +0.000 A 
ATOM     10  C   UNL     1      -1.850  14.269  23.997  0.00  0.00    +0.000 A 
ATOM     11  C   UNL     1      -3.191  14.450  23.670  0.00  0.00    +0.000 A 
ATOM     12  C   UNL     1      -3.744  13.927  22.480  0.00  0.00    +0.000 A 
ATOM     13  C   UNL     1      -2.922  13.236  21.574  0.00  0.00    +0.000 A 
ATOM     14  N   UNL     1      -3.349  12.626  20.397  0.00  0.00    +0.000 N 
ATOM     15  C   UNL     1      -2.559  11.854  19.508  0.00  0.00    +0.000 A 
ATOM     16  H   UNL     1      -4.109  13.082  19.888  0.00  0.00    +0.000 HD
ENDROOT
BRANCH   1  18
ATOM     17  N   UNL     1      -4.942  12.573  17.314  0.00  0.00    +0.000 N 
ATOM     18  C   UNL     1      -4.634  11.505  18.125  0.00  0.00    +0.000 C 
ATOM     19  O   UNL     1      -5.505  10.781  18.615  0.00  0.00    +0.000 OA
ATOM     20  H   UNL     1      -4.212  12.976  16.730  0.00  0.00    +0.000 HD
BRANCH  17  21
ATOM     21  C   UNL     1      -6.328  12.840  16.948  0.00  0.00    +0.000 C 
BRANCH  21  22
ATOM     22  C   UNL     1      -6.831  14.205  17.420  0.00  0.00    +0.000 C 
BRANCH  22  24
ATOM     23  C   UNL     1      -7.404  13.780  19.668  0.00  0.00    +0.000 C 
ATOM     24  O   UNL     1      -6.474  14.408  18.791  0.00  0.00    +0.000 OA
ENDBRANCH  22  24
ENDBRANCH  21  22
ENDBRANCH  17  21
ENDBRANCH   1  18
BRANCH   4  25
ATOM     25  N   UNL     1       0.913  10.334  19.064  0.00  0.00    +0.000 N 
ATOM     26  H   UNL     1       1.043   9.822  19.928  0.00  0.00    +0.000 HD
BRANCH  25  27
ATOM     27  C   UNL     1       1.532   9.641  17.942  0.00  0.00    +0.000 C 
BRANCH  27  28
ATOM     28  C   UNL     1       2.238   8.359  18.269  0.00  0.00    +0.000 A 
ATOM     29  C   UNL     1       3.134   7.692  17.440  0.00  0.00    +0.000 A 
ATOM     30  C   UNL     1       3.713   6.511  17.882  0.00  0.00    +0.000 A 
ATOM     31  C   UNL     1       3.353   6.013  19.129  0.00  0.00    +0.000 A 
ATOM     32  N   UNL     1       2.461   6.610  19.945  0.00  0.00    +0.000 NA
ATOM     33  C   UNL     1       1.918   7.756  19.493  0.00  0.00    +0.000 A 
ENDBRANCH  27  28
ENDBRANCH  25  27
ENDBRANCH   4  25
BRANCH  12  34
ATOM     34  O   UNL     1      -5.084  14.203  22.400  0.00  0.00    +0.000 OA
ATOM     35  C   UNL     1      -5.676  15.099  23.323  0.00  0.00    +0.000 C 
ENDBRANCH  12  34
TORSDOF 8
ENDMDL
MODEL 8
REMARK VINA RESULT:      -6.8      2.979      3.533
REMARK  Name = 
REMARK  10 active torsions:
REMARK  status: ('A' for Active; 'I' for Inactive)
REMARK    1  A    between atoms: C_1  and  O_2
REMARK    2  A    between atoms: O_2  and  C_3
REMARK    3  A    between atoms: C_3  and  C_4
REMARK    4  A    between atoms: C_4  and  N_5
REMARK    5  A    between atoms: C_6  and  C_8
REMARK    6  A    between atoms: C_11  and  N_12
REMARK    7  A    between atoms: N_12  and  C_13
REMARK    8  A    between atoms: C_13  and  C_14
REMARK    9  A    between atoms: C_27  and  O_28
REMARK   10  A    between atoms: O_28  and  C_29
REMARK                            x       y       z     vdW  Elec       q    Type
REMARK                         _______ _______ _______ _____ _____    ______ ____
ROOT
ATOM      1  C   UNL     1      -2.003  11.558  18.895  0.00  0.00    +0.000 A 
ATOM      2  C   UNL     1      -1.806  10.182  18.902  0.00  0.00    +0.000 A 
ATOM      3  C   UNL     1      -0.504   9.683  18.824  0.00  0.00    +0.000 A 
ATOM      4  C   UNL     1       0.642  10.514  18.707  0.00  0.00    +0.000 A 
ATOM      5  C   UNL     1       0.433  11.924  18.697  0.00  0.00    +0.000 A 
ATOM      6  C   UNL     1       1.476  12.998  18.511  0.00  0.00    +0.000 A 
ATOM      7  O   UNL     1       2.574  12.809  17.982  0.00  0.00    +0.000 OA
ATOM      8  C   UNL     1       1.196  14.414  18.810  0.00  0.00    +0.000 A 
ATOM      9  C   UNL     1       2.268  15.316  18.878  0.00  0.00    +0.000 A 
ATOM     10  C   UNL     1       2.022  16.667  19.007  0.00  0.00    +0.000 A 
ATOM     11  C   UNL     1       0.702  17.104  19.079  0.00  0.00    +0.000 A 
ATOM     12  C   UNL     1      -0.384  16.201  19.032  0.00  0.00    +0.000 A 
ATOM     13  C   UNL     1      -0.142  14.827  18.869  0.00  0.00    +0.000 A 
ATOM     14  N   UNL     1      -1.114  13.829  18.861  0.00  0.00    +0.000 N 
ATOM     15  C   UNL     1      -0.891  12.431  18.780  0.00  0.00    +0.000 A 
ATOM     16  H   UNL     1      -2.019  14.067  18.449  0.00  0.00    +0.000 HD
ENDROOT
BRANCH   1  18
ATOM     17  N   UNL     1      -4.220  11.896  17.865  0.00  0.00    +0.000 N 
ATOM     18  C   UNL     1      -3.386  12.126  18.935  0.00  0.00    +0.000 C 
ATOM     19  O   UNL     1      -3.745  12.778  19.919  0.00  0.00    +0.000 OA
ATOM     20  H   UNL     1      -3.989  11.154  17.208  0.00  0.00    +0.000 HD
BRANCH  17  21
ATOM     21  C   UNL     1      -5.601  12.367  17.898  0.00  0.00    +0.000 C 
BRANCH  21  22
ATOM     22  C   UNL     1      -6.591  11.315  18.398  0.00  0.00    +0.000 C 
BRANCH  22  24
ATOM     23  C   UNL     1      -7.512  10.451  20.391  0.00  0.00    +0.000 C 
ATOM     24  O   UNL     1      -6.961  11.598  19.751  0.00  0.00    +0.000 OA
ENDBRANCH  22  24
ENDBRANCH  21  22
ENDBRANCH  17  21
ENDBRANCH   1  18
BRANCH   4  25
ATOM     25  N   UNL     1       1.859   9.786  18.750  0.00  0.00    +0.000 N 
ATOM     26  H   UNL     1       2.007   9.368  19.661  0.00  0.00    +0.000 HD
BRANCH  25  27
ATOM     27  C   UNL     1       2.141   8.836  17.682  0.00  0.00    +0.000 C 
BRANCH  27  28
ATOM     28  C   UNL     1       2.915   7.613  18.077  0.00  0.00    +0.000 A 
ATOM     29  C   UNL     1       3.973   7.058  17.364  0.00  0.00    +0.000 A 
ATOM     30  C   UNL     1       4.597   5.921  17.858  0.00  0.00    +0.000 A 
ATOM     31  C   UNL     1       4.121   5.352  19.033  0.00  0.00    +0.000 A 
ATOM     32  N   UNL     1       3.076   5.838  19.731  0.00  0.00    +0.000 NA
ATOM     33  C   UNL     1       2.492   6.943  19.233  0.00  0.00    +0.000 A 
ENDBRANCH  27  28
ENDBRANCH  25  27
ENDBRANCH   4  25
BRANCH  12  34
ATOM     34  O   UNL     1      -1.578  16.863  19.160  0.00  0.00    +0.000 OA
ATOM     35  C   UNL     1      -1.734  18.150  18.592  0.00  0.00    +0.000 C 
ENDBRANCH  12  34
TORSDOF 8
ENDMDL
MODEL 9
REMARK VINA RESULT:      -6.8      3.375      4.242
REMARK  Name = 
REMARK  10 active torsions:
REMARK  status: ('A' for Active; 'I' for Inactive)
REMARK    1  A    between atoms: C_1  and  O_2
REMARK    2  A    between atoms: O_2  and  C_3
REMARK    3  A    between atoms: C_3  and  C_4
REMARK    4  A    between atoms: C_4  and  N_5
REMARK    5  A    between atoms: C_6  and  C_8
REMARK    6  A    between atoms: C_11  and  N_12
REMARK    7  A    between atoms: N_12  and  C_13
REMARK    8  A    between atoms: C_13  and  C_14
REMARK    9  A    between atoms: C_27  and  O_28
REMARK   10  A    between atoms: O_28  and  C_29
REMARK                            x       y       z     vdW  Elec       q    Type
REMARK                         _______ _______ _______ _____ _____    ______ ____
ROOT
ATOM      1  C   UNL     1      -3.495  11.194  18.200  0.00  0.00    +0.000 A 
ATOM      2  C   UNL     1      -3.096  10.125  17.408  0.00  0.00    +0.000 A 
ATOM      3  C   UNL     1      -1.742   9.790  17.351  0.00  0.00    +0.000 A 
ATOM      4  C   UNL     1      -0.733  10.511  18.043  0.00  0.00    +0.000 A 
ATOM      5  C   UNL     1      -1.147  11.610  18.852  0.00  0.00    +0.000 A 
ATOM      6  C   UNL     1      -0.263  12.563  19.617  0.00  0.00    +0.000 A 
ATOM      7  O   UNL     1       0.928  12.754  19.362  0.00  0.00    +0.000 OA
ATOM      8  C   UNL     1      -0.804  13.471  20.645  0.00  0.00    +0.000 A 
ATOM      9  C   UNL     1       0.089  14.130  21.503  0.00  0.00    +0.000 A 
ATOM     10  C   UNL     1      -0.378  15.096  22.370  0.00  0.00    +0.000 A 
ATOM     11  C   UNL     1      -1.741  15.384  22.380  0.00  0.00    +0.000 A 
ATOM     12  C   UNL     1      -2.650  14.712  21.534  0.00  0.00    +0.000 A 
ATOM     13  C   UNL     1      -2.177  13.750  20.625  0.00  0.00    +0.000 A 
ATOM     14  N   UNL     1      -2.969  12.979  19.778  0.00  0.00    +0.000 N 
ATOM     15  C   UNL     1      -2.526  11.947  18.912  0.00  0.00    +0.000 A 
ATOM     16  H   UNL     1      -3.809  13.421  19.399  0.00  0.00    +0.000 HD
ENDROOT
BRANCH   1  18
ATOM     17  N   UNL     1      -5.793  10.881  19.043  0.00  0.00    +0.000 N 
ATOM     18  C   UNL     1      -4.932  11.606  18.252  0.00  0.00    +0.000 C 
ATOM     19  O   UNL     1      -5.308  12.580  17.594  0.00  0.00    +0.000 OA
ATOM     20  H   UNL     1      -5.409  10.266  19.757  0.00  0.00    +0.000 HD
BRANCH  17  21
ATOM     21  C   UNL     1      -7.185  11.295  19.183  0.00  0.00    +0.000 C 
BRANCH  21  22
ATOM     22  C   UNL     1      -7.759  11.043  20.577  0.00  0.00    +0.000 C 
BRANCH  22  24
ATOM     23  C   UNL     1      -7.624  12.225  22.615  0.00  0.00    +0.000 C 
ATOM     24  O   UNL     1      -6.888  11.594  21.570  0.00  0.00    +0.000 OA
ENDBRANCH  22  24
ENDBRANCH  21  22
ENDBRANCH  17  21
ENDBRANCH   1  18
BRANCH   4  25
ATOM     25  N   UNL     1       0.553   9.923  17.918  0.00  0.00    +0.000 N 
ATOM     26  H   UNL     1       1.216  10.570  17.509  0.00  0.00    +0.000 HD
BRANCH  25  27
ATOM     27  C   UNL     1       1.122   9.242  19.073  0.00  0.00    +0.000 C 
BRANCH  27  28
ATOM     28  C   UNL     1       2.134   8.175  18.775  0.00  0.00    +0.000 A 
ATOM     29  C   UNL     1       2.941   8.117  17.644  0.00  0.00    +0.000 A 
ATOM     30  C   UNL     1       3.838   7.066  17.507  0.00  0.00    +0.000 A 
ATOM     31  C   UNL     1       3.874   6.085  18.490  0.00  0.00    +0.000 A 
ATOM     32  N   UNL     1       3.082   6.086  19.581  0.00  0.00    +0.000 NA
ATOM     33  C   UNL     1       2.226   7.119  19.691  0.00  0.00    +0.000 A 
ENDBRANCH  27  28
ENDBRANCH  25  27
ENDBRANCH   4  25
BRANCH  12  34
ATOM     34  O   UNL     1      -3.933  15.141  21.754  0.00  0.00    +0.000 OA
ATOM     35  C   UNL     1      -4.381  16.351  21.172  0.00  0.00    +0.000 C 
ENDBRANCH  12  34
TORSDOF 8
ENDMDL
