MODEL 1
REMARK VINA RESULT:      -8.0      0.000      0.000
REMARK  Name = 
REMARK  9 active torsions:
REMARK  status: ('A' for Active; 'I' for Inactive)
REMARK    1  A    between atoms: C_1  and  N_2
REMARK    2  A    between atoms: C_4  and  C_5
REMARK    3  A    between atoms: C_5  and  C_6
REMARK    4  A    between atoms: C_6  and  C_7
REMARK    5  A    between atoms: C_6  and  N_9
REMARK    6  A    between atoms: C_7  and  S_8
REMARK    7  A    between atoms: C_10  and  C_12
REMARK    8  A    between atoms: C_12  and  C_13
REMARK    9  A    between atoms: C_16  and  C_17
REMARK                            x       y       z     vdW  Elec       q    Type
REMARK                         _______ _______ _______ _____ _____    ______ ____
ROOT
ATOM      1  N   UNL     1       2.506   7.383  19.294  0.00  0.00    +0.000 N 
ATOM      2  C   UNL     1       2.458   6.149  19.908  0.00  0.00    +0.000 C 
ATOM      3  O   UNL     1       1.497   5.760  20.566  0.00  0.00    +0.000 OA
ATOM      4  H   UNL     1       3.354   7.680  18.826  0.00  0.00    +0.000 HD
ENDROOT
BRANCH   1   5
ATOM      5  C   UNL     1       1.427   8.370  19.450  0.00  0.00    +0.000 C 
BRANCH   5   6
ATOM      6  C   UNL     1       1.524   9.528  18.423  0.00  0.00    +0.000 C 
BRANCH   6  10
ATOM      7  C   UNL     1      -0.533  13.990  19.340  0.00  0.00    +0.000 C 
ATOM      8  N   UNL     1      -0.445  12.574  19.066  0.00  0.00    +0.000 N 
ATOM      9  C   UNL     1       0.687  11.827  19.227  0.00  0.00    +0.000 A 
ATOM     10  C   UNL     1       0.486  10.596  18.630  0.00  0.00    +0.000 A 
ATOM     11  C   UNL     1      -0.903  10.544  18.275  0.00  0.00    +0.000 A 
ATOM     12  C   UNL     1      -1.744   9.549  17.727  0.00  0.00    +0.000 A 
ATOM     13  C   UNL     1      -3.099   9.827  17.505  0.00  0.00    +0.000 A 
ATOM     14  C   UNL     1      -3.622  11.083  17.794  0.00  0.00    +0.000 A 
ATOM     15  C   UNL     1      -2.811  12.093  18.315  0.00  0.00    +0.000 A 
ATOM     16  C   UNL     1      -1.459  11.795  18.560  0.00  0.00    +0.000 A 
ENDBRANCH   6  10
ENDBRANCH   5   6
BRANCH   5  17
ATOM     17  C   UNL     1       1.369   8.889  20.905  0.00  0.00    +0.000 C 
BRANCH  17  18
ATOM     18  S   UNL     1      -0.299   8.814  21.653  0.00  0.00    +0.000 S 
ATOM     19  H   UNL     1      -0.983   9.103  20.535  0.00  0.00    +0.000 HD
ENDBRANCH  17  18
ENDBRANCH   5  17
ENDBRANCH   1   5
BRANCH   2  20
ATOM     20  C   UNL     1       3.713   5.309  19.733  0.00  0.00    +0.000 C 
BRANCH  20  21
ATOM     21  C   UNL     1       4.205   5.184  18.311  0.00  0.00    +0.000 A 
ATOM     22  C   UNL     1       5.134   6.095  17.799  0.00  0.00    +0.000 A 
ATOM     23  C   UNL     1       5.693   5.910  16.526  0.00  0.00    +0.000 A 
ATOM     24  C   UNL     1       5.363   4.802  15.725  0.00  0.00    +0.000 A 
ATOM     25  C   UNL     1       4.403   3.914  16.242  0.00  0.00    +0.000 A 
ATOM     26  C   UNL     1       3.828   4.103  17.508  0.00  0.00    +0.000 A 
BRANCH  24  27
ATOM     27  C   UNL     1       6.033   4.556  14.419  0.00  0.00    +0.000 A 
ATOM     28  C   UNL     1       5.519   3.625  13.494  0.00  0.00    +0.000 A 
ATOM     29  C   UNL     1       6.127   3.409  12.252  0.00  0.00    +0.000 A 
ATOM     30  C   UNL     1       7.261   4.127  11.896  0.00  0.00    +0.000 A 
ATOM     31  C   UNL     1       7.792   5.054  12.787  0.00  0.00    +0.000 A 
ATOM     32  C   UNL     1       7.190   5.259  14.034  0.00  0.00    +0.000 A 
ENDBRANCH  24  27
ENDBRANCH  20  21
ENDBRANCH   2  20
TORSDOF 8
ENDMDL
MODEL 2
REMARK VINA RESULT:      -8.0      1.008      1.369
REMARK  Name = 
REMARK  9 active torsions:
REMARK  status: ('A' for Active; 'I' for Inactive)
REMARK    1  A    between atoms: C_1  and  N_2
REMARK    2  A    between atoms: C_4  and  C_5
REMARK    3  A    between atoms: C_5  and  C_6
REMARK    4  A    between atoms: C_6  and  C_7
REMARK    5  A    between atoms: C_6  and  N_9
REMARK    6  A    between atoms: C_7  and  S_8
REMARK    7  A    between atoms: C_10  and  C_12
REMARK    8  A    between atoms: C_12  and  C_13
REMARK    9  A    between atoms: C_16  and  C_17
REMARK                            x       y       z     vdW  Elec       q    Type
REMARK                         _______ _______ _______ _____ _____    ______ ____
ROOT
ATOM      1  N   UNL     1       2.162   7.787  19.694  0.00  0.00    +0.000 N 
ATOM      2  C   UNL     1       2.254   6.412  19.766  0.00  0.00    +0.000 C 
ATOM      3  O   UNL     1       1.284   5.679  19.939  0.00  0.00    +0.000 OA
ATOM      4  H   UNL     1       3.004   8.345  19.624  0.00  0.00    +0.000 HD
ENDROOT
BRANCH   1   5
ATOM      5  C   UNL     1       0.888   8.491  19.901  0.00  0.00    +0.000 C 
BRANCH   5   6
ATOM      6  C   UNL     1       0.949   9.976  19.460  0.00  0.00    +0.000 C 
BRANCH   6  10
ATOM      7  C   UNL     1      -2.793  13.097  20.578  0.00  0.00    +0.000 C 
ATOM      8  N   UNL     1      -2.084  12.011  19.940  0.00  0.00    +0.000 N 
ATOM      9  C   UNL     1      -0.926  11.462  20.413  0.00  0.00    +0.000 A 
ATOM     10  C   UNL     1      -0.398  10.645  19.431  0.00  0.00    +0.000 A 
ATOM     11  C   UNL     1      -1.397  10.552  18.405  0.00  0.00    +0.000 A 
ATOM     12  C   UNL     1      -1.511   9.817  17.204  0.00  0.00    +0.000 A 
ATOM     13  C   UNL     1      -2.657   9.953  16.409  0.00  0.00    +0.000 A 
ATOM     14  C   UNL     1      -3.675  10.825  16.778  0.00  0.00    +0.000 A 
ATOM     15  C   UNL     1      -3.581  11.581  17.949  0.00  0.00    +0.000 A 
ATOM     16  C   UNL     1      -2.440  11.417  18.752  0.00  0.00    +0.000 A 
ENDBRANCH   6  10
ENDBRANCH   5   6
BRANCH   5  17
ATOM     17  C   UNL     1       0.413   8.340  21.364  0.00  0.00    +0.000 C 
BRANCH  17  18
ATOM     18  S   UNL     1       1.381   9.325  22.563  0.00  0.00    +0.000 S 
ATOM     19  H   UNL     1       0.552   9.160  23.605  0.00  0.00    +0.000 HD
ENDBRANCH  17  18
ENDBRANCH   5  17
ENDBRANCH   1   5
BRANCH   2  20
ATOM     20  C   UNL     1       3.669   5.868  19.646  0.00  0.00    +0.000 C 
BRANCH  20  21
ATOM     21  C   UNL     1       4.111   5.546  18.238  0.00  0.00    +0.000 A 
ATOM     22  C   UNL     1       4.512   6.566  17.370  0.00  0.00    +0.000 A 
ATOM     23  C   UNL     1       5.048   6.265  16.109  0.00  0.00    +0.000 A 
ATOM     24  C   UNL     1       5.222   4.939  15.674  0.00  0.00    +0.000 A 
ATOM     25  C   UNL     1       4.783   3.927  16.547  0.00  0.00    +0.000 A 
ATOM     26  C   UNL     1       4.232   4.223  17.804  0.00  0.00    +0.000 A 
BRANCH  24  27
ATOM     27  C   UNL     1       5.882   4.622  14.380  0.00  0.00    +0.000 A 
ATOM     28  C   UNL     1       7.107   5.216  14.015  0.00  0.00    +0.000 A 
ATOM     29  C   UNL     1       7.749   4.902  12.812  0.00  0.00    +0.000 A 
ATOM     30  C   UNL     1       7.189   3.973  11.944  0.00  0.00    +0.000 A 
ATOM     31  C   UNL     1       5.981   3.367  12.276  0.00  0.00    +0.000 A 
ATOM     32  C   UNL     1       5.334   3.694  13.474  0.00  0.00    +0.000 A 
ENDBRANCH  24  27
ENDBRANCH  20  21
ENDBRANCH   2  20
TORSDOF 8
ENDMDL
MODEL 3
REMARK VINA RESULT:      -7.8      2.290      4.034
REMARK  Name = 
REMARK  9 active torsions:
REMARK  status: ('A' for Active; 'I' for Inactive)
REMARK    1  A    between atoms: C_1  and  N_2
REMARK    2  A    between atoms: C_4  and  C_5
REMARK    3  A    between atoms: C_5  and  C_6
REMARK    4  A    between atoms: C_6  and  C_7
REMARK    5  A    between atoms: C_6  and  N_9
REMARK    6  A    between atoms: C_7  and  S_8
REMARK    7  A    between atoms: C_10  and  C_12
REMARK    8  A    between atoms: C_12  and  C_13
REMARK    9  A    between atoms: C_16  and  C_17
REMARK                            x       y       z     vdW  Elec       q    Type
REMARK                         _______ _______ _______ _____ _____    ______ ____
ROOT
ATOM      1  N   UNL     1      -0.138  10.780  21.609  0.00  0.00    +0.000 N 
ATOM      2  C   UNL     1      -0.164   9.492  21.116  0.00  0.00    +0.000 C 
ATOM      3  O   UNL     1      -1.081   9.052  20.427  0.00  0.00    +0.000 OA
ATOM      4  H   UNL     1       0.607  11.065  22.233  0.00  0.00    +0.000 HD
ENDROOT
BRANCH   1   5
ATOM      5  C   UNL     1      -1.260  11.710  21.410  0.00  0.00    +0.000 C 
BRANCH   5   6
ATOM      6  C   UNL     1      -1.110  12.558  20.121  0.00  0.00    +0.000 C 
BRANCH   6  10
ATOM      7  C   UNL     1      -2.619  10.388  15.879  0.00  0.00    +0.000 C 
ATOM      8  N   UNL     1      -2.683  11.164  17.096  0.00  0.00    +0.000 N 
ATOM      9  C   UNL     1      -1.592  11.645  17.763  0.00  0.00    +0.000 A 
ATOM     10  C   UNL     1      -2.003  12.102  19.000  0.00  0.00    +0.000 A 
ATOM     11  C   UNL     1      -3.438  12.072  18.984  0.00  0.00    +0.000 A 
ATOM     12  C   UNL     1      -4.442  12.486  19.887  0.00  0.00    +0.000 A 
ATOM     13  C   UNL     1      -5.793  12.316  19.552  0.00  0.00    +0.000 A 
ATOM     14  C   UNL     1      -6.155  11.720  18.350  0.00  0.00    +0.000 A 
ATOM     15  C   UNL     1      -5.184  11.281  17.447  0.00  0.00    +0.000 A 
ATOM     16  C   UNL     1      -3.834  11.481  17.780  0.00  0.00    +0.000 A 
ENDBRANCH   6  10
ENDBRANCH   5   6
BRANCH   5  17
ATOM     17  C   UNL     1      -1.467  12.590  22.663  0.00  0.00    +0.000 C 
BRANCH  17  18
ATOM     18  S   UNL     1      -3.090  12.357  23.473  0.00  0.00    +0.000 S 
ATOM     19  H   UNL     1      -3.624  11.571  22.526  0.00  0.00    +0.000 HD
ENDBRANCH  17  18
ENDBRANCH   5  17
ENDBRANCH   1   5
BRANCH   2  20
ATOM     20  C   UNL     1       1.026   8.637  21.521  0.00  0.00    +0.000 C 
BRANCH  20  21
ATOM     21  C   UNL     1       1.671   7.866  20.394  0.00  0.00    +0.000 A 
ATOM     22  C   UNL     1       1.970   8.497  19.182  0.00  0.00    +0.000 A 
ATOM     23  C   UNL     1       2.685   7.824  18.181  0.00  0.00    +0.000 A 
ATOM     24  C   UNL     1       3.147   6.507  18.357  0.00  0.00    +0.000 A 
ATOM     25  C   UNL     1       2.810   5.877  19.569  0.00  0.00    +0.000 A 
ATOM     26  C   UNL     1       2.080   6.540  20.568  0.00  0.00    +0.000 A 
BRANCH  24  27
ATOM     27  C   UNL     1       3.992   5.833  17.334  0.00  0.00    +0.000 A 
ATOM     28  C   UNL     1       4.056   4.428  17.246  0.00  0.00    +0.000 A 
ATOM     29  C   UNL     1       4.826   3.786  16.268  0.00  0.00    +0.000 A 
ATOM     30  C   UNL     1       5.544   4.534  15.344  0.00  0.00    +0.000 A 
ATOM     31  C   UNL     1       5.500   5.923  15.404  0.00  0.00    +0.000 A 
ATOM     32  C   UNL     1       4.740   6.563  16.391  0.00  0.00    +0.000 A 
ENDBRANCH  24  27
ENDBRANCH  20  21
ENDBRANCH   2  20
TORSDOF 8
ENDMDL
MODEL 4
REMARK VINA RESULT:      -7.8      0.430      1.273
REMARK  Name = 
REMARK  9 active torsions:
REMARK  status: ('A' for Active; 'I' for Inactive)
REMARK    1  A    between atoms: C_1  and  N_2
REMARK    2  A    between atoms: C_4  and  C_5
REMARK    3  A    between atoms: C_5  and  C_6
REMARK    4  A    between atoms: C_6  and  C_7
REMARK    5  A    between atoms: C_6  and  N_9
REMARK    6  A    between atoms: C_7  and  S_8
REMARK    7  A    between atoms: C_10  and  C_12
REMARK    8  A    between atoms: C_12  and  C_13
REMARK    9  A    between atoms: C_16  and  C_17
REMARK                            x       y       z     vdW  Elec       q    Type
REMARK                         _______ _______ _______ _____ _____    ______ ____
ROOT
ATOM      1  N   UNL     1       2.766   7.317  19.424  0.00  0.00    +0.000 N 
ATOM      2  C   UNL     1       2.674   5.979  19.747  0.00  0.00    +0.000 C 
ATOM      3  O   UNL     1       1.610   5.415  19.987  0.00  0.00    +0.000 OA
ATOM      4  H   UNL     1       3.676   7.746  19.308  0.00  0.00    +0.000 HD
ENDROOT
BRANCH   1   5
ATOM      5  C   UNL     1       1.588   8.198  19.421  0.00  0.00    +0.000 C 
BRANCH   5   6
ATOM      6  C   UNL     1       1.631   9.248  18.282  0.00  0.00    +0.000 C 
BRANCH   6  10
ATOM      7  C   UNL     1       0.073  13.914  19.169  0.00  0.00    +0.000 C 
ATOM      8  N   UNL     1       0.008  12.489  18.940  0.00  0.00    +0.000 N 
ATOM      9  C   UNL     1       1.071  11.639  19.056  0.00  0.00    +0.000 A 
ATOM     10  C   UNL     1       0.715  10.418  18.515  0.00  0.00    +0.000 A 
ATOM     11  C   UNL     1      -0.693  10.492  18.248  0.00  0.00    +0.000 A 
ATOM     12  C   UNL     1      -1.658   9.569  17.788  0.00  0.00    +0.000 A 
ATOM     13  C   UNL     1      -2.992   9.971  17.640  0.00  0.00    +0.000 A 
ATOM     14  C   UNL     1      -3.373  11.280  17.917  0.00  0.00    +0.000 A 
ATOM     15  C   UNL     1      -2.437  12.220  18.353  0.00  0.00    +0.000 A 
ATOM     16  C   UNL     1      -1.107  11.799  18.524  0.00  0.00    +0.000 A 
ENDBRANCH   6  10
ENDBRANCH   5   6
BRANCH   5  17
ATOM     17  C   UNL     1       1.395   8.854  20.807  0.00  0.00    +0.000 C 
BRANCH  17  18
ATOM     18  S   UNL     1      -0.235   8.514  21.567  0.00  0.00    +0.000 S 
ATOM     19  H   UNL     1      -0.932   8.463  20.421  0.00  0.00    +0.000 HD
ENDBRANCH  17  18
ENDBRANCH   5  17
ENDBRANCH   1   5
BRANCH   2  20
ATOM     20  C   UNL     1       4.009   5.254  19.815  0.00  0.00    +0.000 C 
BRANCH  20  21
ATOM     21  C   UNL     1       4.632   4.937  18.477  0.00  0.00    +0.000 A 
ATOM     22  C   UNL     1       3.891   4.290  17.484  0.00  0.00    +0.000 A 
ATOM     23  C   UNL     1       4.419   4.109  16.197  0.00  0.00    +0.000 A 
ATOM     24  C   UNL     1       5.695   4.584  15.846  0.00  0.00    +0.000 A 
ATOM     25  C   UNL     1       6.440   5.204  16.866  0.00  0.00    +0.000 A 
ATOM     26  C   UNL     1       5.923   5.373  18.160  0.00  0.00    +0.000 A 
BRANCH  24  27
ATOM     27  C   UNL     1       6.211   4.481  14.454  0.00  0.00    +0.000 A 
ATOM     28  C   UNL     1       7.325   5.231  14.027  0.00  0.00    +0.000 A 
ATOM     29  C   UNL     1       7.834   5.118  12.727  0.00  0.00    +0.000 A 
ATOM     30  C   UNL     1       7.249   4.241  11.823  0.00  0.00    +0.000 A 
ATOM     31  C   UNL     1       6.148   3.485  12.215  0.00  0.00    +0.000 A 
ATOM     32  C   UNL     1       5.633   3.610  13.511  0.00  0.00    +0.000 A 
ENDBRANCH  24  27
ENDBRANCH  20  21
ENDBRANCH   2  20
TORSDOF 8
ENDMDL
MODEL 5
REMARK VINA RESULT:      -7.8      3.781      5.862
REMARK  Name = 
REMARK  9 active torsions:
REMARK  status: ('A' for Active; 'I' for Inactive)
REMARK    1  A    between atoms: C_1  and  N_2
REMARK    2  A    between atoms: C_4  and  C_5
REMARK    3  A    between atoms: C_5  and  C_6
REMARK    4  A    between atoms: C_6  and  C_7
REMARK    5  A    between atoms: C_6  and  N_9
REMARK    6  A    between atoms: C_7  and  S_8
REMARK    7  A    between atoms: C_10  and  C_12
REMARK    8  A    between atoms: C_12  and  C_13
REMARK    9  A    between atoms: C_16  and  C_17
REMARK                            x       y       z     vdW  Elec       q    Type
REMARK                         _______ _______ _______ _____ _____    ______ ____
ROOT
ATOM      1  N   UNL     1       4.401   4.807  19.045  0.00  0.00    +0.000 N 
ATOM      2  C   UNL     1       4.966   4.500  17.824  0.00  0.00    +0.000 C 
ATOM      3  O   UNL     1       4.305   4.260  16.817  0.00  0.00    +0.000 OA
ATOM      4  H   UNL     1       4.993   4.924  19.858  0.00  0.00    +0.000 HD
ENDROOT
BRANCH   1   5
ATOM      5  C   UNL     1       2.945   4.792  19.252  0.00  0.00    +0.000 C 
BRANCH   5   6
ATOM      6  C   UNL     1       2.501   5.699  20.429  0.00  0.00    +0.000 C 
BRANCH   6  10
ATOM      7  C   UNL     1       1.755   9.698  17.523  0.00  0.00    +0.000 C 
ATOM      8  N   UNL     1       1.814   8.889  18.719  0.00  0.00    +0.000 N 
ATOM      9  C   UNL     1       2.497   7.711  18.821  0.00  0.00    +0.000 A 
ATOM     10  C   UNL     1       2.123   7.091  19.999  0.00  0.00    +0.000 A 
ATOM     11  C   UNL     1       1.332   8.043  20.722  0.00  0.00    +0.000 A 
ATOM     12  C   UNL     1       0.738   8.061  22.003  0.00  0.00    +0.000 A 
ATOM     13  C   UNL     1       0.014   9.186  22.421  0.00  0.00    +0.000 A 
ATOM     14  C   UNL     1      -0.148  10.278  21.576  0.00  0.00    +0.000 A 
ATOM     15  C   UNL     1       0.409  10.281  20.295  0.00  0.00    +0.000 A 
ATOM     16  C   UNL     1       1.156   9.159  19.897  0.00  0.00    +0.000 A 
ENDBRANCH   6  10
ENDBRANCH   5   6
BRANCH   5  17
ATOM     17  C   UNL     1       2.432   3.343  19.411  0.00  0.00    +0.000 C 
BRANCH  17  18
ATOM     18  S   UNL     1       0.705   3.230  20.004  0.00  0.00    +0.000 S 
ATOM     19  H   UNL     1       0.244   2.474  18.995  0.00  0.00    +0.000 HD
ENDBRANCH  17  18
ENDBRANCH   5  17
ENDBRANCH   1   5
BRANCH   2  20
ATOM     20  C   UNL     1       6.485   4.448  17.828  0.00  0.00    +0.000 C 
BRANCH  20  21
ATOM     21  C   UNL     1       7.169   5.790  17.944  0.00  0.00    +0.000 A 
ATOM     22  C   UNL     1       6.876   6.816  17.042  0.00  0.00    +0.000 A 
ATOM     23  C   UNL     1       7.407   8.102  17.221  0.00  0.00    +0.000 A 
ATOM     24  C   UNL     1       8.232   8.417  18.316  0.00  0.00    +0.000 A 
ATOM     25  C   UNL     1       8.543   7.365  19.195  0.00  0.00    +0.000 A 
ATOM     26  C   UNL     1       8.027   6.072  19.012  0.00  0.00    +0.000 A 
BRANCH  24  27
ATOM     27  C   UNL     1       8.711   9.805  18.558  0.00  0.00    +0.000 A 
ATOM     28  C   UNL     1       9.504  10.123  19.678  0.00  0.00    +0.000 A 
ATOM     29  C   UNL     1       9.982  11.421  19.898  0.00  0.00    +0.000 A 
ATOM     30  C   UNL     1       9.690  12.434  18.995  0.00  0.00    +0.000 A 
ATOM     31  C   UNL     1       8.910  12.152  17.877  0.00  0.00    +0.000 A 
ATOM     32  C   UNL     1       8.422  10.857  17.667  0.00  0.00    +0.000 A 
ENDBRANCH  24  27
ENDBRANCH  20  21
ENDBRANCH   2  20
TORSDOF 8
ENDMDL
MODEL 6
REMARK VINA RESULT:      -7.8      2.371      9.628
REMARK  Name = 
REMARK  9 active torsions:
REMARK  status: ('A' for Active; 'I' for Inactive)
REMARK    1  A    between atoms: C_1  and  N_2
REMARK    2  A    between atoms: C_4  and  C_5
REMARK    3  A    between atoms: C_5  and  C_6
REMARK    4  A    between atoms: C_6  and  C_7
REMARK    5  A    between atoms: C_6  and  N_9
REMARK    6  A    between atoms: C_7  and  S_8
REMARK    7  A    between atoms: C_10  and  C_12
REMARK    8  A    between atoms: C_12  and  C_13
REMARK    9  A    between atoms: C_16  and  C_17
REMARK                            x       y       z     vdW  Elec       q    Type
REMARK                         _______ _______ _______ _____ _____    ______ ____
ROOT
ATOM      1  N   UNL     1       2.566   6.234  18.826  0.00  0.00    +0.000 N 
ATOM      2  C   UNL     1       2.076   7.278  19.583  0.00  0.00    +0.000 C 
ATOM      3  O   UNL     1       1.521   7.122  20.667  0.00  0.00    +0.000 OA
ATOM      4  H   UNL     1       2.948   6.416  17.905  0.00  0.00    +0.000 HD
ENDROOT
BRANCH   1   5
ATOM      5  C   UNL     1       2.387   4.831  19.230  0.00  0.00    +0.000 C 
BRANCH   5   6
ATOM      6  C   UNL     1       3.734   4.101  19.463  0.00  0.00    +0.000 C 
BRANCH   6  10
ATOM      7  C   UNL     1       8.060   6.506  18.759  0.00  0.00    +0.000 C 
ATOM      8  N   UNL     1       6.808   5.856  18.442  0.00  0.00    +0.000 N 
ATOM      9  C   UNL     1       5.814   5.615  19.347  0.00  0.00    +0.000 A 
ATOM     10  C   UNL     1       4.896   4.759  18.769  0.00  0.00    +0.000 A 
ATOM     11  C   UNL     1       5.264   4.648  17.386  0.00  0.00    +0.000 A 
ATOM     12  C   UNL     1       4.694   4.011  16.263  0.00  0.00    +0.000 A 
ATOM     13  C   UNL     1       5.321   4.107  15.013  0.00  0.00    +0.000 A 
ATOM     14  C   UNL     1       6.516   4.804  14.873  0.00  0.00    +0.000 A 
ATOM     15  C   UNL     1       7.116   5.425  15.970  0.00  0.00    +0.000 A 
ATOM     16  C   UNL     1       6.464   5.345  17.212  0.00  0.00    +0.000 A 
ENDBRANCH   6  10
ENDBRANCH   5   6
BRANCH   5  17
ATOM     17  C   UNL     1       1.489   4.083  18.219  0.00  0.00    +0.000 C 
BRANCH  17  18
ATOM     18  S   UNL     1       0.936   2.437  18.795  0.00  0.00    +0.000 S 
ATOM     19  H   UNL     1      -0.314   2.799  19.120  0.00  0.00    +0.000 HD
ENDBRANCH  17  18
ENDBRANCH   5  17
ENDBRANCH   1   5
BRANCH   2  20
ATOM     20  C   UNL     1       2.248   8.650  18.951  0.00  0.00    +0.000 C 
BRANCH  20  21
ATOM     21  C   UNL     1       0.976   9.450  18.806  0.00  0.00    +0.000 A 
ATOM     22  C   UNL     1       0.210   9.361  17.639  0.00  0.00    +0.000 A 
ATOM     23  C   UNL     1      -1.036   9.998  17.549  0.00  0.00    +0.000 A 
ATOM     24  C   UNL     1      -1.574  10.730  18.623  0.00  0.00    +0.000 A 
ATOM     25  C   UNL     1      -0.776  10.836  19.776  0.00  0.00    +0.000 A 
ATOM     26  C   UNL     1       0.479  10.214  19.866  0.00  0.00    +0.000 A 
BRANCH  24  27
ATOM     27  C   UNL     1      -2.939  11.318  18.560  0.00  0.00    +0.000 A 
ATOM     28  C   UNL     1      -3.451  12.100  19.615  0.00  0.00    +0.000 A 
ATOM     29  C   UNL     1      -4.723  12.681  19.551  0.00  0.00    +0.000 A 
ATOM     30  C   UNL     1      -5.514  12.506  18.423  0.00  0.00    +0.000 A 
ATOM     31  C   UNL     1      -5.037  11.741  17.363  0.00  0.00    +0.000 A 
ATOM     32  C   UNL     1      -3.770  11.149  17.435  0.00  0.00    +0.000 A 
ENDBRANCH  24  27
ENDBRANCH  20  21
ENDBRANCH   2  20
TORSDOF 8
ENDMDL
MODEL 7
REMARK VINA RESULT:      -7.8      3.785      5.783
REMARK  Name = 
REMARK  9 active torsions:
REMARK  status: ('A' for Active; 'I' for Inactive)
REMARK    1  A    between atoms: C_1  and  N_2
REMARK    2  A    between atoms: C_4  and  C_5
REMARK    3  A    between atoms: C_5  and  C_6
REMARK    4  A    between atoms: C_6  and  C_7
REMARK    5  A    between atoms: C_6  and  N_9
REMARK    6  A    between atoms: C_7  and  S_8
REMARK    7  A    between atoms: C_10  and  C_12
REMARK    8  A    between atoms: C_12  and  C_13
REMARK    9  A    between atoms: C_16  and  C_17
REMARK                            x       y       z     vdW  Elec       q    Type
REMARK                         _______ _______ _______ _____ _____    ______ ____
ROOT
ATOM      1  N   UNL     1      -0.183  11.323  20.583  0.00  0.00    +0.000 N 
ATOM      2  C   UNL     1      -0.239  10.730  19.339  0.00  0.00    +0.000 C 
ATOM      3  O   UNL     1      -1.286  10.353  18.818  0.00  0.00    +0.000 OA
ATOM      4  H   UNL     1       0.715  11.547  20.994  0.00  0.00    +0.000 HD
ENDROOT
BRANCH   1   5
ATOM      5  C   UNL     1      -1.380  11.478  21.424  0.00  0.00    +0.000 C 
BRANCH   5   6
ATOM      6  C   UNL     1      -2.082  12.844  21.215  0.00  0.00    +0.000 C 
BRANCH   6  10
ATOM      7  C   UNL     1      -6.434  11.863  18.959  0.00  0.00    +0.000 C 
ATOM      8  N   UNL     1      -5.510  12.317  19.974  0.00  0.00    +0.000 N 
ATOM      9  C   UNL     1      -4.185  12.566  19.756  0.00  0.00    +0.000 A 
ATOM     10  C   UNL     1      -3.563  12.722  20.980  0.00  0.00    +0.000 A 
ATOM     11  C   UNL     1      -4.610  12.765  21.961  0.00  0.00    +0.000 A 
ATOM     12  C   UNL     1      -4.646  12.991  23.355  0.00  0.00    +0.000 A 
ATOM     13  C   UNL     1      -5.872  12.974  24.032  0.00  0.00    +0.000 A 
ATOM     14  C   UNL     1      -7.055  12.711  23.350  0.00  0.00    +0.000 A 
ATOM     15  C   UNL     1      -7.048  12.463  21.976  0.00  0.00    +0.000 A 
ATOM     16  C   UNL     1      -5.816  12.509  21.301  0.00  0.00    +0.000 A 
ENDBRANCH   6  10
ENDBRANCH   5   6
BRANCH   5  17
ATOM     17  C   UNL     1      -1.039  11.222  22.909  0.00  0.00    +0.000 C 
BRANCH  17  18
ATOM     18  S   UNL     1      -0.241   9.605  23.218  0.00  0.00    +0.000 S 
ATOM     19  H   UNL     1       0.974   9.941  22.759  0.00  0.00    +0.000 HD
ENDBRANCH  17  18
ENDBRANCH   5  17
ENDBRANCH   1   5
BRANCH   2  20
ATOM     20  C   UNL     1       1.112  10.547  18.666  0.00  0.00    +0.000 C 
BRANCH  20  21
ATOM     21  C   UNL     1       1.704   9.163  18.788  0.00  0.00    +0.000 A 
ATOM     22  C   UNL     1       1.567   8.435  19.974  0.00  0.00    +0.000 A 
ATOM     23  C   UNL     1       1.999   7.103  20.051  0.00  0.00    +0.000 A 
ATOM     24  C   UNL     1       2.564   6.441  18.946  0.00  0.00    +0.000 A 
ATOM     25  C   UNL     1       2.724   7.199  17.772  0.00  0.00    +0.000 A 
ATOM     26  C   UNL     1       2.308   8.537  17.694  0.00  0.00    +0.000 A 
BRANCH  24  27
ATOM     27  C   UNL     1       2.927   4.999  19.002  0.00  0.00    +0.000 A 
ATOM     28  C   UNL     1       4.237   4.584  19.313  0.00  0.00    +0.000 A 
ATOM     29  C   UNL     1       4.580   3.229  19.396  0.00  0.00    +0.000 A 
ATOM     30  C   UNL     1       3.617   2.252  19.180  0.00  0.00    +0.000 A 
ATOM     31  C   UNL     1       2.314   2.629  18.872  0.00  0.00    +0.000 A 
ATOM     32  C   UNL     1       1.977   3.985  18.777  0.00  0.00    +0.000 A 
ENDBRANCH  24  27
ENDBRANCH  20  21
ENDBRANCH   2  20
TORSDOF 8
ENDMDL
MODEL 8
REMARK VINA RESULT:      -7.7      2.629      9.856
REMARK  Name = 
REMARK  9 active torsions:
REMARK  status: ('A' for Active; 'I' for Inactive)
REMARK    1  A    between atoms: C_1  and  N_2
REMARK    2  A    between atoms: C_4  and  C_5
REMARK    3  A    between atoms: C_5  and  C_6
REMARK    4  A    between atoms: C_6  and  C_7
REMARK    5  A    between atoms: C_6  and  N_9
REMARK    6  A    between atoms: C_7  and  S_8
REMARK    7  A    between atoms: C_10  and  C_12
REMARK    8  A    between atoms: C_12  and  C_13
REMARK    9  A    between atoms: C_16  and  C_17
REMARK                            x       y       z     vdW  Elec       q    Type
REMARK                         _______ _______ _______ _____ _____    ______ ____
ROOT
ATOM      1  N   UNL     1       2.298   5.377  18.057  0.00  0.00    +0.000 N 
ATOM      2  C   UNL     1       2.649   6.558  18.679  0.00  0.00    +0.000 C 
ATOM      3  O   UNL     1       3.244   6.603  19.752  0.00  0.00    +0.000 OA
ATOM      4  H   UNL     1       1.744   5.401  17.209  0.00  0.00    +0.000 HD
ENDROOT
BRANCH   1   5
ATOM      5  C   UNL     1       2.542   4.069  18.681  0.00  0.00    +0.000 C 
BRANCH   5   6
ATOM      6  C   UNL     1       3.373   3.122  17.776  0.00  0.00    +0.000 C 
BRANCH   6  10
ATOM      7  C   UNL     1       6.494   5.068  14.391  0.00  0.00    +0.000 C 
ATOM      8  N   UNL     1       5.998   4.626  15.674  0.00  0.00    +0.000 N 
ATOM      9  C   UNL     1       4.942   3.776  15.842  0.00  0.00    +0.000 A 
ATOM     10  C   UNL     1       4.585   3.783  17.177  0.00  0.00    +0.000 A 
ATOM     11  C   UNL     1       5.606   4.520  17.864  0.00  0.00    +0.000 A 
ATOM     12  C   UNL     1       5.871   4.807  19.221  0.00  0.00    +0.000 A 
ATOM     13  C   UNL     1       6.993   5.572  19.566  0.00  0.00    +0.000 A 
ATOM     14  C   UNL     1       7.837   6.075  18.582  0.00  0.00    +0.000 A 
ATOM     15  C   UNL     1       7.589   5.826  17.231  0.00  0.00    +0.000 A 
ATOM     16  C   UNL     1       6.477   5.035  16.898  0.00  0.00    +0.000 A 
ENDBRANCH   6  10
ENDBRANCH   5   6
BRANCH   5  17
ATOM     17  C   UNL     1       1.213   3.422  19.131  0.00  0.00    +0.000 C 
BRANCH  17  18
ATOM     18  S   UNL     1       1.200   2.896  20.883  0.00  0.00    +0.000 S 
ATOM     19  H   UNL     1       0.107   2.122  20.804  0.00  0.00    +0.000 HD
ENDBRANCH  17  18
ENDBRANCH   5  17
ENDBRANCH   1   5
BRANCH   2  20
ATOM     20  C   UNL     1       2.211   7.813  17.942  0.00  0.00    +0.000 C 
BRANCH  20  21
ATOM     21  C   UNL     1       1.448   8.812  18.779  0.00  0.00    +0.000 A 
ATOM     22  C   UNL     1       0.772   9.876  18.174  0.00  0.00    +0.000 A 
ATOM     23  C   UNL     1      -0.045  10.729  18.930  0.00  0.00    +0.000 A 
ATOM     24  C   UNL     1      -0.234  10.543  20.312  0.00  0.00    +0.000 A 
ATOM     25  C   UNL     1       0.479   9.488  20.909  0.00  0.00    +0.000 A 
ATOM     26  C   UNL     1       1.310   8.640  20.160  0.00  0.00    +0.000 A 
BRANCH  24  27
ATOM     27  C   UNL     1      -1.179  11.387  21.091  0.00  0.00    +0.000 A 
ATOM     28  C   UNL     1      -1.176  11.384  22.500  0.00  0.00    +0.000 A 
ATOM     29  C   UNL     1      -2.042  12.197  23.240  0.00  0.00    +0.000 A 
ATOM     30  C   UNL     1      -2.929  13.045  22.590  0.00  0.00    +0.000 A 
ATOM     31  C   UNL     1      -2.955  13.073  21.199  0.00  0.00    +0.000 A 
ATOM     32  C   UNL     1      -2.097  12.249  20.461  0.00  0.00    +0.000 A 
ENDBRANCH  24  27
ENDBRANCH  20  21
ENDBRANCH   2  20
TORSDOF 8
ENDMDL
MODEL 9
REMARK VINA RESULT:      -7.7      2.560      9.602
REMARK  Name = 
REMARK  9 active torsions:
REMARK  status: ('A' for Active; 'I' for Inactive)
REMARK    1  A    between atoms: C_1  and  N_2
REMARK    2  A    between atoms: C_4  and  C_5
REMARK    3  A    between atoms: C_5  and  C_6
REMARK    4  A    between atoms: C_6  and  C_7
REMARK    5  A    between atoms: C_6  and  N_9
REMARK    6  A    between atoms: C_7  and  S_8
REMARK    7  A    between atoms: C_10  and  C_12
REMARK    8  A    between atoms: C_12  and  C_13
REMARK    9  A    between atoms: C_16  and  C_17
REMARK                            x       y       z     vdW  Elec       q    Type
REMARK                         _______ _______ _______ _____ _____    ______ ____
ROOT
ATOM      1  N   UNL     1       2.386   5.932  18.616  0.00  0.00    +0.000 N 
ATOM      2  C   UNL     1       2.199   7.267  18.907  0.00  0.00    +0.000 C 
ATOM      3  O   UNL     1       2.214   7.717  20.050  0.00  0.00    +0.000 OA
ATOM      4  H   UNL     1       2.290   5.606  17.661  0.00  0.00    +0.000 HD
ENDROOT
BRANCH   1   5
ATOM      5  C   UNL     1       2.539   4.921  19.673  0.00  0.00    +0.000 C 
BRANCH   5   6
ATOM      6  C   UNL     1       3.702   3.935  19.390  0.00  0.00    +0.000 C 
BRANCH   6  10
ATOM      7  C   UNL     1       8.111   6.247  18.933  0.00  0.00    +0.000 C 
ATOM      8  N   UNL     1       6.852   5.650  18.549  0.00  0.00    +0.000 N 
ATOM      9  C   UNL     1       5.824   5.393  19.411  0.00  0.00    +0.000 A 
ATOM     10  C   UNL     1       4.902   4.593  18.764  0.00  0.00    +0.000 A 
ATOM     11  C   UNL     1       5.309   4.539  17.389  0.00  0.00    +0.000 A 
ATOM     12  C   UNL     1       4.756   3.975  16.219  0.00  0.00    +0.000 A 
ATOM     13  C   UNL     1       5.423   4.114  14.995  0.00  0.00    +0.000 A 
ATOM     14  C   UNL     1       6.641   4.782  14.924  0.00  0.00    +0.000 A 
ATOM     15  C   UNL     1       7.223   5.332  16.068  0.00  0.00    +0.000 A 
ATOM     16  C   UNL     1       6.532   5.210  17.285  0.00  0.00    +0.000 A 
ENDBRANCH   6  10
ENDBRANCH   5   6
BRANCH   5  17
ATOM     17  C   UNL     1       1.204   4.186  19.922  0.00  0.00    +0.000 C 
BRANCH  17  18
ATOM     18  S   UNL     1       0.966   2.705  18.875  0.00  0.00    +0.000 S 
ATOM     19  H   UNL     1       0.962   1.808  19.872  0.00  0.00    +0.000 HD
ENDBRANCH  17  18
ENDBRANCH   5  17
ENDBRANCH   1   5
BRANCH   2  20
ATOM     20  C   UNL     1       1.938   8.146  17.694  0.00  0.00    +0.000 C 
BRANCH  20  21
ATOM     21  C   UNL     1       1.458   9.543  18.009  0.00  0.00    +0.000 A 
ATOM     22  C   UNL     1       0.133   9.768  18.395  0.00  0.00    +0.000 A 
ATOM     23  C   UNL     1      -0.286  11.039  18.815  0.00  0.00    +0.000 A 
ATOM     24  C   UNL     1       0.604  12.127  18.885  0.00  0.00    +0.000 A 
ATOM     25  C   UNL     1       1.924  11.890  18.462  0.00  0.00    +0.000 A 
ATOM     26  C   UNL     1       2.344  10.624  18.026  0.00  0.00    +0.000 A 
BRANCH  24  27
ATOM     27  C   UNL     1       0.181  13.447  19.426  0.00  0.00    +0.000 A 
ATOM     28  C   UNL     1       1.049  14.556  19.417  0.00  0.00    +0.000 A 
ATOM     29  C   UNL     1       0.649  15.809  19.897  0.00  0.00    +0.000 A 
ATOM     30  C   UNL     1      -0.636  15.988  20.390  0.00  0.00    +0.000 A 
ATOM     31  C   UNL     1      -1.519  14.913  20.412  0.00  0.00    +0.000 A 
ATOM     32  C   UNL     1      -1.112  13.658  19.943  0.00  0.00    +0.000 A 
ENDBRANCH  24  27
ENDBRANCH  20  21
ENDBRANCH   2  20
TORSDOF 8
ENDMDL
