MODEL 1
REMARK VINA RESULT:      -8.6      0.000      0.000
REMARK  Name = 
REMARK  6 active torsions:
REMARK  status: ('A' for Active; 'I' for Inactive)
REMARK    1  A    between atoms: C_2  and  C_3
REMARK    2  A    between atoms: C_3  and  C_11
REMARK    3  A    between atoms: C_4  and  C_5
REMARK    4  A    between atoms: C_17  and  O_18
REMARK    5  A    between atoms: O_18  and  C_19
REMARK    6  A    between atoms: C_19  and  C_20
REMARK                            x       y       z     vdW  Elec       q    Type
REMARK                         _______ _______ _______ _____ _____    ______ ____
ROOT
ATOM      1  C   UNL     1       4.128   3.548  18.131  0.00  0.00    +0.000 A 
ATOM      2  C   UNL     1       3.690   2.276  18.443  0.00  0.00    +0.000 A 
ATOM      3  N   UNL     1       2.670   2.385  19.357  0.00  0.00    +0.000 N 
ATOM      4  C   UNL     1       2.422   3.709  19.634  0.00  0.00    +0.000 A 
ATOM      5  C   UNL     1       1.464   4.305  20.464  0.00  0.00    +0.000 A 
ATOM      6  C   UNL     1       1.432   5.706  20.513  0.00  0.00    +0.000 A 
ATOM      7  C   UNL     1       2.321   6.473  19.766  0.00  0.00    +0.000 A 
ATOM      8  C   UNL     1       3.301   5.852  18.995  0.00  0.00    +0.000 A 
ATOM      9  C   UNL     1       3.342   4.453  18.897  0.00  0.00    +0.000 A 
ATOM     10  H   UNL     1       2.157   1.610  19.756  0.00  0.00    +0.000 HD
ENDROOT
BRANCH   1  11
ATOM     11  C   UNL     1       5.138   3.882  17.165  0.00  0.00    +0.000 C 
ATOM     12  C   UNL     1       4.897   3.883  15.834  0.00  0.00    +0.000 C 
BRANCH  12  13
ATOM     13  C   UNL     1       5.866   4.238  14.790  0.00  0.00    +0.000 A 
ATOM     14  C   UNL     1       5.794   3.688  13.511  0.00  0.00    +0.000 A 
ATOM     15  C   UNL     1       6.738   4.054  12.549  0.00  0.00    +0.000 A 
ATOM     16  C   UNL     1       7.722   4.963  12.903  0.00  0.00    +0.000 A 
ATOM     17  N   UNL     1       7.816   5.524  14.127  0.00  0.00    +0.000 NA
ATOM     18  C   UNL     1       6.891   5.146  15.042  0.00  0.00    +0.000 A 
ENDBRANCH  12  13
BRANCH  11  20
ATOM     19  N   UNL     1       7.692   4.553  18.039  0.00  0.00    +0.000 NA
ATOM     20  C   UNL     1       6.534   4.248  17.642  0.00  0.00    +0.000 C 
ENDBRANCH  11  20
ENDBRANCH   1  11
BRANCH   7  21
ATOM     21  O   UNL     1       2.167   7.832  19.820  0.00  0.00    +0.000 OA
BRANCH  21  22
ATOM     22  C   UNL     1       1.389   8.288  20.934  0.00  0.00    +0.000 C 
BRANCH  22  23
ATOM     23  C   UNL     1       0.575   9.463  20.486  0.00  0.00    +0.000 A 
ATOM     24  C   UNL     1      -0.116  10.248  21.416  0.00  0.00    +0.000 A 
ATOM     25  C   UNL     1      -0.894  11.318  20.982  0.00  0.00    +0.000 A 
ATOM     26  C   UNL     1      -0.986  11.607  19.622  0.00  0.00    +0.000 A 
ATOM     27  C   UNL     1      -0.297  10.830  18.690  0.00  0.00    +0.000 A 
ATOM     28  C   UNL     1       0.480   9.762  19.121  0.00  0.00    +0.000 A 
ENDBRANCH  22  23
ENDBRANCH  21  22
ENDBRANCH   7  21
TORSDOF 6
ENDMDL
MODEL 2
REMARK VINA RESULT:      -8.6      1.121      1.396
REMARK  Name = 
REMARK  6 active torsions:
REMARK  status: ('A' for Active; 'I' for Inactive)
REMARK    1  A    between atoms: C_2  and  C_3
REMARK    2  A    between atoms: C_3  and  C_11
REMARK    3  A    between atoms: C_4  and  C_5
REMARK    4  A    between atoms: C_17  and  O_18
REMARK    5  A    between atoms: O_18  and  C_19
REMARK    6  A    between atoms: C_19  and  C_20
REMARK                            x       y       z     vdW  Elec       q    Type
REMARK                         _______ _______ _______ _____ _____    ______ ____
ROOT
ATOM      1  C   UNL     1       4.547   4.308  18.348  0.00  0.00    +0.000 A 
ATOM      2  C   UNL     1       4.324   3.224  19.175  0.00  0.00    +0.000 A 
ATOM      3  N   UNL     1       3.340   3.564  20.071  0.00  0.00    +0.000 N 
ATOM      4  C   UNL     1       2.904   4.845  19.832  0.00  0.00    +0.000 A 
ATOM      5  C   UNL     1       1.902   5.600  20.455  0.00  0.00    +0.000 A 
ATOM      6  C   UNL     1       1.657   6.888  19.957  0.00  0.00    +0.000 A 
ATOM      7  C   UNL     1       2.384   7.394  18.884  0.00  0.00    +0.000 A 
ATOM      8  C   UNL     1       3.414   6.643  18.322  0.00  0.00    +0.000 A 
ATOM      9  C   UNL     1       3.665   5.339  18.775  0.00  0.00    +0.000 A 
ATOM     10  H   UNL     1       2.969   2.956  20.791  0.00  0.00    +0.000 HD
ENDROOT
BRANCH   1  11
ATOM     11  C   UNL     1       5.451   4.348  17.232  0.00  0.00    +0.000 C 
ATOM     12  C   UNL     1       5.021   4.419  15.952  0.00  0.00    +0.000 C 
BRANCH  12  13
ATOM     13  C   UNL     1       5.879   4.491  14.763  0.00  0.00    +0.000 A 
ATOM     14  C   UNL     1       5.645   3.694  13.644  0.00  0.00    +0.000 A 
ATOM     15  C   UNL     1       6.489   3.796  12.536  0.00  0.00    +0.000 A 
ATOM     16  C   UNL     1       7.540   4.698  12.588  0.00  0.00    +0.000 A 
ATOM     17  N   UNL     1       7.790   5.493  13.649  0.00  0.00    +0.000 NA
ATOM     18  C   UNL     1       6.960   5.369  14.712  0.00  0.00    +0.000 A 
ENDBRANCH  12  13
BRANCH  11  20
ATOM     19  N   UNL     1       8.193   4.278  17.695  0.00  0.00    +0.000 NA
ATOM     20  C   UNL     1       6.950   4.309  17.484  0.00  0.00    +0.000 C 
ENDBRANCH  11  20
ENDBRANCH   1  11
BRANCH   7  21
ATOM     21  O   UNL     1       2.026   8.630  18.418  0.00  0.00    +0.000 OA
BRANCH  21  22
ATOM     22  C   UNL     1       1.394   9.464  19.398  0.00  0.00    +0.000 C 
BRANCH  22  23
ATOM     23  C   UNL     1       0.244  10.166  18.745  0.00  0.00    +0.000 A 
ATOM     24  C   UNL     1      -0.044  11.501  19.051  0.00  0.00    +0.000 A 
ATOM     25  C   UNL     1      -1.136  12.130  18.460  0.00  0.00    +0.000 A 
ATOM     26  C   UNL     1      -1.943  11.433  17.563  0.00  0.00    +0.000 A 
ATOM     27  C   UNL     1      -1.658  10.102  17.250  0.00  0.00    +0.000 A 
ATOM     28  C   UNL     1      -0.569   9.472  17.840  0.00  0.00    +0.000 A 
ENDBRANCH  22  23
ENDBRANCH  21  22
ENDBRANCH   7  21
TORSDOF 6
ENDMDL
MODEL 3
REMARK VINA RESULT:      -8.6      1.190      1.664
REMARK  Name = 
REMARK  6 active torsions:
REMARK  status: ('A' for Active; 'I' for Inactive)
REMARK    1  A    between atoms: C_2  and  C_3
REMARK    2  A    between atoms: C_3  and  C_11
REMARK    3  A    between atoms: C_4  and  C_5
REMARK    4  A    between atoms: C_17  and  O_18
REMARK    5  A    between atoms: O_18  and  C_19
REMARK    6  A    between atoms: C_19  and  C_20
REMARK                            x       y       z     vdW  Elec       q    Type
REMARK                         _______ _______ _______ _____ _____    ______ ____
ROOT
ATOM      1  C   UNL     1       3.756   3.989  17.582  0.00  0.00    +0.000 A 
ATOM      2  C   UNL     1       3.330   2.681  17.717  0.00  0.00    +0.000 A 
ATOM      3  N   UNL     1       2.467   2.620  18.784  0.00  0.00    +0.000 N 
ATOM      4  C   UNL     1       2.306   3.868  19.335  0.00  0.00    +0.000 A 
ATOM      5  C   UNL     1       1.506   4.300  20.401  0.00  0.00    +0.000 A 
ATOM      6  C   UNL     1       1.527   5.667  20.714  0.00  0.00    +0.000 A 
ATOM      7  C   UNL     1       2.315   6.559  19.992  0.00  0.00    +0.000 A 
ATOM      8  C   UNL     1       3.145   6.091  18.976  0.00  0.00    +0.000 A 
ATOM      9  C   UNL     1       3.126   4.736  18.615  0.00  0.00    +0.000 A 
ATOM     10  H   UNL     1       1.995   1.784  19.107  0.00  0.00    +0.000 HD
ENDROOT
BRANCH   1  11
ATOM     11  C   UNL     1       4.617   4.495  16.549  0.00  0.00    +0.000 C 
ATOM     12  C   UNL     1       5.271   3.684  15.686  0.00  0.00    +0.000 C 
BRANCH  12  13
ATOM     13  C   UNL     1       6.143   4.125  14.591  0.00  0.00    +0.000 A 
ATOM     14  C   UNL     1       5.941   3.698  13.280  0.00  0.00    +0.000 A 
ATOM     15  C   UNL     1       6.797   4.143  12.271  0.00  0.00    +0.000 A 
ATOM     16  C   UNL     1       7.827   5.006  12.611  0.00  0.00    +0.000 A 
ATOM     17  N   UNL     1       8.045   5.449  13.866  0.00  0.00    +0.000 NA
ATOM     18  C   UNL     1       7.204   4.997  14.826  0.00  0.00    +0.000 A 
ENDBRANCH  12  13
BRANCH  11  20
ATOM     19  N   UNL     1       4.970   7.242  16.290  0.00  0.00    +0.000 NA
ATOM     20  C   UNL     1       4.809   5.997  16.408  0.00  0.00    +0.000 C 
ENDBRANCH  11  20
ENDBRANCH   1  11
BRANCH   7  21
ATOM     21  O   UNL     1       2.215   7.884  20.320  0.00  0.00    +0.000 OA
BRANCH  21  22
ATOM     22  C   UNL     1       1.088   8.548  19.731  0.00  0.00    +0.000 C 
BRANCH  22  23
ATOM     23  C   UNL     1       0.399   9.338  20.802  0.00  0.00    +0.000 A 
ATOM     24  C   UNL     1      -0.241  10.545  20.498  0.00  0.00    +0.000 A 
ATOM     25  C   UNL     1      -0.849  11.283  21.508  0.00  0.00    +0.000 A 
ATOM     26  C   UNL     1      -0.821  10.823  22.823  0.00  0.00    +0.000 A 
ATOM     27  C   UNL     1      -0.186   9.618  23.133  0.00  0.00    +0.000 A 
ATOM     28  C   UNL     1       0.422   8.879  22.125  0.00  0.00    +0.000 A 
ENDBRANCH  22  23
ENDBRANCH  21  22
ENDBRANCH   7  21
TORSDOF 6
ENDMDL
MODEL 4
REMARK VINA RESULT:      -8.6      1.972      3.305
REMARK  Name = 
REMARK  6 active torsions:
REMARK  status: ('A' for Active; 'I' for Inactive)
REMARK    1  A    between atoms: C_2  and  C_3
REMARK    2  A    between atoms: C_3  and  C_11
REMARK    3  A    between atoms: C_4  and  C_5
REMARK    4  A    between atoms: C_17  and  O_18
REMARK    5  A    between atoms: O_18  and  C_19
REMARK    6  A    between atoms: C_19  and  C_20
REMARK                            x       y       z     vdW  Elec       q    Type
REMARK                         _______ _______ _______ _____ _____    ______ ____
ROOT
ATOM      1  C   UNL     1       2.887   5.873  19.452  0.00  0.00    +0.000 A 
ATOM      2  C   UNL     1       2.654   5.182  20.626  0.00  0.00    +0.000 A 
ATOM      3  N   UNL     1       1.877   5.969  21.440  0.00  0.00    +0.000 N 
ATOM      4  C   UNL     1       1.582   7.155  20.810  0.00  0.00    +0.000 A 
ATOM      5  C   UNL     1       0.799   8.240  21.226  0.00  0.00    +0.000 A 
ATOM      6  C   UNL     1       0.652   9.312  20.333  0.00  0.00    +0.000 A 
ATOM      7  C   UNL     1       1.262   9.296  19.083  0.00  0.00    +0.000 A 
ATOM      8  C   UNL     1       2.083   8.230  18.721  0.00  0.00    +0.000 A 
ATOM      9  C   UNL     1       2.227   7.127  19.575  0.00  0.00    +0.000 A 
ATOM     10  H   UNL     1       1.546   5.711  22.361  0.00  0.00    +0.000 HD
ENDROOT
BRANCH   1  11
ATOM     11  C   UNL     1       3.602   5.380  18.308  0.00  0.00    +0.000 C 
ATOM     12  C   UNL     1       4.754   5.941  17.874  0.00  0.00    +0.000 C 
BRANCH  12  13
ATOM     13  C   UNL     1       5.554   5.479  16.733  0.00  0.00    +0.000 A 
ATOM     14  C   UNL     1       5.148   5.703  15.419  0.00  0.00    +0.000 A 
ATOM     15  C   UNL     1       5.942   5.244  14.365  0.00  0.00    +0.000 A 
ATOM     16  C   UNL     1       7.119   4.579  14.667  0.00  0.00    +0.000 A 
ATOM     17  N   UNL     1       7.549   4.355  15.926  0.00  0.00    +0.000 NA
ATOM     18  C   UNL     1       6.757   4.804  16.928  0.00  0.00    +0.000 A 
ENDBRANCH  12  13
BRANCH  11  20
ATOM     19  N   UNL     1       2.601   3.189  16.916  0.00  0.00    +0.000 NA
ATOM     20  C   UNL     1       3.056   4.183  17.546  0.00  0.00    +0.000 C 
ENDBRANCH  11  20
ENDBRANCH   1  11
BRANCH   7  21
ATOM     21  O   UNL     1       1.002  10.351  18.250  0.00  0.00    +0.000 OA
BRANCH  21  22
ATOM     22  C   UNL     1       0.118  11.331  18.809  0.00  0.00    +0.000 C 
BRANCH  22  23
ATOM     23  C   UNL     1      -1.258  11.079  18.273  0.00  0.00    +0.000 A 
ATOM     24  C   UNL     1      -2.350  11.824  18.732  0.00  0.00    +0.000 A 
ATOM     25  C   UNL     1      -3.628  11.556  18.249  0.00  0.00    +0.000 A 
ATOM     26  C   UNL     1      -3.821  10.546  17.308  0.00  0.00    +0.000 A 
ATOM     27  C   UNL     1      -2.735   9.801  16.844  0.00  0.00    +0.000 A 
ATOM     28  C   UNL     1      -1.459  10.067  17.326  0.00  0.00    +0.000 A 
ENDBRANCH  22  23
ENDBRANCH  21  22
ENDBRANCH   7  21
TORSDOF 6
ENDMDL
MODEL 5
REMARK VINA RESULT:      -8.5      2.771      7.754
REMARK  Name = 
REMARK  6 active torsions:
REMARK  status: ('A' for Active; 'I' for Inactive)
REMARK    1  A    between atoms: C_2  and  C_3
REMARK    2  A    between atoms: C_3  and  C_11
REMARK    3  A    between atoms: C_4  and  C_5
REMARK    4  A    between atoms: C_17  and  O_18
REMARK    5  A    between atoms: O_18  and  C_19
REMARK    6  A    between atoms: C_19  and  C_20
REMARK                            x       y       z     vdW  Elec       q    Type
REMARK                         _______ _______ _______ _____ _____    ______ ____
ROOT
ATOM      1  C   UNL     1       2.109   5.316  20.065  0.00  0.00    +0.000 A 
ATOM      2  C   UNL     1       1.836   4.444  21.102  0.00  0.00    +0.000 A 
ATOM      3  N   UNL     1       2.366   3.218  20.781  0.00  0.00    +0.000 N 
ATOM      4  C   UNL     1       2.997   3.279  19.561  0.00  0.00    +0.000 A 
ATOM      5  C   UNL     1       3.704   2.303  18.849  0.00  0.00    +0.000 A 
ATOM      6  C   UNL     1       4.276   2.681  17.625  0.00  0.00    +0.000 A 
ATOM      7  C   UNL     1       4.142   3.978  17.139  0.00  0.00    +0.000 A 
ATOM      8  C   UNL     1       3.383   4.911  17.841  0.00  0.00    +0.000 A 
ATOM      9  C   UNL     1       2.824   4.576  19.083  0.00  0.00    +0.000 A 
ATOM     10  H   UNL     1       2.323   2.391  21.364  0.00  0.00    +0.000 HD
ENDROOT
BRANCH   1  11
ATOM     11  C   UNL     1       1.786   6.716  20.031  0.00  0.00    +0.000 C 
ATOM     12  C   UNL     1       0.982   7.298  20.949  0.00  0.00    +0.000 C 
BRANCH  12  13
ATOM     13  C   UNL     1       0.628   8.722  20.997  0.00  0.00    +0.000 A 
ATOM     14  C   UNL     1      -0.268   9.282  20.089  0.00  0.00    +0.000 A 
ATOM     15  C   UNL     1      -0.574  10.642  20.171  0.00  0.00    +0.000 A 
ATOM     16  C   UNL     1       0.029  11.395  21.167  0.00  0.00    +0.000 A 
ATOM     17  N   UNL     1       0.892  10.884  22.070  0.00  0.00    +0.000 NA
ATOM     18  C   UNL     1       1.175   9.564  21.963  0.00  0.00    +0.000 A 
ENDBRANCH  12  13
BRANCH  11  20
ATOM     19  N   UNL     1       2.841   8.310  18.010  0.00  0.00    +0.000 NA
ATOM     20  C   UNL     1       2.362   7.587  18.926  0.00  0.00    +0.000 C 
ENDBRANCH  11  20
ENDBRANCH   1  11
BRANCH   7  21
ATOM     21  O   UNL     1       4.796   4.276  15.974  0.00  0.00    +0.000 OA
BRANCH  21  22
ATOM     22  C   UNL     1       6.211   4.052  16.024  0.00  0.00    +0.000 C 
BRANCH  22  23
ATOM     23  C   UNL     1       6.816   5.079  16.931  0.00  0.00    +0.000 A 
ATOM     24  C   UNL     1       6.816   6.433  16.576  0.00  0.00    +0.000 A 
ATOM     25  C   UNL     1       7.410   7.372  17.414  0.00  0.00    +0.000 A 
ATOM     26  C   UNL     1       8.006   6.966  18.607  0.00  0.00    +0.000 A 
ATOM     27  C   UNL     1       8.006   5.618  18.968  0.00  0.00    +0.000 A 
ATOM     28  C   UNL     1       7.414   4.678  18.133  0.00  0.00    +0.000 A 
ENDBRANCH  22  23
ENDBRANCH  21  22
ENDBRANCH   7  21
TORSDOF 6
ENDMDL
MODEL 6
REMARK VINA RESULT:      -8.5      0.641      1.074
REMARK  Name = 
REMARK  6 active torsions:
REMARK  status: ('A' for Active; 'I' for Inactive)
REMARK    1  A    between atoms: C_2  and  C_3
REMARK    2  A    between atoms: C_3  and  C_11
REMARK    3  A    between atoms: C_4  and  C_5
REMARK    4  A    between atoms: C_17  and  O_18
REMARK    5  A    between atoms: O_18  and  C_19
REMARK    6  A    between atoms: C_19  and  C_20
REMARK                            x       y       z     vdW  Elec       q    Type
REMARK                         _______ _______ _______ _____ _____    ______ ____
ROOT
ATOM      1  C   UNL     1       4.092   3.600  18.178  0.00  0.00    +0.000 A 
ATOM      2  C   UNL     1       3.600   2.337  18.446  0.00  0.00    +0.000 A 
ATOM      3  N   UNL     1       2.592   2.456  19.371  0.00  0.00    +0.000 N 
ATOM      4  C   UNL     1       2.403   3.778  19.697  0.00  0.00    +0.000 A 
ATOM      5  C   UNL     1       1.477   4.384  20.556  0.00  0.00    +0.000 A 
ATOM      6  C   UNL     1       1.506   5.782  20.658  0.00  0.00    +0.000 A 
ATOM      7  C   UNL     1       2.424   6.537  19.933  0.00  0.00    +0.000 A 
ATOM      8  C   UNL     1       3.371   5.904  19.132  0.00  0.00    +0.000 A 
ATOM      9  C   UNL     1       3.350   4.509  18.982  0.00  0.00    +0.000 A 
ATOM     10  H   UNL     1       2.047   1.689  19.744  0.00  0.00    +0.000 HD
ENDROOT
BRANCH   1  11
ATOM     11  C   UNL     1       5.110   3.925  17.217  0.00  0.00    +0.000 C 
ATOM     12  C   UNL     1       4.879   3.922  15.885  0.00  0.00    +0.000 C 
BRANCH  12  13
ATOM     13  C   UNL     1       5.856   4.267  14.846  0.00  0.00    +0.000 A 
ATOM     14  C   UNL     1       5.776   3.732  13.561  0.00  0.00    +0.000 A 
ATOM     15  C   UNL     1       6.729   4.089  12.605  0.00  0.00    +0.000 A 
ATOM     16  C   UNL     1       7.730   4.976  12.970  0.00  0.00    +0.000 A 
ATOM     17  N   UNL     1       7.832   5.522  14.199  0.00  0.00    +0.000 NA
ATOM     18  C   UNL     1       6.898   5.154  15.108  0.00  0.00    +0.000 A 
ENDBRANCH  12  13
BRANCH  11  20
ATOM     19  N   UNL     1       7.661   4.591  18.105  0.00  0.00    +0.000 NA
ATOM     20  C   UNL     1       6.505   4.288  17.703  0.00  0.00    +0.000 C 
ENDBRANCH  11  20
ENDBRANCH   1  11
BRANCH   7  21
ATOM     21  O   UNL     1       2.330   7.899  20.038  0.00  0.00    +0.000 OA
BRANCH  21  22
ATOM     22  C   UNL     1       1.092   8.438  19.557  0.00  0.00    +0.000 C 
BRANCH  22  23
ATOM     23  C   UNL     1       0.507   9.300  20.633  0.00  0.00    +0.000 A 
ATOM     24  C   UNL     1       0.549   8.897  21.972  0.00  0.00    +0.000 A 
ATOM     25  C   UNL     1      -0.028   9.693  22.957  0.00  0.00    +0.000 A 
ATOM     26  C   UNL     1      -0.647  10.893  22.611  0.00  0.00    +0.000 A 
ATOM     27  C   UNL     1      -0.690  11.303  21.277  0.00  0.00    +0.000 A 
ATOM     28  C   UNL     1      -0.115  10.509  20.292  0.00  0.00    +0.000 A 
ENDBRANCH  22  23
ENDBRANCH  21  22
ENDBRANCH   7  21
TORSDOF 6
ENDMDL
MODEL 7
REMARK VINA RESULT:      -8.5      4.520      7.723
REMARK  Name = 
REMARK  6 active torsions:
REMARK  status: ('A' for Active; 'I' for Inactive)
REMARK    1  A    between atoms: C_2  and  C_3
REMARK    2  A    between atoms: C_3  and  C_11
REMARK    3  A    between atoms: C_4  and  C_5
REMARK    4  A    between atoms: C_17  and  O_18
REMARK    5  A    between atoms: O_18  and  C_19
REMARK    6  A    between atoms: C_19  and  C_20
REMARK                            x       y       z     vdW  Elec       q    Type
REMARK                         _______ _______ _______ _____ _____    ______ ____
ROOT
ATOM      1  C   UNL     1       3.028   6.556  18.053  0.00  0.00    +0.000 A 
ATOM      2  C   UNL     1       2.529   5.269  17.992  0.00  0.00    +0.000 A 
ATOM      3  N   UNL     1       3.537   4.438  17.568  0.00  0.00    +0.000 N 
ATOM      4  C   UNL     1       4.692   5.156  17.370  0.00  0.00    +0.000 A 
ATOM      5  C   UNL     1       5.971   4.740  16.980  0.00  0.00    +0.000 A 
ATOM      6  C   UNL     1       6.973   5.718  16.898  0.00  0.00    +0.000 A 
ATOM      7  C   UNL     1       6.703   7.051  17.191  0.00  0.00    +0.000 A 
ATOM      8  C   UNL     1       5.408   7.445  17.519  0.00  0.00    +0.000 A 
ATOM      9  C   UNL     1       4.389   6.489  17.642  0.00  0.00    +0.000 A 
ATOM     10  H   UNL     1       3.455   3.437  17.441  0.00  0.00    +0.000 HD
ENDROOT
BRANCH   1  11
ATOM     11  C   UNL     1       2.319   7.718  18.513  0.00  0.00    +0.000 C 
ATOM     12  C   UNL     1       2.023   8.757  17.699  0.00  0.00    +0.000 C 
BRANCH  12  13
ATOM     13  C   UNL     1       1.281   9.963  18.086  0.00  0.00    +0.000 A 
ATOM     14  C   UNL     1       1.935  11.136  18.458  0.00  0.00    +0.000 A 
ATOM     15  C   UNL     1       1.187  12.258  18.819  0.00  0.00    +0.000 A 
ATOM     16  C   UNL     1      -0.196  12.165  18.793  0.00  0.00    +0.000 A 
ATOM     17  N   UNL     1      -0.863  11.051  18.428  0.00  0.00    +0.000 NA
ATOM     18  C   UNL     1      -0.113   9.976  18.088  0.00  0.00    +0.000 A 
ENDBRANCH  12  13
BRANCH  11  20
ATOM     19  N   UNL     1       1.510   7.861  21.171  0.00  0.00    +0.000 NA
ATOM     20  C   UNL     1       1.878   7.796  19.966  0.00  0.00    +0.000 C 
ENDBRANCH  11  20
ENDBRANCH   1  11
BRANCH   7  21
ATOM     21  O   UNL     1       7.759   7.922  17.156  0.00  0.00    +0.000 OA
BRANCH  21  22
ATOM     22  C   UNL     1       8.378   8.142  18.430  0.00  0.00    +0.000 C 
BRANCH  22  23
ATOM     23  C   UNL     1       8.687   9.602  18.554  0.00  0.00    +0.000 A 
ATOM     24  C   UNL     1       8.236  10.512  17.591  0.00  0.00    +0.000 A 
ATOM     25  C   UNL     1       8.560  11.861  17.703  0.00  0.00    +0.000 A 
ATOM     26  C   UNL     1       9.332  12.307  18.773  0.00  0.00    +0.000 A 
ATOM     27  C   UNL     1       9.783  11.406  19.739  0.00  0.00    +0.000 A 
ATOM     28  C   UNL     1       9.462  10.058  19.629  0.00  0.00    +0.000 A 
ENDBRANCH  22  23
ENDBRANCH  21  22
ENDBRANCH   7  21
TORSDOF 6
ENDMDL
MODEL 8
REMARK VINA RESULT:      -8.4      1.488      1.648
REMARK  Name = 
REMARK  6 active torsions:
REMARK  status: ('A' for Active; 'I' for Inactive)
REMARK    1  A    between atoms: C_2  and  C_3
REMARK    2  A    between atoms: C_3  and  C_11
REMARK    3  A    between atoms: C_4  and  C_5
REMARK    4  A    between atoms: C_17  and  O_18
REMARK    5  A    between atoms: O_18  and  C_19
REMARK    6  A    between atoms: C_19  and  C_20
REMARK                            x       y       z     vdW  Elec       q    Type
REMARK                         _______ _______ _______ _____ _____    ______ ____
ROOT
ATOM      1  C   UNL     1       4.157   4.199  17.775  0.00  0.00    +0.000 A 
ATOM      2  C   UNL     1       4.026   2.901  18.229  0.00  0.00    +0.000 A 
ATOM      3  N   UNL     1       3.216   2.914  19.338  0.00  0.00    +0.000 N 
ATOM      4  C   UNL     1       2.800   4.196  19.606  0.00  0.00    +0.000 A 
ATOM      5  C   UNL     1       1.945   4.690  20.599  0.00  0.00    +0.000 A 
ATOM      6  C   UNL     1       1.675   6.066  20.595  0.00  0.00    +0.000 A 
ATOM      7  C   UNL     1       2.238   6.907  19.639  0.00  0.00    +0.000 A 
ATOM      8  C   UNL     1       3.131   6.397  18.700  0.00  0.00    +0.000 A 
ATOM      9  C   UNL     1       3.398   5.021  18.655  0.00  0.00    +0.000 A 
ATOM     10  H   UNL     1       2.943   2.098  19.872  0.00  0.00    +0.000 HD
ENDROOT
BRANCH   1  11
ATOM     11  C   UNL     1       4.868   4.616  16.598  0.00  0.00    +0.000 C 
ATOM     12  C   UNL     1       5.483   3.740  15.773  0.00  0.00    +0.000 C 
BRANCH  12  13
ATOM     13  C   UNL     1       6.204   4.085  14.541  0.00  0.00    +0.000 A 
ATOM     14  C   UNL     1       5.843   3.544  13.309  0.00  0.00    +0.000 A 
ATOM     15  C   UNL     1       6.558   3.901  12.164  0.00  0.00    +0.000 A 
ATOM     16  C   UNL     1       7.612   4.792  12.295  0.00  0.00    +0.000 A 
ATOM     17  N   UNL     1       7.982   5.343  13.469  0.00  0.00    +0.000 NA
ATOM     18  C   UNL     1       7.275   4.975  14.564  0.00  0.00    +0.000 A 
ENDBRANCH  12  13
BRANCH  11  20
ATOM     19  N   UNL     1       5.000   7.323  15.970  0.00  0.00    +0.000 NA
ATOM     20  C   UNL     1       4.940   6.096  16.256  0.00  0.00    +0.000 C 
ENDBRANCH  11  20
ENDBRANCH   1  11
BRANCH   7  21
ATOM     21  O   UNL     1       1.860   8.223  19.668  0.00  0.00    +0.000 OA
BRANCH  21  22
ATOM     22  C   UNL     1       1.854   8.857  18.382  0.00  0.00    +0.000 C 
BRANCH  22  23
ATOM     23  C   UNL     1       0.896  10.008  18.433  0.00  0.00    +0.000 A 
ATOM     24  C   UNL     1      -0.454   9.827  18.110  0.00  0.00    +0.000 A 
ATOM     25  C   UNL     1      -1.325  10.913  18.129  0.00  0.00    +0.000 A 
ATOM     26  C   UNL     1      -0.854  12.179  18.470  0.00  0.00    +0.000 A 
ATOM     27  C   UNL     1       0.490  12.365  18.797  0.00  0.00    +0.000 A 
ATOM     28  C   UNL     1       1.362  11.283  18.777  0.00  0.00    +0.000 A 
ENDBRANCH  22  23
ENDBRANCH  21  22
ENDBRANCH   7  21
TORSDOF 6
ENDMDL
MODEL 9
REMARK VINA RESULT:      -8.4      2.800      8.340
REMARK  Name = 
REMARK  6 active torsions:
REMARK  status: ('A' for Active; 'I' for Inactive)
REMARK    1  A    between atoms: C_2  and  C_3
REMARK    2  A    between atoms: C_3  and  C_11
REMARK    3  A    between atoms: C_4  and  C_5
REMARK    4  A    between atoms: C_17  and  O_18
REMARK    5  A    between atoms: O_18  and  C_19
REMARK    6  A    between atoms: C_19  and  C_20
REMARK                            x       y       z     vdW  Elec       q    Type
REMARK                         _______ _______ _______ _____ _____    ______ ____
ROOT
ATOM      1  C   UNL     1       2.222   6.522  19.831  0.00  0.00    +0.000 A 
ATOM      2  C   UNL     1       1.919   5.548  20.764  0.00  0.00    +0.000 A 
ATOM      3  N   UNL     1       2.613   4.410  20.436  0.00  0.00    +0.000 N 
ATOM      4  C   UNL     1       3.380   4.628  19.317  0.00  0.00    +0.000 A 
ATOM      5  C   UNL     1       4.272   3.785  18.642  0.00  0.00    +0.000 A 
ATOM      6  C   UNL     1       4.947   4.313  17.531  0.00  0.00    +0.000 A 
ATOM      7  C   UNL     1       4.735   5.625  17.117  0.00  0.00    +0.000 A 
ATOM      8  C   UNL     1       3.799   6.420  17.772  0.00  0.00    +0.000 A 
ATOM      9  C   UNL     1       3.129   5.936  18.906  0.00  0.00    +0.000 A 
ATOM     10  H   UNL     1       2.587   3.540  20.953  0.00  0.00    +0.000 HD
ENDROOT
BRANCH   1  11
ATOM     11  C   UNL     1       1.756   7.881  19.846  0.00  0.00    +0.000 C 
ATOM     12  C   UNL     1       1.591   8.604  18.715  0.00  0.00    +0.000 C 
BRANCH  12  13
ATOM     13  C   UNL     1       1.096   9.984  18.646  0.00  0.00    +0.000 A 
ATOM     14  C   UNL     1      -0.268  10.270  18.623  0.00  0.00    +0.000 A 
ATOM     15  C   UNL     1      -0.693  11.598  18.556  0.00  0.00    +0.000 A 
ATOM     16  C   UNL     1       0.267  12.597  18.518  0.00  0.00    +0.000 A 
ATOM     17  N   UNL     1       1.594  12.359  18.550  0.00  0.00    +0.000 NA
ATOM     18  C   UNL     1       1.978  11.061  18.609  0.00  0.00    +0.000 A 
ENDBRANCH  12  13
BRANCH  11  20
ATOM     19  N   UNL     1       1.170   9.095  22.279  0.00  0.00    +0.000 NA
ATOM     20  C   UNL     1       1.435   8.545  21.176  0.00  0.00    +0.000 C 
ENDBRANCH  11  20
ENDBRANCH   1  11
BRANCH   7  21
ATOM     21  O   UNL     1       5.492   6.076  16.070  0.00  0.00    +0.000 OA
BRANCH  21  22
ATOM     22  C   UNL     1       6.732   5.375  15.901  0.00  0.00    +0.000 C 
BRANCH  22  23
ATOM     23  C   UNL     1       6.793   4.865  14.493  0.00  0.00    +0.000 A 
ATOM     24  C   UNL     1       7.716   5.392  13.583  0.00  0.00    +0.000 A 
ATOM     25  C   UNL     1       7.738   4.930  12.270  0.00  0.00    +0.000 A 
ATOM     26  C   UNL     1       6.842   3.945  11.861  0.00  0.00    +0.000 A 
ATOM     27  C   UNL     1       5.921   3.413  12.765  0.00  0.00    +0.000 A 
ATOM     28  C   UNL     1       5.896   3.873  14.076  0.00  0.00    +0.000 A 
ENDBRANCH  22  23
ENDBRANCH  21  22
ENDBRANCH   7  21
TORSDOF 6
ENDMDL
