MODEL 1
REMARK VINA RESULT:      -7.7      0.000      0.000
REMARK  Name = 
REMARK  3 active torsions:
REMARK  status: ('A' for Active; 'I' for Inactive)
REMARK    1  A    between atoms: C_6  and  C_7
REMARK    2  A    between atoms: C_10  and  C_11
REMARK    3  A    between atoms: C_11  and  C_12
REMARK                            x       y       z     vdW  Elec       q    Type
REMARK                         _______ _______ _______ _____ _____    ______ ____
ROOT
ATOM      1  N   UNL     1       0.514  10.705  21.459  0.00  0.00    +0.000 N 
ATOM      2  C   UNL     1       0.980   9.585  20.917  0.00  0.00    +0.000 A 
ATOM      3  N   UNL     1       1.042   8.482  21.710  0.00  0.00    +0.000 NA
ATOM      4  C   UNL     1       1.520   7.584  20.894  0.00  0.00    +0.000 A 
ATOM      5  N   UNL     1       1.794   6.291  21.080  0.00  0.00    +0.000 N 
ATOM      6  C   UNL     1       2.302   5.460  20.090  0.00  0.00    +0.000 A 
ATOM      7  C   UNL     1       2.533   5.942  18.832  0.00  0.00    +0.000 A 
ATOM      8  C   UNL     1       2.212   7.406  18.559  0.00  0.00    +0.000 A 
ATOM      9  O   UNL     1       2.337   7.948  17.468  0.00  0.00    +0.000 OA
ATOM     10  N   UNL     1       1.742   8.124  19.659  0.00  0.00    +0.000 N 
ATOM     11  N   UNL     1       1.421   9.440  19.669  0.00  0.00    +0.000 NA
ATOM     12  H   UNL     1       0.440  10.734  22.468  0.00  0.00    +0.000 HD
ATOM     13  H   UNL     1       0.759  11.582  21.018  0.00  0.00    +0.000 HD
ATOM     14  H   UNL     1       1.634   5.881  21.995  0.00  0.00    +0.000 HD
ENDROOT
BRANCH   6  15
ATOM     15  C   UNL     1       2.488   4.094  20.631  0.00  0.00    +0.000 C 
ATOM     16  C   UNL     1       1.732   3.354  21.686  0.00  0.00    +0.000 C 
ATOM     17  C   UNL     1       1.331   3.166  20.263  0.00  0.00    +0.000 C 
ENDBRANCH   6  15
BRANCH   7  18
ATOM     18  C   UNL     1       3.023   5.191  17.612  0.00  0.00    +0.000 C 
BRANCH  18  19
ATOM     19  C   UNL     1       4.532   5.197  17.437  0.00  0.00    +0.000 A 
ATOM     20  C   UNL     1       5.406   5.214  18.533  0.00  0.00    +0.000 A 
ATOM     21  C   UNL     1       6.783   5.054  18.354  0.00  0.00    +0.000 A 
ATOM     22  C   UNL     1       7.308   4.892  17.074  0.00  0.00    +0.000 A 
ATOM     23  C   UNL     1       6.458   4.966  15.976  0.00  0.00    +0.000 A 
ATOM     24 BR   UNL     1       7.153   4.741  14.232  0.00  0.00    +0.000 Br
ATOM     25  C   UNL     1       5.088   5.158  16.150  0.00  0.00    +0.000 A 
ENDBRANCH  18  19
ENDBRANCH   7  18
TORSDOF 3
ENDMDL
MODEL 2
REMARK VINA RESULT:      -7.7      1.245      1.596
REMARK  Name = 
REMARK  3 active torsions:
REMARK  status: ('A' for Active; 'I' for Inactive)
REMARK    1  A    between atoms: C_6  and  C_7
REMARK    2  A    between atoms: C_10  and  C_11
REMARK    3  A    between atoms: C_11  and  C_12
REMARK                            x       y       z     vdW  Elec       q    Type
REMARK                         _______ _______ _______ _____ _____    ______ ____
ROOT
ATOM      1  N   UNL     1       0.794  10.432  21.190  0.00  0.00    +0.000 N 
ATOM      2  C   UNL     1       1.204   9.276  20.678  0.00  0.00    +0.000 A 
ATOM      3  N   UNL     1       1.256   8.204  21.512  0.00  0.00    +0.000 NA
ATOM      4  C   UNL     1       1.676   7.259  20.717  0.00  0.00    +0.000 A 
ATOM      5  N   UNL     1       1.913   5.965  20.945  0.00  0.00    +0.000 N 
ATOM      6  C   UNL     1       2.359   5.079  19.972  0.00  0.00    +0.000 A 
ATOM      7  C   UNL     1       2.563   5.504  18.689  0.00  0.00    +0.000 A 
ATOM      8  C   UNL     1       2.281   6.967  18.369  0.00  0.00    +0.000 A 
ATOM      9  O   UNL     1       2.386   7.461  17.253  0.00  0.00    +0.000 OA
ATOM     10  N   UNL     1       1.873   7.742  19.454  0.00  0.00    +0.000 N 
ATOM     11  N   UNL     1       1.597   9.068  19.423  0.00  0.00    +0.000 NA
ATOM     12  H   UNL     1       0.756  10.502  22.198  0.00  0.00    +0.000 HD
ATOM     13  H   UNL     1       1.053  11.282  20.707  0.00  0.00    +0.000 HD
ATOM     14  H   UNL     1       1.772   5.596  21.880  0.00  0.00    +0.000 HD
ENDROOT
BRANCH   6  15
ATOM     15  C   UNL     1       2.518   3.730  20.560  0.00  0.00    +0.000 C 
ATOM     16  C   UNL     1       1.817   3.080  21.709  0.00  0.00    +0.000 C 
ATOM     17  C   UNL     1       1.286   2.853  20.335  0.00  0.00    +0.000 C 
ENDBRANCH   6  15
BRANCH   7  18
ATOM     18  C   UNL     1       2.985   4.690  17.484  0.00  0.00    +0.000 C 
BRANCH  18  19
ATOM     19  C   UNL     1       4.488   4.584  17.296  0.00  0.00    +0.000 A 
ATOM     20  C   UNL     1       5.057   4.144  16.091  0.00  0.00    +0.000 A 
ATOM     21  C   UNL     1       6.438   4.210  15.885  0.00  0.00    +0.000 A 
ATOM     22  C   UNL     1       7.272   4.700  16.887  0.00  0.00    +0.000 A 
ATOM     23  C   UNL     1       6.727   5.051  18.116  0.00  0.00    +0.000 A 
ATOM     24 BR   UNL     1       7.845   5.723  19.485  0.00  0.00    +0.000 Br
ATOM     25  C   UNL     1       5.352   4.956  18.336  0.00  0.00    +0.000 A 
ENDBRANCH  18  19
ENDBRANCH   7  18
TORSDOF 3
ENDMDL
MODEL 3
REMARK VINA RESULT:      -7.5      4.496      6.552
REMARK  Name = 
REMARK  3 active torsions:
REMARK  status: ('A' for Active; 'I' for Inactive)
REMARK    1  A    between atoms: C_6  and  C_7
REMARK    2  A    between atoms: C_10  and  C_11
REMARK    3  A    between atoms: C_11  and  C_12
REMARK                            x       y       z     vdW  Elec       q    Type
REMARK                         _______ _______ _______ _____ _____    ______ ____
ROOT
ATOM      1  N   UNL     1       7.997   5.074  13.607  0.00  0.00    +0.000 N 
ATOM      2  C   UNL     1       7.091   5.086  14.579  0.00  0.00    +0.000 A 
ATOM      3  N   UNL     1       6.088   4.170  14.515  0.00  0.00    +0.000 NA
ATOM      4  C   UNL     1       5.401   4.440  15.589  0.00  0.00    +0.000 A 
ATOM      5  N   UNL     1       4.301   3.872  16.090  0.00  0.00    +0.000 N 
ATOM      6  C   UNL     1       3.688   4.283  17.266  0.00  0.00    +0.000 A 
ATOM      7  C   UNL     1       4.213   5.311  17.999  0.00  0.00    +0.000 A 
ATOM      8  C   UNL     1       5.483   5.977  17.485  0.00  0.00    +0.000 A 
ATOM      9  O   UNL     1       6.072   6.880  18.067  0.00  0.00    +0.000 OA
ATOM     10  N   UNL     1       5.963   5.480  16.274  0.00  0.00    +0.000 N 
ATOM     11  N   UNL     1       7.053   5.932  15.607  0.00  0.00    +0.000 NA
ATOM     12  H   UNL     1       7.774   4.543  12.775  0.00  0.00    +0.000 HD
ATOM     13  H   UNL     1       8.535   5.915  13.451  0.00  0.00    +0.000 HD
ATOM     14  H   UNL     1       3.875   3.100  15.588  0.00  0.00    +0.000 HD
ENDROOT
BRANCH   6  15
ATOM     15  C   UNL     1       2.499   3.442  17.531  0.00  0.00    +0.000 C 
ATOM     16  C   UNL     1       1.564   3.418  18.697  0.00  0.00    +0.000 C 
ATOM     17  C   UNL     1       1.203   4.253  17.517  0.00  0.00    +0.000 C 
ENDBRANCH   6  15
BRANCH   7  18
ATOM     18  C   UNL     1       3.732   5.863  19.324  0.00  0.00    +0.000 C 
BRANCH  18  19
ATOM     19  C   UNL     1       2.859   7.101  19.207  0.00  0.00    +0.000 A 
ATOM     20  C   UNL     1       2.772   7.839  18.018  0.00  0.00    +0.000 A 
ATOM     21  C   UNL     1       1.842   8.873  17.883  0.00  0.00    +0.000 A 
ATOM     22  C   UNL     1       0.996   9.196  18.941  0.00  0.00    +0.000 A 
ATOM     23  C   UNL     1       1.139   8.531  20.154  0.00  0.00    +0.000 A 
ATOM     24 BR   UNL     1      -0.005   8.953  21.599  0.00  0.00    +0.000 Br
ATOM     25  C   UNL     1       2.088   7.520  20.302  0.00  0.00    +0.000 A 
ENDBRANCH  18  19
ENDBRANCH   7  18
TORSDOF 3
ENDMDL
MODEL 4
REMARK VINA RESULT:      -7.4      4.406      6.412
REMARK  Name = 
REMARK  3 active torsions:
REMARK  status: ('A' for Active; 'I' for Inactive)
REMARK    1  A    between atoms: C_6  and  C_7
REMARK    2  A    between atoms: C_10  and  C_11
REMARK    3  A    between atoms: C_11  and  C_12
REMARK                            x       y       z     vdW  Elec       q    Type
REMARK                         _______ _______ _______ _____ _____    ______ ____
ROOT
ATOM      1  N   UNL     1       8.211   5.485  13.310  0.00  0.00    +0.000 N 
ATOM      2  C   UNL     1       7.461   5.197  14.367  0.00  0.00    +0.000 A 
ATOM      3  N   UNL     1       6.619   4.134  14.269  0.00  0.00    +0.000 NA
ATOM      4  C   UNL     1       6.055   4.122  15.445  0.00  0.00    +0.000 A 
ATOM      5  N   UNL     1       5.142   3.299  15.968  0.00  0.00    +0.000 N 
ATOM      6  C   UNL     1       4.642   3.423  17.258  0.00  0.00    +0.000 A 
ATOM      7  C   UNL     1       5.093   4.415  18.084  0.00  0.00    +0.000 A 
ATOM      8  C   UNL     1       6.155   5.365  17.544  0.00  0.00    +0.000 A 
ATOM      9  O   UNL     1       6.667   6.268  18.194  0.00  0.00    +0.000 OA
ATOM     10  N   UNL     1       6.534   5.139  16.221  0.00  0.00    +0.000 N 
ATOM     11  N   UNL     1       7.432   5.868  15.517  0.00  0.00    +0.000 NA
ATOM     12  H   UNL     1       7.962   5.045  12.433  0.00  0.00    +0.000 HD
ATOM     13  H   UNL     1       8.581   6.424  13.233  0.00  0.00    +0.000 HD
ATOM     14  H   UNL     1       4.779   2.541  15.399  0.00  0.00    +0.000 HD
ENDROOT
BRANCH   6  15
ATOM     15  C   UNL     1       3.652   2.353  17.516  0.00  0.00    +0.000 C 
ATOM     16  C   UNL     1       2.765   2.111  18.694  0.00  0.00    +0.000 C 
ATOM     17  C   UNL     1       2.220   2.886  17.544  0.00  0.00    +0.000 C 
ENDBRANCH   6  15
BRANCH   7  18
ATOM     18  C   UNL     1       4.721   4.679  19.528  0.00  0.00    +0.000 C 
BRANCH  18  19
ATOM     19  C   UNL     1       3.476   5.532  19.708  0.00  0.00    +0.000 A 
ATOM     20  C   UNL     1       2.555   5.293  20.738  0.00  0.00    +0.000 A 
ATOM     21  C   UNL     1       1.508   6.186  20.983  0.00  0.00    +0.000 A 
ATOM     22  C   UNL     1       1.356   7.321  20.191  0.00  0.00    +0.000 A 
ATOM     23  C   UNL     1       2.209   7.516  19.110  0.00  0.00    +0.000 A 
ATOM     24 BR   UNL     1       2.020   9.055  18.028  0.00  0.00    +0.000 Br
ATOM     25  C   UNL     1       3.235   6.610  18.843  0.00  0.00    +0.000 A 
ENDBRANCH  18  19
ENDBRANCH   7  18
TORSDOF 3
ENDMDL
MODEL 5
REMARK VINA RESULT:      -7.4      3.583      6.868
REMARK  Name = 
REMARK  3 active torsions:
REMARK  status: ('A' for Active; 'I' for Inactive)
REMARK    1  A    between atoms: C_6  and  C_7
REMARK    2  A    between atoms: C_10  and  C_11
REMARK    3  A    between atoms: C_11  and  C_12
REMARK                            x       y       z     vdW  Elec       q    Type
REMARK                         _______ _______ _______ _____ _____    ______ ____
ROOT
ATOM      1  N   UNL     1       3.639   3.900  18.236  0.00  0.00    +0.000 N 
ATOM      2  C   UNL     1       3.125   5.068  18.606  0.00  0.00    +0.000 A 
ATOM      3  N   UNL     1       2.732   5.199  19.901  0.00  0.00    +0.000 NA
ATOM      4  C   UNL     1       2.296   6.428  19.932  0.00  0.00    +0.000 A 
ATOM      5  N   UNL     1       1.792   7.152  20.935  0.00  0.00    +0.000 N 
ATOM      6  C   UNL     1       1.374   8.469  20.799  0.00  0.00    +0.000 A 
ATOM      7  C   UNL     1       1.482   9.111  19.597  0.00  0.00    +0.000 A 
ATOM      8  C   UNL     1       2.076   8.338  18.427  0.00  0.00    +0.000 A 
ATOM      9  O   UNL     1       2.262   8.810  17.312  0.00  0.00    +0.000 OA
ATOM     10  N   UNL     1       2.418   7.015  18.705  0.00  0.00    +0.000 N 
ATOM     11  N   UNL     1       2.931   6.125  17.821  0.00  0.00    +0.000 NA
ATOM     12  H   UNL     1       3.509   3.118  18.866  0.00  0.00    +0.000 HD
ATOM     13  H   UNL     1       3.628   3.668  17.252  0.00  0.00    +0.000 HD
ATOM     14  H   UNL     1       1.696   6.724  21.850  0.00  0.00    +0.000 HD
ENDROOT
BRANCH   6  15
ATOM     15  C   UNL     1       0.871   8.970  22.099  0.00  0.00    +0.000 C 
ATOM     16  C   UNL     1      -0.039  10.113  22.415  0.00  0.00    +0.000 C 
ATOM     17  C   UNL     1      -0.634   8.756  22.256  0.00  0.00    +0.000 C 
ENDBRANCH   6  15
BRANCH   7  18
ATOM     18  C   UNL     1       1.141  10.548  19.264  0.00  0.00    +0.000 C 
BRANCH  18  19
ATOM     19  C   UNL     1      -0.326  10.786  18.946  0.00  0.00    +0.000 A 
ATOM     20  C   UNL     1      -1.117  11.663  19.703  0.00  0.00    +0.000 A 
ATOM     21  C   UNL     1      -2.413  11.990  19.296  0.00  0.00    +0.000 A 
ATOM     22  C   UNL     1      -2.944  11.431  18.136  0.00  0.00    +0.000 A 
ATOM     23  C   UNL     1      -2.201  10.491  17.431  0.00  0.00    +0.000 A 
ATOM     24 BR   UNL     1      -2.905   9.728  15.850  0.00  0.00    +0.000 Br
ATOM     25  C   UNL     1      -0.919  10.138  17.852  0.00  0.00    +0.000 A 
ENDBRANCH  18  19
ENDBRANCH   7  18
TORSDOF 3
ENDMDL
MODEL 6
REMARK VINA RESULT:      -7.2      4.692      7.243
REMARK  Name = 
REMARK  3 active torsions:
REMARK  status: ('A' for Active; 'I' for Inactive)
REMARK    1  A    between atoms: C_6  and  C_7
REMARK    2  A    between atoms: C_10  and  C_11
REMARK    3  A    between atoms: C_11  and  C_12
REMARK                            x       y       z     vdW  Elec       q    Type
REMARK                         _______ _______ _______ _____ _____    ______ ____
ROOT
ATOM      1  N   UNL     1       6.508   3.626  12.052  0.00  0.00    +0.000 N 
ATOM      2  C   UNL     1       6.485   4.003  13.325  0.00  0.00    +0.000 A 
ATOM      3  N   UNL     1       7.240   5.078  13.676  0.00  0.00    +0.000 NA
ATOM      4  C   UNL     1       6.991   5.183  14.952  0.00  0.00    +0.000 A 
ATOM      5  N   UNL     1       7.427   6.061  15.858  0.00  0.00    +0.000 N 
ATOM      6  C   UNL     1       7.056   6.037  17.196  0.00  0.00    +0.000 A 
ATOM      7  C   UNL     1       6.180   5.092  17.656  0.00  0.00    +0.000 A 
ATOM      8  C   UNL     1       5.631   4.083  16.656  0.00  0.00    +0.000 A 
ATOM      9  O   UNL     1       4.813   3.214  16.932  0.00  0.00    +0.000 OA
ATOM     10  N   UNL     1       6.122   4.210  15.357  0.00  0.00    +0.000 N 
ATOM     11  N   UNL     1       5.807   3.412  14.307  0.00  0.00    +0.000 NA
ATOM     12  H   UNL     1       7.241   4.011  11.469  0.00  0.00    +0.000 HD
ATOM     13  H   UNL     1       6.238   2.676  11.834  0.00  0.00    +0.000 HD
ATOM     14  H   UNL     1       8.075   6.787  15.568  0.00  0.00    +0.000 HD
ENDROOT
BRANCH   6  15
ATOM     15  C   UNL     1       7.718   7.146  17.919  0.00  0.00    +0.000 C 
ATOM     16  C   UNL     1       8.312   8.420  17.412  0.00  0.00    +0.000 C 
ATOM     17  C   UNL     1       6.897   8.435  17.877  0.00  0.00    +0.000 C 
ENDBRANCH   6  15
BRANCH   7  18
ATOM     18  C   UNL     1       5.611   4.936  19.050  0.00  0.00    +0.000 C 
BRANCH  18  19
ATOM     19  C   UNL     1       4.185   5.437  19.204  0.00  0.00    +0.000 A 
ATOM     20  C   UNL     1       3.264   4.807  20.054  0.00  0.00    +0.000 A 
ATOM     21  C   UNL     1       2.013   5.378  20.304  0.00  0.00    +0.000 A 
ATOM     22  C   UNL     1       1.658   6.579  19.694  0.00  0.00    +0.000 A 
ATOM     23  C   UNL     1       2.528   7.162  18.780  0.00  0.00    +0.000 A 
ATOM     24 BR   UNL     1       2.063   8.794  17.948  0.00  0.00    +0.000 Br
ATOM     25  C   UNL     1       3.764   6.577  18.503  0.00  0.00    +0.000 A 
ENDBRANCH  18  19
ENDBRANCH   7  18
TORSDOF 3
ENDMDL
MODEL 7
REMARK VINA RESULT:      -7.1      1.573      1.808
REMARK  Name = 
REMARK  3 active torsions:
REMARK  status: ('A' for Active; 'I' for Inactive)
REMARK    1  A    between atoms: C_6  and  C_7
REMARK    2  A    between atoms: C_10  and  C_11
REMARK    3  A    between atoms: C_11  and  C_12
REMARK                            x       y       z     vdW  Elec       q    Type
REMARK                         _______ _______ _______ _____ _____    ______ ____
ROOT
ATOM      1  N   UNL     1      -0.331  11.085  22.508  0.00  0.00    +0.000 N 
ATOM      2  C   UNL     1       0.263  10.202  21.714  0.00  0.00    +0.000 A 
ATOM      3  N   UNL     1       0.564   8.986  22.241  0.00  0.00    +0.000 NA
ATOM      4  C   UNL     1       1.112   8.376  21.227  0.00  0.00    +0.000 A 
ATOM      5  N   UNL     1       1.604   7.140  21.112  0.00  0.00    +0.000 N 
ATOM      6  C   UNL     1       2.157   6.636  19.942  0.00  0.00    +0.000 A 
ATOM      7  C   UNL     1       2.206   7.403  18.811  0.00  0.00    +0.000 A 
ATOM      8  C   UNL     1       1.633   8.813  18.882  0.00  0.00    +0.000 A 
ATOM      9  O   UNL     1       1.581   9.584  17.932  0.00  0.00    +0.000 OA
ATOM     10  N   UNL     1       1.144   9.192  20.132  0.00  0.00    +0.000 N 
ATOM     11  N   UNL     1       0.619  10.400  20.446  0.00  0.00    +0.000 NA
ATOM     12  H   UNL     1      -0.328  10.889  23.501  0.00  0.00    +0.000 HD
ATOM     13  H   UNL     1      -0.266  12.064  22.261  0.00  0.00    +0.000 HD
ATOM     14  H   UNL     1       1.587   6.526  21.921  0.00  0.00    +0.000 HD
ENDROOT
BRANCH   6  15
ATOM     15  C   UNL     1       2.603   5.241  20.160  0.00  0.00    +0.000 C 
ATOM     16  C   UNL     1       2.237   4.258  21.225  0.00  0.00    +0.000 C 
ATOM     17  C   UNL     1       1.472   4.234  19.946  0.00  0.00    +0.000 C 
ENDBRANCH   6  15
BRANCH   7  18
ATOM     18  C   UNL     1       2.709   7.021  17.436  0.00  0.00    +0.000 C 
BRANCH  18  19
ATOM     19  C   UNL     1       4.118   6.453  17.420  0.00  0.00    +0.000 A 
ATOM     20  C   UNL     1       4.372   5.106  17.121  0.00  0.00    +0.000 A 
ATOM     21  C   UNL     1       5.681   4.645  16.953  0.00  0.00    +0.000 A 
ATOM     22  C   UNL     1       6.755   5.520  17.098  0.00  0.00    +0.000 A 
ATOM     23  C   UNL     1       6.516   6.834  17.484  0.00  0.00    +0.000 A 
ATOM     24 BR   UNL     1       7.963   8.035  17.680  0.00  0.00    +0.000 Br
ATOM     25  C   UNL     1       5.213   7.289  17.685  0.00  0.00    +0.000 A 
ENDBRANCH  18  19
ENDBRANCH   7  18
TORSDOF 3
ENDMDL
MODEL 8
REMARK VINA RESULT:      -7.1      2.233      4.324
REMARK  Name = 
REMARK  3 active torsions:
REMARK  status: ('A' for Active; 'I' for Inactive)
REMARK    1  A    between atoms: C_6  and  C_7
REMARK    2  A    between atoms: C_10  and  C_11
REMARK    3  A    between atoms: C_11  and  C_12
REMARK                            x       y       z     vdW  Elec       q    Type
REMARK                         _______ _______ _______ _____ _____    ______ ____
ROOT
ATOM      1  N   UNL     1       0.517  12.176  18.343  0.00  0.00    +0.000 N 
ATOM      2  C   UNL     1       0.967  10.951  18.592  0.00  0.00    +0.000 A 
ATOM      3  N   UNL     1       1.665  10.326  17.608  0.00  0.00    +0.000 NA
ATOM      4  C   UNL     1       1.959   9.183  18.164  0.00  0.00    +0.000 A 
ATOM      5  N   UNL     1       2.650   8.138  17.702  0.00  0.00    +0.000 N 
ATOM      6  C   UNL     1       2.881   6.982  18.435  0.00  0.00    +0.000 A 
ATOM      7  C   UNL     1       2.412   6.867  19.715  0.00  0.00    +0.000 A 
ATOM      8  C   UNL     1       1.640   8.042  20.299  0.00  0.00    +0.000 A 
ATOM      9  O   UNL     1       1.202   8.080  21.442  0.00  0.00    +0.000 OA
ATOM     10  N   UNL     1       1.457   9.120  19.433  0.00  0.00    +0.000 N 
ATOM     11  N   UNL     1       0.779  10.259  19.714  0.00  0.00    +0.000 NA
ATOM     12  H   UNL     1       0.525  12.483  17.379  0.00  0.00    +0.000 HD
ATOM     13  H   UNL     1      -0.256  12.519  18.898  0.00  0.00    +0.000 HD
ATOM     14  H   UNL     1       3.027   8.175  16.760  0.00  0.00    +0.000 HD
ENDROOT
BRANCH   6  15
ATOM     15  C   UNL     1       3.677   6.029  17.629  0.00  0.00    +0.000 C 
ATOM     16  C   UNL     1       4.763   6.269  16.631  0.00  0.00    +0.000 C 
ATOM     17  C   UNL     1       5.148   6.008  18.046  0.00  0.00    +0.000 C 
ENDBRANCH   6  15
BRANCH   7  18
ATOM     18  C   UNL     1       2.607   5.725  20.689  0.00  0.00    +0.000 C 
BRANCH  18  19
ATOM     19  C   UNL     1       2.174   4.368  20.158  0.00  0.00    +0.000 A 
ATOM     20  C   UNL     1       0.823   4.011  20.046  0.00  0.00    +0.000 A 
ATOM     21  C   UNL     1       0.446   2.827  19.406  0.00  0.00    +0.000 A 
ATOM     22  C   UNL     1       1.415   1.974  18.884  0.00  0.00    +0.000 A 
ATOM     23  C   UNL     1       2.759   2.275  19.073  0.00  0.00    +0.000 A 
ATOM     24 BR   UNL     1       4.088   1.131  18.366  0.00  0.00    +0.000 Br
ATOM     25  C   UNL     1       3.139   3.440  19.740  0.00  0.00    +0.000 A 
ENDBRANCH  18  19
ENDBRANCH   7  18
TORSDOF 3
ENDMDL
MODEL 9
REMARK VINA RESULT:      -7.0      1.523      1.805
REMARK  Name = 
REMARK  3 active torsions:
REMARK  status: ('A' for Active; 'I' for Inactive)
REMARK    1  A    between atoms: C_6  and  C_7
REMARK    2  A    between atoms: C_10  and  C_11
REMARK    3  A    between atoms: C_11  and  C_12
REMARK                            x       y       z     vdW  Elec       q    Type
REMARK                         _______ _______ _______ _____ _____    ______ ____
ROOT
ATOM      1  N   UNL     1       0.103  11.265  21.051  0.00  0.00    +0.000 N 
ATOM      2  C   UNL     1       0.672  10.161  20.581  0.00  0.00    +0.000 A 
ATOM      3  N   UNL     1       0.748   9.090  21.415  0.00  0.00    +0.000 NA
ATOM      4  C   UNL     1       1.335   8.199  20.664  0.00  0.00    +0.000 A 
ATOM      5  N   UNL     1       1.674   6.932  20.913  0.00  0.00    +0.000 N 
ATOM      6  C   UNL     1       2.298   6.105  19.988  0.00  0.00    +0.000 A 
ATOM      7  C   UNL     1       2.583   6.561  18.731  0.00  0.00    +0.000 A 
ATOM      8  C   UNL     1       2.191   7.992  18.386  0.00  0.00    +0.000 A 
ATOM      9  O   UNL     1       2.355   8.507  17.287  0.00  0.00    +0.000 OA
ATOM     10  N   UNL     1       1.605   8.712  19.427  0.00  0.00    +0.000 N 
ATOM     11  N   UNL     1       1.204  10.005  19.370  0.00  0.00    +0.000 NA
ATOM     12  H   UNL     1      -0.040  11.321  22.052  0.00  0.00    +0.000 HD
ATOM     13  H   UNL     1       0.323  12.142  20.597  0.00  0.00    +0.000 HD
ATOM     14  H   UNL     1       1.479   6.542  21.829  0.00  0.00    +0.000 HD
ENDROOT
BRANCH   6  15
ATOM     15  C   UNL     1       2.531   4.771  20.587  0.00  0.00    +0.000 C 
ATOM     16  C   UNL     1       1.621   3.887  21.378  0.00  0.00    +0.000 C 
ATOM     17  C   UNL     1       1.706   3.680  19.905  0.00  0.00    +0.000 C 
ENDBRANCH   6  15
BRANCH   7  18
ATOM     18  C   UNL     1       3.198   5.805  17.572  0.00  0.00    +0.000 C 
BRANCH  18  19
ATOM     19  C   UNL     1       4.698   5.994  17.428  0.00  0.00    +0.000 A 
ATOM     20  C   UNL     1       5.265   6.603  16.298  0.00  0.00    +0.000 A 
ATOM     21  C   UNL     1       6.627   6.913  16.259  0.00  0.00    +0.000 A 
ATOM     22  C   UNL     1       7.447   6.603  17.342  0.00  0.00    +0.000 A 
ATOM     23  C   UNL     1       6.912   5.917  18.426  0.00  0.00    +0.000 A 
ATOM     24 BR   UNL     1       8.009   5.494  19.907  0.00  0.00    +0.000 Br
ATOM     25  C   UNL     1       5.559   5.577  18.454  0.00  0.00    +0.000 A 
ENDBRANCH  18  19
ENDBRANCH   7  18
TORSDOF 3
ENDMDL
