MODEL 1
REMARK VINA RESULT:      -7.7      0.000      0.000
REMARK  Name = 
REMARK  8 active torsions:
REMARK  status: ('A' for Active; 'I' for Inactive)
REMARK    1  A    between atoms: C_1  and  C_2
REMARK    2  A    between atoms: C_2  and  C_3
REMARK    3  A    between atoms: C_2  and  S_4
REMARK    4  A    between atoms: S_4  and  N_7
REMARK    5  A    between atoms: N_7  and  C_8
REMARK    6  A    between atoms: C_8  and  C_9
REMARK    7  A    between atoms: C_11  and  C_12
REMARK    8  A    between atoms: C_15  and  N_16
REMARK                            x       y       z     vdW  Elec       q    Type
REMARK                         _______ _______ _______ _____ _____    ______ ____
ROOT
ATOM      1  C   UNL     1       3.492   4.089  19.370  0.00  0.00    +0.000 C 
ATOM      2  C   UNL     1       3.236   5.434  20.013  0.00  0.00    +0.000 C 
ATOM      3  C   UNL     1       2.629   6.147  18.862  0.00  0.00    +0.000 C 
ATOM      4  N   UNL     1       2.601   5.485  17.750  0.00  0.00    +0.000 NA
ATOM      5  O   UNL     1       3.217   4.237  17.969  0.00  0.00    +0.000 OA
ENDROOT
BRANCH   3   6
ATOM      6  C   UNL     1       2.119   7.531  18.981  0.00  0.00    +0.000 A 
ATOM      7  C   UNL     1       2.098   8.406  17.898  0.00  0.00    +0.000 A 
ATOM      8  C   UNL     1       1.605   9.708  18.057  0.00  0.00    +0.000 A 
ATOM      9  C   UNL     1       1.148  10.193  19.296  0.00  0.00    +0.000 A 
ATOM     10  C   UNL     1       1.144   9.260  20.354  0.00  0.00    +0.000 A 
ATOM     11  F   UNL     1       0.697   9.590  21.576  0.00  0.00    +0.000 F 
ATOM     12  C   UNL     1       1.624   7.959  20.212  0.00  0.00    +0.000 A 
BRANCH   9  13
ATOM     13  N   UNL     1       0.726  11.509  19.407  0.00  0.00    +0.000 N 
ATOM     14  C   UNL     1      -0.689  11.861  19.544  0.00  0.00    +0.000 C 
ATOM     15  C   UNL     1      -0.878  13.003  18.556  0.00  0.00    +0.000 C 
ATOM     16  C   UNL     1       0.456  13.728  18.606  0.00  0.00    +0.000 C 
ATOM     17  C   UNL     1       1.485  12.629  18.847  0.00  0.00    +0.000 C 
ENDBRANCH   9  13
ENDBRANCH   3   6
BRANCH   1  18
ATOM     18  C   UNL     1       4.934   3.599  19.542  0.00  0.00    +0.000 C 
BRANCH  18  19
ATOM     19  N   UNL     1       5.793   3.779  18.314  0.00  0.00    +0.000 NA
ATOM     20  H   UNL     1       6.215   2.876  18.068  0.00  0.00    +0.000 HD
BRANCH  19  21
ATOM     21  S   UNL     1       6.987   4.968  18.515  0.00  0.00    +0.000 S 
ATOM     22  O   UNL     1       8.156   4.446  17.864  0.00  0.00    +0.000 OA
ATOM     23  O   UNL     1       6.991   5.332  19.923  0.00  0.00    +0.000 OA
BRANCH  21  25
ATOM     24  C   UNL     1       7.443   7.431  17.422  0.00  0.00    +0.000 C 
ATOM     25  C   UNL     1       6.354   6.379  17.589  0.00  0.00    +0.000 C 
ATOM     26  C   UNL     1       5.853   5.918  16.219  0.00  0.00    +0.000 C 
ENDBRANCH  21  25
ENDBRANCH  19  21
ENDBRANCH  18  19
ENDBRANCH   1  18
TORSDOF 6
ENDMDL
MODEL 2
REMARK VINA RESULT:      -7.7      0.857      1.036
REMARK  Name = 
REMARK  8 active torsions:
REMARK  status: ('A' for Active; 'I' for Inactive)
REMARK    1  A    between atoms: C_1  and  C_2
REMARK    2  A    between atoms: C_2  and  C_3
REMARK    3  A    between atoms: C_2  and  S_4
REMARK    4  A    between atoms: S_4  and  N_7
REMARK    5  A    between atoms: N_7  and  C_8
REMARK    6  A    between atoms: C_8  and  C_9
REMARK    7  A    between atoms: C_11  and  C_12
REMARK    8  A    between atoms: C_15  and  N_16
REMARK                            x       y       z     vdW  Elec       q    Type
REMARK                         _______ _______ _______ _____ _____    ______ ____
ROOT
ATOM      1  C   UNL     1       3.895   4.222  19.117  0.00  0.00    +0.000 C 
ATOM      2  C   UNL     1       3.745   5.615  19.688  0.00  0.00    +0.000 C 
ATOM      3  C   UNL     1       2.705   6.146  18.773  0.00  0.00    +0.000 C 
ATOM      4  N   UNL     1       2.358   5.356  17.808  0.00  0.00    +0.000 NA
ATOM      5  O   UNL     1       3.135   4.186  17.901  0.00  0.00    +0.000 OA
ENDROOT
BRANCH   3   6
ATOM      6  C   UNL     1       2.130   7.499  18.945  0.00  0.00    +0.000 A 
ATOM      7  C   UNL     1       2.023   8.396  17.885  0.00  0.00    +0.000 A 
ATOM      8  C   UNL     1       1.472   9.667  18.095  0.00  0.00    +0.000 A 
ATOM      9  C   UNL     1       1.039  10.099  19.362  0.00  0.00    +0.000 A 
ATOM     10  C   UNL     1       1.122   9.144  20.395  0.00  0.00    +0.000 A 
ATOM     11  F   UNL     1       0.706   9.422  21.641  0.00  0.00    +0.000 F 
ATOM     12  C   UNL     1       1.662   7.872  20.204  0.00  0.00    +0.000 A 
BRANCH   9  13
ATOM     13  N   UNL     1       0.555  11.389  19.520  0.00  0.00    +0.000 N 
ATOM     14  C   UNL     1      -0.733  11.808  18.965  0.00  0.00    +0.000 C 
ATOM     15  C   UNL     1      -0.428  13.147  18.306  0.00  0.00    +0.000 C 
ATOM     16  C   UNL     1       0.637  13.742  19.210  0.00  0.00    +0.000 C 
ATOM     17  C   UNL     1       1.437  12.543  19.708  0.00  0.00    +0.000 C 
ENDBRANCH   9  13
ENDBRANCH   3   6
BRANCH   1  18
ATOM     18  C   UNL     1       5.348   3.849  18.803  0.00  0.00    +0.000 C 
BRANCH  18  19
ATOM     19  N   UNL     1       5.616   3.605  17.339  0.00  0.00    +0.000 NA
ATOM     20  H   UNL     1       5.864   2.618  17.205  0.00  0.00    +0.000 HD
BRANCH  19  21
ATOM     21  S   UNL     1       6.824   4.620  16.712  0.00  0.00    +0.000 S 
ATOM     22  O   UNL     1       6.686   4.538  15.285  0.00  0.00    +0.000 OA
ATOM     23  O   UNL     1       8.065   4.268  17.384  0.00  0.00    +0.000 OA
BRANCH  21  25
ATOM     24  C   UNL     1       7.565   7.174  17.342  0.00  0.00    +0.000 C 
ATOM     25  C   UNL     1       6.345   6.264  17.276  0.00  0.00    +0.000 C 
ATOM     26  C   UNL     1       5.298   6.853  16.330  0.00  0.00    +0.000 C 
ENDBRANCH  21  25
ENDBRANCH  19  21
ENDBRANCH  18  19
ENDBRANCH   1  18
TORSDOF 6
ENDMDL
MODEL 3
REMARK VINA RESULT:      -7.4      1.643      2.205
REMARK  Name = 
REMARK  8 active torsions:
REMARK  status: ('A' for Active; 'I' for Inactive)
REMARK    1  A    between atoms: C_1  and  C_2
REMARK    2  A    between atoms: C_2  and  C_3
REMARK    3  A    between atoms: C_2  and  S_4
REMARK    4  A    between atoms: S_4  and  N_7
REMARK    5  A    between atoms: N_7  and  C_8
REMARK    6  A    between atoms: C_8  and  C_9
REMARK    7  A    between atoms: C_11  and  C_12
REMARK    8  A    between atoms: C_15  and  N_16
REMARK                            x       y       z     vdW  Elec       q    Type
REMARK                         _______ _______ _______ _____ _____    ______ ____
ROOT
ATOM      1  C   UNL     1       4.140   3.954  18.874  0.00  0.00    +0.000 C 
ATOM      2  C   UNL     1       4.073   5.358  19.431  0.00  0.00    +0.000 C 
ATOM      3  C   UNL     1       2.749   5.771  18.902  0.00  0.00    +0.000 C 
ATOM      4  N   UNL     1       2.169   4.913  18.126  0.00  0.00    +0.000 NA
ATOM      5  O   UNL     1       3.028   3.806  17.981  0.00  0.00    +0.000 OA
ENDROOT
BRANCH   3   6
ATOM      6  C   UNL     1       2.154   7.086  19.226  0.00  0.00    +0.000 A 
ATOM      7  C   UNL     1       1.665   7.383  20.495  0.00  0.00    +0.000 A 
ATOM      8  C   UNL     1       1.109   8.644  20.757  0.00  0.00    +0.000 A 
ATOM      9  C   UNL     1       0.992   9.634  19.764  0.00  0.00    +0.000 A 
ATOM     10  C   UNL     1       1.541   9.308  18.507  0.00  0.00    +0.000 A 
ATOM     11  F   UNL     1       1.525  10.182  17.488  0.00  0.00    +0.000 F 
ATOM     12  C   UNL     1       2.103   8.062  18.231  0.00  0.00    +0.000 A 
BRANCH   9  13
ATOM     13  N   UNL     1       0.381  10.841  20.066  0.00  0.00    +0.000 N 
ATOM     14  C   UNL     1       0.486  11.454  21.392  0.00  0.00    +0.000 C 
ATOM     15  C   UNL     1      -0.942  11.871  21.715  0.00  0.00    +0.000 C 
ATOM     16  C   UNL     1      -1.506  12.253  20.358  0.00  0.00    +0.000 C 
ATOM     17  C   UNL     1      -0.821  11.309  19.375  0.00  0.00    +0.000 C 
ENDBRANCH   9  13
ENDBRANCH   3   6
BRANCH   1  18
ATOM     18  C   UNL     1       5.434   3.669  18.103  0.00  0.00    +0.000 C 
BRANCH  18  19
ATOM     19  N   UNL     1       5.630   4.544  16.890  0.00  0.00    +0.000 NA
ATOM     20  H   UNL     1       5.426   3.995  16.047  0.00  0.00    +0.000 HD
BRANCH  19  21
ATOM     21  S   UNL     1       7.186   5.217  16.808  0.00  0.00    +0.000 S 
ATOM     22  O   UNL     1       7.256   5.857  15.524  0.00  0.00    +0.000 OA
ATOM     23  O   UNL     1       8.122   4.173  17.197  0.00  0.00    +0.000 OA
BRANCH  21  25
ATOM     24  C   UNL     1       8.006   5.980  19.302  0.00  0.00    +0.000 C 
ATOM     25  C   UNL     1       7.189   6.464  18.110  0.00  0.00    +0.000 C 
ATOM     26  C   UNL     1       7.766   7.775  17.572  0.00  0.00    +0.000 C 
ENDBRANCH  21  25
ENDBRANCH  19  21
ENDBRANCH  18  19
ENDBRANCH   1  18
TORSDOF 6
ENDMDL
MODEL 4
REMARK VINA RESULT:      -7.4      0.942      1.364
REMARK  Name = 
REMARK  8 active torsions:
REMARK  status: ('A' for Active; 'I' for Inactive)
REMARK    1  A    between atoms: C_1  and  C_2
REMARK    2  A    between atoms: C_2  and  C_3
REMARK    3  A    between atoms: C_2  and  S_4
REMARK    4  A    between atoms: S_4  and  N_7
REMARK    5  A    between atoms: N_7  and  C_8
REMARK    6  A    between atoms: C_8  and  C_9
REMARK    7  A    between atoms: C_11  and  C_12
REMARK    8  A    between atoms: C_15  and  N_16
REMARK                            x       y       z     vdW  Elec       q    Type
REMARK                         _______ _______ _______ _____ _____    ______ ____
ROOT
ATOM      1  C   UNL     1       3.783   4.146  19.321  0.00  0.00    +0.000 C 
ATOM      2  C   UNL     1       3.642   5.565  19.825  0.00  0.00    +0.000 C 
ATOM      3  C   UNL     1       2.695   6.094  18.813  0.00  0.00    +0.000 C 
ATOM      4  N   UNL     1       2.392   5.277  17.855  0.00  0.00    +0.000 NA
ATOM      5  O   UNL     1       3.116   4.086  18.053  0.00  0.00    +0.000 OA
ENDROOT
BRANCH   3   6
ATOM      6  C   UNL     1       2.160   7.471  18.888  0.00  0.00    +0.000 A 
ATOM      7  C   UNL     1       2.160   8.324  17.787  0.00  0.00    +0.000 A 
ATOM      8  C   UNL     1       1.643   9.622  17.904  0.00  0.00    +0.000 A 
ATOM      9  C   UNL     1       1.139  10.124  19.118  0.00  0.00    +0.000 A 
ATOM     10  C   UNL     1       1.115   9.212  20.194  0.00  0.00    +0.000 A 
ATOM     11  F   UNL     1       0.624   9.558  21.394  0.00  0.00    +0.000 F 
ATOM     12  C   UNL     1       1.620   7.916  20.093  0.00  0.00    +0.000 A 
BRANCH   9  13
ATOM     13  N   UNL     1       0.694  11.435  19.189  0.00  0.00    +0.000 N 
ATOM     14  C   UNL     1       1.524  12.507  19.741  0.00  0.00    +0.000 C 
ATOM     15  C   UNL     1       0.578  13.261  20.665  0.00  0.00    +0.000 C 
ATOM     16  C   UNL     1      -0.761  13.146  19.958  0.00  0.00    +0.000 C 
ATOM     17  C   UNL     1      -0.726  11.780  19.281  0.00  0.00    +0.000 C 
ENDBRANCH   9  13
ENDBRANCH   3   6
BRANCH   1  18
ATOM     18  C   UNL     1       5.240   3.710  19.135  0.00  0.00    +0.000 C 
BRANCH  18  19
ATOM     19  N   UNL     1       5.720   3.770  17.706  0.00  0.00    +0.000 NA
ATOM     20  H   UNL     1       6.034   2.835  17.421  0.00  0.00    +0.000 HD
BRANCH  19  21
ATOM     21  S   UNL     1       6.950   4.915  17.471  0.00  0.00    +0.000 S 
ATOM     22  O   UNL     1       8.162   4.153  17.355  0.00  0.00    +0.000 OA
ATOM     23  O   UNL     1       6.781   5.935  18.495  0.00  0.00    +0.000 OA
BRANCH  21  25
ATOM     24  C   UNL     1       6.548   4.608  14.785  0.00  0.00    +0.000 C 
ATOM     25  C   UNL     1       6.547   5.665  15.882  0.00  0.00    +0.000 C 
ATOM     26  C   UNL     1       5.178   6.342  15.961  0.00  0.00    +0.000 C 
ENDBRANCH  21  25
ENDBRANCH  19  21
ENDBRANCH  18  19
ENDBRANCH   1  18
TORSDOF 6
ENDMDL
MODEL 5
REMARK VINA RESULT:      -7.3      1.391      1.901
REMARK  Name = 
REMARK  8 active torsions:
REMARK  status: ('A' for Active; 'I' for Inactive)
REMARK    1  A    between atoms: C_1  and  C_2
REMARK    2  A    between atoms: C_2  and  C_3
REMARK    3  A    between atoms: C_2  and  S_4
REMARK    4  A    between atoms: S_4  and  N_7
REMARK    5  A    between atoms: N_7  and  C_8
REMARK    6  A    between atoms: C_8  and  C_9
REMARK    7  A    between atoms: C_11  and  C_12
REMARK    8  A    between atoms: C_15  and  N_16
REMARK                            x       y       z     vdW  Elec       q    Type
REMARK                         _______ _______ _______ _____ _____    ______ ____
ROOT
ATOM      1  C   UNL     1       3.426   3.557  19.278  0.00  0.00    +0.000 C 
ATOM      2  C   UNL     1       3.446   4.945  19.880  0.00  0.00    +0.000 C 
ATOM      3  C   UNL     1       2.464   5.614  18.991  0.00  0.00    +0.000 C 
ATOM      4  N   UNL     1       2.017   4.892  18.014  0.00  0.00    +0.000 NA
ATOM      5  O   UNL     1       2.653   3.637  18.072  0.00  0.00    +0.000 OA
ENDROOT
BRANCH   3   6
ATOM      6  C   UNL     1       2.053   7.020  19.199  0.00  0.00    +0.000 A 
ATOM      7  C   UNL     1       1.554   7.470  20.419  0.00  0.00    +0.000 A 
ATOM      8  C   UNL     1       1.177   8.812  20.571  0.00  0.00    +0.000 A 
ATOM      9  C   UNL     1       1.253   9.738  19.516  0.00  0.00    +0.000 A 
ATOM     10  C   UNL     1       1.807   9.252  18.314  0.00  0.00    +0.000 A 
ATOM     11  F   UNL     1       1.967  10.048  17.244  0.00  0.00    +0.000 F 
ATOM     12  C   UNL     1       2.193   7.922  18.146  0.00  0.00    +0.000 A 
BRANCH   9  13
ATOM     13  N   UNL     1       0.811  11.038  19.709  0.00  0.00    +0.000 N 
ATOM     14  C   UNL     1       1.030  11.753  20.968  0.00  0.00    +0.000 C 
ATOM     15  C   UNL     1      -0.323  12.383  21.269  0.00  0.00    +0.000 C 
ATOM     16  C   UNL     1      -0.870  12.707  19.890  0.00  0.00    +0.000 C 
ATOM     17  C   UNL     1      -0.339  11.593  18.992  0.00  0.00    +0.000 C 
ENDBRANCH   9  13
ENDBRANCH   3   6
BRANCH   1  18
ATOM     18  C   UNL     1       4.822   3.024  18.936  0.00  0.00    +0.000 C 
BRANCH  18  19
ATOM     19  N   UNL     1       5.909   4.068  19.002  0.00  0.00    +0.000 NA
ATOM     20  H   UNL     1       5.579   4.859  19.567  0.00  0.00    +0.000 HD
BRANCH  19  21
ATOM     21  S   UNL     1       6.412   4.593  17.468  0.00  0.00    +0.000 S 
ATOM     22  O   UNL     1       5.584   3.884  16.533  0.00  0.00    +0.000 OA
ATOM     23  O   UNL     1       7.863   4.491  17.439  0.00  0.00    +0.000 OA
BRANCH  21  25
ATOM     24  C   UNL     1       7.253   7.193  17.380  0.00  0.00    +0.000 C 
ATOM     25  C   UNL     1       5.988   6.345  17.449  0.00  0.00    +0.000 C 
ATOM     26  C   UNL     1       5.086   6.648  16.251  0.00  0.00    +0.000 C 
ENDBRANCH  21  25
ENDBRANCH  19  21
ENDBRANCH  18  19
ENDBRANCH   1  18
TORSDOF 6
ENDMDL
MODEL 6
REMARK VINA RESULT:      -7.3      0.656      1.067
REMARK  Name = 
REMARK  8 active torsions:
REMARK  status: ('A' for Active; 'I' for Inactive)
REMARK    1  A    between atoms: C_1  and  C_2
REMARK    2  A    between atoms: C_2  and  C_3
REMARK    3  A    between atoms: C_2  and  S_4
REMARK    4  A    between atoms: S_4  and  N_7
REMARK    5  A    between atoms: N_7  and  C_8
REMARK    6  A    between atoms: C_8  and  C_9
REMARK    7  A    between atoms: C_11  and  C_12
REMARK    8  A    between atoms: C_15  and  N_16
REMARK                            x       y       z     vdW  Elec       q    Type
REMARK                         _______ _______ _______ _____ _____    ______ ____
ROOT
ATOM      1  C   UNL     1       3.613   4.039  19.459  0.00  0.00    +0.000 C 
ATOM      2  C   UNL     1       3.668   5.513  19.797  0.00  0.00    +0.000 C 
ATOM      3  C   UNL     1       2.630   6.019  18.866  0.00  0.00    +0.000 C 
ATOM      4  N   UNL     1       2.122   5.136  18.067  0.00  0.00    +0.000 NA
ATOM      5  O   UNL     1       2.764   3.907  18.311  0.00  0.00    +0.000 OA
ENDROOT
BRANCH   3   6
ATOM      6  C   UNL     1       2.230   7.443  18.842  0.00  0.00    +0.000 A 
ATOM      7  C   UNL     1       2.468   8.258  17.738  0.00  0.00    +0.000 A 
ATOM      8  C   UNL     1       2.071   9.603  17.759  0.00  0.00    +0.000 A 
ATOM      9  C   UNL     1       1.457  10.188  18.881  0.00  0.00    +0.000 A 
ATOM     10  C   UNL     1       1.194   9.316  19.958  0.00  0.00    +0.000 A 
ATOM     11  F   UNL     1       0.578   9.745  21.072  0.00  0.00    +0.000 F 
ATOM     12  C   UNL     1       1.575   7.975  19.952  0.00  0.00    +0.000 A 
BRANCH   9  13
ATOM     13  N   UNL     1       1.139  11.537  18.866  0.00  0.00    +0.000 N 
ATOM     14  C   UNL     1       2.130  12.564  18.537  0.00  0.00    +0.000 C 
ATOM     15  C   UNL     1       1.931  13.621  19.614  0.00  0.00    +0.000 C 
ATOM     16  C   UNL     1       0.437  13.566  19.880  0.00  0.00    +0.000 C 
ATOM     17  C   UNL     1       0.062  12.101  19.681  0.00  0.00    +0.000 C 
ENDBRANCH   9  13
ENDBRANCH   3   6
BRANCH   1  18
ATOM     18  C   UNL     1       4.985   3.440  19.131  0.00  0.00    +0.000 C 
BRANCH  18  19
ATOM     19  N   UNL     1       5.572   3.928  17.830  0.00  0.00    +0.000 NA
ATOM     20  H   UNL     1       5.825   3.117  17.254  0.00  0.00    +0.000 HD
BRANCH  19  21
ATOM     21  S   UNL     1       6.909   4.951  18.052  0.00  0.00    +0.000 S 
ATOM     22  O   UNL     1       7.911   4.469  17.143  0.00  0.00    +0.000 OA
ATOM     23  O   UNL     1       7.147   5.032  19.485  0.00  0.00    +0.000 OA
BRANCH  21  25
ATOM     24  C   UNL     1       7.489   7.516  17.308  0.00  0.00    +0.000 C 
ATOM     25  C   UNL     1       6.317   6.564  17.506  0.00  0.00    +0.000 C 
ATOM     26  C   UNL     1       5.534   6.414  16.200  0.00  0.00    +0.000 C 
ENDBRANCH  21  25
ENDBRANCH  19  21
ENDBRANCH  18  19
ENDBRANCH   1  18
TORSDOF 6
ENDMDL
MODEL 7
REMARK VINA RESULT:      -7.2      2.221      3.364
REMARK  Name = 
REMARK  8 active torsions:
REMARK  status: ('A' for Active; 'I' for Inactive)
REMARK    1  A    between atoms: C_1  and  C_2
REMARK    2  A    between atoms: C_2  and  C_3
REMARK    3  A    between atoms: C_2  and  S_4
REMARK    4  A    between atoms: S_4  and  N_7
REMARK    5  A    between atoms: N_7  and  C_8
REMARK    6  A    between atoms: C_8  and  C_9
REMARK    7  A    between atoms: C_11  and  C_12
REMARK    8  A    between atoms: C_15  and  N_16
REMARK                            x       y       z     vdW  Elec       q    Type
REMARK                         _______ _______ _______ _____ _____    ______ ____
ROOT
ATOM      1  C   UNL     1       4.219   4.856  16.807  0.00  0.00    +0.000 C 
ATOM      2  C   UNL     1       3.032   5.377  17.586  0.00  0.00    +0.000 C 
ATOM      3  C   UNL     1       3.431   6.799  17.724  0.00  0.00    +0.000 C 
ATOM      4  N   UNL     1       4.603   7.095  17.260  0.00  0.00    +0.000 NA
ATOM      5  O   UNL     1       5.190   5.912  16.771  0.00  0.00    +0.000 OA
ENDROOT
BRANCH   3   6
ATOM      6  C   UNL     1       2.554   7.798  18.373  0.00  0.00    +0.000 A 
ATOM      7  C   UNL     1       2.114   8.938  17.707  0.00  0.00    +0.000 A 
ATOM      8  C   UNL     1       1.283   9.858  18.362  0.00  0.00    +0.000 A 
ATOM      9  C   UNL     1       0.888   9.692  19.702  0.00  0.00    +0.000 A 
ATOM     10  C   UNL     1       1.318   8.502  20.324  0.00  0.00    +0.000 A 
ATOM     11  F   UNL     1       0.977   8.210  21.589  0.00  0.00    +0.000 F 
ATOM     12  C   UNL     1       2.140   7.573  19.685  0.00  0.00    +0.000 A 
BRANCH   9  13
ATOM     13  N   UNL     1       0.113  10.664  20.316  0.00  0.00    +0.000 N 
ATOM     14  C   UNL     1      -1.106  11.188  19.697  0.00  0.00    +0.000 C 
ATOM     15  C   UNL     1      -0.983  12.696  19.868  0.00  0.00    +0.000 C 
ATOM     16  C   UNL     1      -0.266  12.836  21.200  0.00  0.00    +0.000 C 
ATOM     17  C   UNL     1       0.668  11.631  21.264  0.00  0.00    +0.000 C 
ENDBRANCH   9  13
ENDBRANCH   3   6
BRANCH   1  18
ATOM     18  C   UNL     1       4.861   3.615  17.436  0.00  0.00    +0.000 C 
BRANCH  18  19
ATOM     19  N   UNL     1       4.877   3.631  18.944  0.00  0.00    +0.000 NA
ATOM     20  H   UNL     1       5.850   3.676  19.267  0.00  0.00    +0.000 HD
BRANCH  19  21
ATOM     21  S   UNL     1       4.077   2.298  19.626  0.00  0.00    +0.000 S 
ATOM     22  O   UNL     1       4.940   1.833  20.675  0.00  0.00    +0.000 OA
ATOM     23  O   UNL     1       3.675   1.436  18.525  0.00  0.00    +0.000 OA
BRANCH  21  25
ATOM     24  C   UNL     1       1.377   2.693  19.458  0.00  0.00    +0.000 C 
ATOM     25  C   UNL     1       2.580   3.007  20.338  0.00  0.00    +0.000 C 
ATOM     26  C   UNL     1       2.363   2.451  21.746  0.00  0.00    +0.000 C 
ENDBRANCH  21  25
ENDBRANCH  19  21
ENDBRANCH  18  19
ENDBRANCH   1  18
TORSDOF 6
ENDMDL
MODEL 8
REMARK VINA RESULT:      -7.2      2.453      3.679
REMARK  Name = 
REMARK  8 active torsions:
REMARK  status: ('A' for Active; 'I' for Inactive)
REMARK    1  A    between atoms: C_1  and  C_2
REMARK    2  A    between atoms: C_2  and  C_3
REMARK    3  A    between atoms: C_2  and  S_4
REMARK    4  A    between atoms: S_4  and  N_7
REMARK    5  A    between atoms: N_7  and  C_8
REMARK    6  A    between atoms: C_8  and  C_9
REMARK    7  A    between atoms: C_11  and  C_12
REMARK    8  A    between atoms: C_15  and  N_16
REMARK                            x       y       z     vdW  Elec       q    Type
REMARK                         _______ _______ _______ _____ _____    ______ ____
ROOT
ATOM      1  C   UNL     1       3.823   5.016  17.097  0.00  0.00    +0.000 C 
ATOM      2  C   UNL     1       2.671   5.469  17.967  0.00  0.00    +0.000 C 
ATOM      3  C   UNL     1       3.045   6.893  18.151  0.00  0.00    +0.000 C 
ATOM      4  N   UNL     1       4.180   7.240  17.636  0.00  0.00    +0.000 NA
ATOM      5  O   UNL     1       4.765   6.097  17.058  0.00  0.00    +0.000 OA
ENDROOT
BRANCH   3   6
ATOM      6  C   UNL     1       2.183   7.837  18.896  0.00  0.00    +0.000 A 
ATOM      7  C   UNL     1       1.943   7.697  20.261  0.00  0.00    +0.000 A 
ATOM      8  C   UNL     1       1.120   8.616  20.927  0.00  0.00    +0.000 A 
ATOM      9  C   UNL     1       0.486   9.679  20.259  0.00  0.00    +0.000 A 
ATOM     10  C   UNL     1       0.794   9.811  18.889  0.00  0.00    +0.000 A 
ATOM     11  F   UNL     1       0.282  10.807  18.149  0.00  0.00    +0.000 F 
ATOM     12  C   UNL     1       1.616   8.910  18.212  0.00  0.00    +0.000 A 
BRANCH   9  13
ATOM     13  N   UNL     1      -0.364  10.522  20.959  0.00  0.00    +0.000 N 
ATOM     14  C   UNL     1      -0.454  11.953  20.662  0.00  0.00    +0.000 C 
ATOM     15  C   UNL     1      -0.406  12.613  22.032  0.00  0.00    +0.000 C 
ATOM     16  C   UNL     1      -1.127  11.617  22.923  0.00  0.00    +0.000 C 
ATOM     17  C   UNL     1      -0.781  10.252  22.335  0.00  0.00    +0.000 C 
ENDBRANCH   9  13
ENDBRANCH   3   6
BRANCH   1  18
ATOM     18  C   UNL     1       4.528   3.764  17.628  0.00  0.00    +0.000 C 
BRANCH  18  19
ATOM     19  N   UNL     1       4.573   3.678  19.134  0.00  0.00    +0.000 NA
ATOM     20  H   UNL     1       5.533   3.861  19.450  0.00  0.00    +0.000 HD
BRANCH  19  21
ATOM     21  S   UNL     1       4.019   2.186  19.726  0.00  0.00    +0.000 S 
ATOM     22  O   UNL     1       4.998   1.773  20.691  0.00  0.00    +0.000 OA
ATOM     23  O   UNL     1       3.689   1.368  18.570  0.00  0.00    +0.000 OA
BRANCH  21  25
ATOM     24  C   UNL     1       2.542   4.012  21.124  0.00  0.00    +0.000 C 
ATOM     25  C   UNL     1       2.476   2.598  20.561  0.00  0.00    +0.000 C 
ATOM     26  C   UNL     1       1.307   2.475  19.582  0.00  0.00    +0.000 C 
ENDBRANCH  21  25
ENDBRANCH  19  21
ENDBRANCH  18  19
ENDBRANCH   1  18
TORSDOF 6
ENDMDL
MODEL 9
REMARK VINA RESULT:      -7.2      1.612      2.045
REMARK  Name = 
REMARK  8 active torsions:
REMARK  status: ('A' for Active; 'I' for Inactive)
REMARK    1  A    between atoms: C_1  and  C_2
REMARK    2  A    between atoms: C_2  and  C_3
REMARK    3  A    between atoms: C_2  and  S_4
REMARK    4  A    between atoms: S_4  and  N_7
REMARK    5  A    between atoms: N_7  and  C_8
REMARK    6  A    between atoms: C_8  and  C_9
REMARK    7  A    between atoms: C_11  and  C_12
REMARK    8  A    between atoms: C_15  and  N_16
REMARK                            x       y       z     vdW  Elec       q    Type
REMARK                         _______ _______ _______ _____ _____    ______ ____
ROOT
ATOM      1  C   UNL     1       4.246   4.329  19.371  0.00  0.00    +0.000 C 
ATOM      2  C   UNL     1       4.138   5.837  19.320  0.00  0.00    +0.000 C 
ATOM      3  C   UNL     1       2.685   5.991  19.576  0.00  0.00    +0.000 C 
ATOM      4  N   UNL     1       2.016   4.886  19.660  0.00  0.00    +0.000 NA
ATOM      5  O   UNL     1       2.907   3.818  19.436  0.00  0.00    +0.000 OA
ENDROOT
BRANCH   3   6
ATOM      6  C   UNL     1       2.050   7.321  19.700  0.00  0.00    +0.000 A 
ATOM      7  C   UNL     1       1.431   7.738  20.876  0.00  0.00    +0.000 A 
ATOM      8  C   UNL     1       0.842   9.008  20.947  0.00  0.00    +0.000 A 
ATOM      9  C   UNL     1       0.820   9.889  19.851  0.00  0.00    +0.000 A 
ATOM     10  C   UNL     1       1.498   9.446  18.697  0.00  0.00    +0.000 A 
ATOM     11  F   UNL     1       1.580  10.211  17.597  0.00  0.00    +0.000 F 
ATOM     12  C   UNL     1       2.095   8.189  18.610  0.00  0.00    +0.000 A 
BRANCH   9  13
ATOM     13  N   UNL     1       0.171  11.110  19.963  0.00  0.00    +0.000 N 
ATOM     14  C   UNL     1      -1.100  11.377  19.288  0.00  0.00    +0.000 C 
ATOM     15  C   UNL     1      -0.898  12.750  18.662  0.00  0.00    +0.000 C 
ATOM     16  C   UNL     1      -0.003  13.459  19.662  0.00  0.00    +0.000 C 
ATOM     17  C   UNL     1       0.886  12.358  20.234  0.00  0.00    +0.000 C 
ENDBRANCH   9  13
ENDBRANCH   3   6
BRANCH   1  18
ATOM     18  C   UNL     1       4.945   3.729  18.146  0.00  0.00    +0.000 C 
BRANCH  18  19
ATOM     19  N   UNL     1       6.427   4.004  18.091  0.00  0.00    +0.000 NA
ATOM     20  H   UNL     1       6.731   4.378  18.997  0.00  0.00    +0.000 HD
BRANCH  19  21
ATOM     21  S   UNL     1       6.855   5.057  16.830  0.00  0.00    +0.000 S 
ATOM     22  O   UNL     1       5.611   5.515  16.279  0.00  0.00    +0.000 OA
ATOM     23  O   UNL     1       7.846   4.366  16.019  0.00  0.00    +0.000 OA
BRANCH  21  25
ATOM     24  C   UNL     1       6.907   7.712  17.477  0.00  0.00    +0.000 C 
ATOM     25  C   UNL     1       7.689   6.419  17.667  0.00  0.00    +0.000 C 
ATOM     26  C   UNL     1       7.831   6.102  19.157  0.00  0.00    +0.000 C 
ENDBRANCH  21  25
ENDBRANCH  19  21
ENDBRANCH  18  19
ENDBRANCH   1  18
TORSDOF 6
ENDMDL
