MODEL 1
REMARK VINA RESULT:      -9.0      0.000      0.000
REMARK  Name = 
REMARK  4 active torsions:
REMARK  status: ('A' for Active; 'I' for Inactive)
REMARK    1  A    between atoms: C_1  and  C_2
REMARK    2  A    between atoms: C_2  and  C_3
REMARK    3  A    between atoms: C_5  and  N_6
REMARK    4  A    between atoms: C_7  and  C_9
REMARK                            x       y       z     vdW  Elec       q    Type
REMARK                         _______ _______ _______ _____ _____    ______ ____
ROOT
ATOM      1  C   UNL     1       2.513   5.339  18.945  0.00  0.00    +0.000 A 
ATOM      2  C   UNL     1       1.944   6.323  19.786  0.00  0.00    +0.000 A 
ATOM      3  C   UNL     1       2.028   7.699  19.534  0.00  0.00    +0.000 A 
ATOM      4  C   UNL     1       2.751   8.114  18.414  0.00  0.00    +0.000 A 
ATOM      5  C   UNL     1       3.355   7.165  17.576  0.00  0.00    +0.000 A 
ATOM      6  C   UNL     1       3.228   5.799  17.840  0.00  0.00    +0.000 A 
ATOM      7  F   UNL     1       3.818   4.951  16.984  0.00  0.00    +0.000 F 
ENDROOT
BRANCH   1   9
ATOM      8  C   UNL     1       1.523   3.038  18.286  0.00  0.00    +0.000 C 
ATOM      9  C   UNL     1       2.303   3.865  19.333  0.00  0.00    +0.000 C 
ATOM     10  C   UNL     1       1.511   3.793  20.654  0.00  0.00    +0.000 C 
ATOM     11  C   UNL     1       2.140   3.010  21.786  0.00  0.00    +0.000 C 
ATOM     12  O   UNL     1       3.311   2.261  21.488  0.00  0.00    +0.000 OA
ATOM     13  C   UNL     1       3.984   2.486  20.356  0.00  0.00    +0.000 C 
ATOM     14  N   UNL     1       5.148   1.804  20.347  0.00  0.00    +0.000 N 
ATOM     15  N   UNL     1       3.616   3.225  19.389  0.00  0.00    +0.000 NA
ATOM     16  H   UNL     1       5.513   1.562  21.258  0.00  0.00    +0.000 HD
ATOM     17  H   UNL     1       5.822   2.146  19.675  0.00  0.00    +0.000 HD
ENDBRANCH   1   9
BRANCH   3  18
ATOM     18  N   UNL     1       1.397   8.674  20.347  0.00  0.00    +0.000 N 
ATOM     19  C   UNL     1       0.499   9.641  19.908  0.00  0.00    +0.000 C 
ATOM     20  O   UNL     1       0.065   9.742  18.768  0.00  0.00    +0.000 OA
ATOM     21  H   UNL     1       1.643   8.710  21.331  0.00  0.00    +0.000 HD
BRANCH  19  22
ATOM     22  C   UNL     1       0.056  10.638  20.928  0.00  0.00    +0.000 A 
ATOM     23  N   UNL     1       0.278  11.962  20.653  0.00  0.00    +0.000 NA
ATOM     24  C   UNL     1      -0.173  12.835  21.593  0.00  0.00    +0.000 A 
ATOM     25  C   UNL     1      -0.829  12.459  22.760  0.00  0.00    +0.000 A 
ATOM     26  F   UNL     1      -1.262  13.379  23.628  0.00  0.00    +0.000 F 
ATOM     27  C   UNL     1      -1.038  11.116  23.016  0.00  0.00    +0.000 A 
ATOM     28  C   UNL     1      -0.586  10.193  22.090  0.00  0.00    +0.000 A 
ATOM     29  F   UNL     1      -0.799   8.894  22.342  0.00  0.00    +0.000 F 
ENDBRANCH  19  22
ENDBRANCH   3  18
TORSDOF 3
ENDMDL
MODEL 2
REMARK VINA RESULT:      -8.7      1.113      1.119
REMARK  Name = 
REMARK  4 active torsions:
REMARK  status: ('A' for Active; 'I' for Inactive)
REMARK    1  A    between atoms: C_1  and  C_2
REMARK    2  A    between atoms: C_2  and  C_3
REMARK    3  A    between atoms: C_5  and  N_6
REMARK    4  A    between atoms: C_7  and  C_9
REMARK                            x       y       z     vdW  Elec       q    Type
REMARK                         _______ _______ _______ _____ _____    ______ ____
ROOT
ATOM      1  C   UNL     1       2.746   5.281  18.674  0.00  0.00    +0.000 A 
ATOM      2  C   UNL     1       2.042   6.336  19.301  0.00  0.00    +0.000 A 
ATOM      3  C   UNL     1       2.184   7.682  18.941  0.00  0.00    +0.000 A 
ATOM      4  C   UNL     1       3.103   7.996  17.938  0.00  0.00    +0.000 A 
ATOM      5  C   UNL     1       3.840   6.977  17.317  0.00  0.00    +0.000 A 
ATOM      6  C   UNL     1       3.654   5.641  17.679  0.00  0.00    +0.000 A 
ATOM      7  F   UNL     1       4.381   4.721  17.029  0.00  0.00    +0.000 F 
ENDROOT
BRANCH   1   9
ATOM      8  C   UNL     1       1.667   2.988  18.140  0.00  0.00    +0.000 C 
ATOM      9  C   UNL     1       2.454   3.849  19.153  0.00  0.00    +0.000 C 
ATOM     10  C   UNL     1       1.621   3.904  20.450  0.00  0.00    +0.000 C 
ATOM     11  C   UNL     1       2.179   3.173  21.652  0.00  0.00    +0.000 C 
ATOM     12  O   UNL     1       3.320   2.353  21.444  0.00  0.00    +0.000 OA
ATOM     13  C   UNL     1       4.036   2.468  20.321  0.00  0.00    +0.000 C 
ATOM     14  N   UNL     1       5.167   1.735  20.397  0.00  0.00    +0.000 N 
ATOM     15  N   UNL     1       3.733   3.155  19.296  0.00  0.00    +0.000 NA
ATOM     16  H   UNL     1       5.493   1.540  21.333  0.00  0.00    +0.000 HD
ATOM     17  H   UNL     1       5.875   1.998  19.725  0.00  0.00    +0.000 HD
ENDBRANCH   1   9
BRANCH   3  18
ATOM     18  N   UNL     1       1.425   8.725  19.531  0.00  0.00    +0.000 N 
ATOM     19  C   UNL     1       1.056   8.804  20.870  0.00  0.00    +0.000 C 
ATOM     20  O   UNL     1       1.397   8.023  21.748  0.00  0.00    +0.000 OA
ATOM     21  H   UNL     1       1.078   9.465  18.930  0.00  0.00    +0.000 HD
BRANCH  19  22
ATOM     22  C   UNL     1       0.153   9.935  21.236  0.00  0.00    +0.000 A 
ATOM     23  N   UNL     1      -0.301  10.734  20.220  0.00  0.00    +0.000 NA
ATOM     24  C   UNL     1      -1.149  11.729  20.596  0.00  0.00    +0.000 A 
ATOM     25  C   UNL     1      -1.563  11.952  21.904  0.00  0.00    +0.000 A 
ATOM     26  F   UNL     1      -2.416  12.940  22.193  0.00  0.00    +0.000 F 
ATOM     27  C   UNL     1      -1.087  11.134  22.914  0.00  0.00    +0.000 A 
ATOM     28  C   UNL     1      -0.214  10.114  22.576  0.00  0.00    +0.000 A 
ATOM     29  F   UNL     1       0.236   9.322  23.558  0.00  0.00    +0.000 F 
ENDBRANCH  19  22
ENDBRANCH   3  18
TORSDOF 3
ENDMDL
MODEL 3
REMARK VINA RESULT:      -8.6      1.087      1.354
REMARK  Name = 
REMARK  4 active torsions:
REMARK  status: ('A' for Active; 'I' for Inactive)
REMARK    1  A    between atoms: C_1  and  C_2
REMARK    2  A    between atoms: C_2  and  C_3
REMARK    3  A    between atoms: C_5  and  N_6
REMARK    4  A    between atoms: C_7  and  C_9
REMARK                            x       y       z     vdW  Elec       q    Type
REMARK                         _______ _______ _______ _____ _____    ______ ____
ROOT
ATOM      1  C   UNL     1       2.461   5.457  18.961  0.00  0.00    +0.000 A 
ATOM      2  C   UNL     1       1.873   6.443  19.788  0.00  0.00    +0.000 A 
ATOM      3  C   UNL     1       1.969   7.819  19.538  0.00  0.00    +0.000 A 
ATOM      4  C   UNL     1       2.722   8.231  18.437  0.00  0.00    +0.000 A 
ATOM      5  C   UNL     1       3.342   7.280  17.614  0.00  0.00    +0.000 A 
ATOM      6  C   UNL     1       3.204   5.914  17.874  0.00  0.00    +0.000 A 
ATOM      7  F   UNL     1       3.812   5.065  17.034  0.00  0.00    +0.000 F 
ENDROOT
BRANCH   1   9
ATOM      8  C   UNL     1       1.413   3.179  18.313  0.00  0.00    +0.000 C 
ATOM      9  C   UNL     1       2.235   3.984  19.344  0.00  0.00    +0.000 C 
ATOM     10  C   UNL     1       1.478   3.915  20.685  0.00  0.00    +0.000 C 
ATOM     11  C   UNL     1       2.125   3.112  21.794  0.00  0.00    +0.000 C 
ATOM     12  O   UNL     1       3.273   2.346  21.459  0.00  0.00    +0.000 OA
ATOM     13  C   UNL     1       3.920   2.568  20.310  0.00  0.00    +0.000 C 
ATOM     14  N   UNL     1       5.071   1.866  20.264  0.00  0.00    +0.000 N 
ATOM     15  N   UNL     1       3.539   3.322  19.359  0.00  0.00    +0.000 NA
ATOM     16  H   UNL     1       5.457   1.611  21.163  0.00  0.00    +0.000 HD
ATOM     17  H   UNL     1       5.732   2.202  19.576  0.00  0.00    +0.000 HD
ENDBRANCH   1   9
BRANCH   3  18
ATOM     18  N   UNL     1       1.322   8.796  20.336  0.00  0.00    +0.000 N 
ATOM     19  C   UNL     1       0.433   9.763  19.875  0.00  0.00    +0.000 C 
ATOM     20  O   UNL     1       0.024   9.862  18.726  0.00  0.00    +0.000 OA
ATOM     21  H   UNL     1       1.546   8.834  21.324  0.00  0.00    +0.000 HD
BRANCH  19  22
ATOM     22  C   UNL     1      -0.030  10.762  20.882  0.00  0.00    +0.000 A 
ATOM     23  N   UNL     1      -0.702  10.287  21.978  0.00  0.00    +0.000 NA
ATOM     24  C   UNL     1      -1.074  11.230  22.886  0.00  0.00    +0.000 A 
ATOM     25  C   UNL     1      -0.803  12.587  22.761  0.00  0.00    +0.000 A 
ATOM     26  F   UNL     1      -1.183  13.452  23.708  0.00  0.00    +0.000 F 
ATOM     27  C   UNL     1      -0.126  13.042  21.643  0.00  0.00    +0.000 A 
ATOM     28  C   UNL     1       0.262  12.118  20.689  0.00  0.00    +0.000 A 
ATOM     29  F   UNL     1       0.924  12.566  19.613  0.00  0.00    +0.000 F 
ENDBRANCH  19  22
ENDBRANCH   3  18
TORSDOF 3
ENDMDL
MODEL 4
REMARK VINA RESULT:      -8.6      1.438      1.618
REMARK  Name = 
REMARK  4 active torsions:
REMARK  status: ('A' for Active; 'I' for Inactive)
REMARK    1  A    between atoms: C_1  and  C_2
REMARK    2  A    between atoms: C_2  and  C_3
REMARK    3  A    between atoms: C_5  and  N_6
REMARK    4  A    between atoms: C_7  and  C_9
REMARK                            x       y       z     vdW  Elec       q    Type
REMARK                         _______ _______ _______ _____ _____    ______ ____
ROOT
ATOM      1  C   UNL     1       2.968   5.127  18.478  0.00  0.00    +0.000 A 
ATOM      2  C   UNL     1       2.276   6.245  19.001  0.00  0.00    +0.000 A 
ATOM      3  C   UNL     1       2.480   7.558  18.557  0.00  0.00    +0.000 A 
ATOM      4  C   UNL     1       3.450   7.771  17.575  0.00  0.00    +0.000 A 
ATOM      5  C   UNL     1       4.175   6.689  17.057  0.00  0.00    +0.000 A 
ATOM      6  C   UNL     1       3.928   5.388  17.501  0.00  0.00    +0.000 A 
ATOM      7  F   UNL     1       4.649   4.403  16.947  0.00  0.00    +0.000 F 
ENDROOT
BRANCH   1   9
ATOM      8  C   UNL     1       1.845   2.833  18.050  0.00  0.00    +0.000 C 
ATOM      9  C   UNL     1       2.607   3.742  19.040  0.00  0.00    +0.000 C 
ATOM     10  C   UNL     1       1.711   3.913  20.284  0.00  0.00    +0.000 C 
ATOM     11  C   UNL     1       2.184   3.254  21.562  0.00  0.00    +0.000 C 
ATOM     12  O   UNL     1       3.308   2.389  21.472  0.00  0.00    +0.000 OA
ATOM     13  C   UNL     1       4.084   2.404  20.384  0.00  0.00    +0.000 C 
ATOM     14  N   UNL     1       5.185   1.647  20.570  0.00  0.00    +0.000 N 
ATOM     15  N   UNL     1       3.855   3.024  19.298  0.00  0.00    +0.000 NA
ATOM     16  H   UNL     1       5.457   1.510  21.533  0.00  0.00    +0.000 HD
ATOM     17  H   UNL     1       5.934   1.841  19.919  0.00  0.00    +0.000 HD
ENDBRANCH   1   9
BRANCH   3  18
ATOM     18  N   UNL     1       1.734   8.662  19.041  0.00  0.00    +0.000 N 
ATOM     19  C   UNL     1       1.214   8.791  20.324  0.00  0.00    +0.000 C 
ATOM     20  O   UNL     1       1.388   8.004  21.245  0.00  0.00    +0.000 OA
ATOM     21  H   UNL     1       1.517   9.415  18.396  0.00  0.00    +0.000 HD
BRANCH  19  22
ATOM     22  C   UNL     1       0.359   9.991  20.569  0.00  0.00    +0.000 A 
ATOM     23  N   UNL     1       0.578  10.697  21.722  0.00  0.00    +0.000 NA
ATOM     24  C   UNL     1      -0.199  11.802  21.885  0.00  0.00    +0.000 A 
ATOM     25  C   UNL     1      -1.153  12.230  20.968  0.00  0.00    +0.000 A 
ATOM     26  F   UNL     1      -1.865  13.340  21.190  0.00  0.00    +0.000 F 
ATOM     27  C   UNL     1      -1.358  11.497  19.813  0.00  0.00    +0.000 A 
ATOM     28  C   UNL     1      -0.595  10.361  19.612  0.00  0.00    +0.000 A 
ATOM     29  F   UNL     1      -0.795   9.660  18.487  0.00  0.00    +0.000 F 
ENDBRANCH  19  22
ENDBRANCH   3  18
TORSDOF 3
ENDMDL
MODEL 5
REMARK VINA RESULT:      -8.6      1.082      1.547
REMARK  Name = 
REMARK  4 active torsions:
REMARK  status: ('A' for Active; 'I' for Inactive)
REMARK    1  A    between atoms: C_1  and  C_2
REMARK    2  A    between atoms: C_2  and  C_3
REMARK    3  A    between atoms: C_5  and  N_6
REMARK    4  A    between atoms: C_7  and  C_9
REMARK                            x       y       z     vdW  Elec       q    Type
REMARK                         _______ _______ _______ _____ _____    ______ ____
ROOT
ATOM      1  C   UNL     1       3.081   5.364  18.611  0.00  0.00    +0.000 A 
ATOM      2  C   UNL     1       2.439   6.265  19.493  0.00  0.00    +0.000 A 
ATOM      3  C   UNL     1       2.338   7.642  19.253  0.00  0.00    +0.000 A 
ATOM      4  C   UNL     1       2.944   8.149  18.102  0.00  0.00    +0.000 A 
ATOM      5  C   UNL     1       3.615   7.288  17.223  0.00  0.00    +0.000 A 
ATOM      6  C   UNL     1       3.673   5.915  17.476  0.00  0.00    +0.000 A 
ATOM      7  F   UNL     1       4.317   5.153  16.580  0.00  0.00    +0.000 F 
ENDROOT
BRANCH   1   9
ATOM      8  C   UNL     1       4.452   3.182  18.868  0.00  0.00    +0.000 C 
ATOM      9  C   UNL     1       3.076   3.873  18.991  0.00  0.00    +0.000 C 
ATOM     10  C   UNL     1       2.099   3.114  18.070  0.00  0.00    +0.000 C 
ATOM     11  C   UNL     1       1.009   2.310  18.746  0.00  0.00    +0.000 C 
ATOM     12  O   UNL     1       1.080   2.172  20.158  0.00  0.00    +0.000 OA
ATOM     13  C   UNL     1       1.886   2.964  20.872  0.00  0.00    +0.000 C 
ATOM     14  N   UNL     1       1.677   2.795  22.194  0.00  0.00    +0.000 N 
ATOM     15  N   UNL     1       2.752   3.776  20.414  0.00  0.00    +0.000 NA
ATOM     16  H   UNL     1       0.766   2.437  22.444  0.00  0.00    +0.000 HD
ATOM     17  H   UNL     1       2.031   3.549  22.768  0.00  0.00    +0.000 HD
ENDBRANCH   1   9
BRANCH   3  18
ATOM     18  N   UNL     1       1.636   8.526  20.110  0.00  0.00    +0.000 N 
ATOM     19  C   UNL     1       0.703   9.477  19.708  0.00  0.00    +0.000 C 
ATOM     20  O   UNL     1       0.298   9.637  18.565  0.00  0.00    +0.000 OA
ATOM     21  H   UNL     1       1.850   8.505  21.102  0.00  0.00    +0.000 HD
BRANCH  19  22
ATOM     22  C   UNL     1       0.181  10.378  20.779  0.00  0.00    +0.000 A 
ATOM     23  N   UNL     1       0.343  11.727  20.602  0.00  0.00    +0.000 NA
ATOM     24  C   UNL     1      -0.179  12.509  21.584  0.00  0.00    +0.000 A 
ATOM     25  C   UNL     1      -0.849  12.022  22.701  0.00  0.00    +0.000 A 
ATOM     26  F   UNL     1      -1.353  12.857  23.615  0.00  0.00    +0.000 F 
ATOM     27  C   UNL     1      -0.995  10.655  22.859  0.00  0.00    +0.000 A 
ATOM     28  C   UNL     1      -0.470   9.822  21.887  0.00  0.00    +0.000 A 
ATOM     29  F   UNL     1      -0.623   8.500  22.043  0.00  0.00    +0.000 F 
ENDBRANCH  19  22
ENDBRANCH   3  18
TORSDOF 3
ENDMDL
MODEL 6
REMARK VINA RESULT:      -8.6      3.354      4.379
REMARK  Name = 
REMARK  4 active torsions:
REMARK  status: ('A' for Active; 'I' for Inactive)
REMARK    1  A    between atoms: C_1  and  C_2
REMARK    2  A    between atoms: C_2  and  C_3
REMARK    3  A    between atoms: C_5  and  N_6
REMARK    4  A    between atoms: C_7  and  C_9
REMARK                            x       y       z     vdW  Elec       q    Type
REMARK                         _______ _______ _______ _____ _____    ______ ____
ROOT
ATOM      1  C   UNL     1       4.895   5.245  17.399  0.00  0.00    +0.000 A 
ATOM      2  C   UNL     1       4.111   6.282  17.957  0.00  0.00    +0.000 A 
ATOM      3  C   UNL     1       2.743   6.153  18.233  0.00  0.00    +0.000 A 
ATOM      4  C   UNL     1       2.120   4.949  17.899  0.00  0.00    +0.000 A 
ATOM      5  C   UNL     1       2.862   3.912  17.317  0.00  0.00    +0.000 A 
ATOM      6  C   UNL     1       4.231   4.061  17.080  0.00  0.00    +0.000 A 
ATOM      7  F   UNL     1       4.877   3.020  16.537  0.00  0.00    +0.000 F 
ENDROOT
BRANCH   1   9
ATOM      8  C   UNL     1       6.970   4.940  15.879  0.00  0.00    +0.000 C 
ATOM      9  C   UNL     1       6.393   5.523  17.189  0.00  0.00    +0.000 C 
ATOM     10  C   UNL     1       7.196   4.909  18.353  0.00  0.00    +0.000 C 
ATOM     11  C   UNL     1       8.106   5.842  19.123  0.00  0.00    +0.000 C 
ATOM     12  O   UNL     1       8.285   7.153  18.604  0.00  0.00    +0.000 OA
ATOM     13  C   UNL     1       7.456   7.625  17.668  0.00  0.00    +0.000 C 
ATOM     14  N   UNL     1       7.686   8.935  17.441  0.00  0.00    +0.000 N 
ATOM     15  N   UNL     1       6.564   6.968  17.044  0.00  0.00    +0.000 NA
ATOM     16  H   UNL     1       8.123   9.435  18.203  0.00  0.00    +0.000 HD
ATOM     17  H   UNL     1       6.926   9.413  16.974  0.00  0.00    +0.000 HD
ENDBRANCH   1   9
BRANCH   3  18
ATOM     18  N   UNL     1       1.980   7.175  18.853  0.00  0.00    +0.000 N 
ATOM     19  C   UNL     1       1.799   8.464  18.363  0.00  0.00    +0.000 C 
ATOM     20  O   UNL     1       2.210   8.881  17.288  0.00  0.00    +0.000 OA
ATOM     21  H   UNL     1       1.557   6.979  19.754  0.00  0.00    +0.000 HD
BRANCH  19  22
ATOM     22  C   UNL     1       1.053   9.405  19.250  0.00  0.00    +0.000 A 
ATOM     23  N   UNL     1       1.507   9.555  20.534  0.00  0.00    +0.000 NA
ATOM     24  C   UNL     1       0.819  10.448  21.295  0.00  0.00    +0.000 A 
ATOM     25  C   UNL     1      -0.267  11.190  20.842  0.00  0.00    +0.000 A 
ATOM     26  F   UNL     1      -0.881  12.065  21.644  0.00  0.00    +0.000 F 
ATOM     27  C   UNL     1      -0.709  11.017  19.542  0.00  0.00    +0.000 A 
ATOM     28  C   UNL     1      -0.042  10.111  18.736  0.00  0.00    +0.000 A 
ATOM     29  F   UNL     1      -0.472   9.956  17.476  0.00  0.00    +0.000 F 
ENDBRANCH  19  22
ENDBRANCH   3  18
TORSDOF 3
ENDMDL
MODEL 7
REMARK VINA RESULT:      -8.6      3.285      4.255
REMARK  Name = 
REMARK  4 active torsions:
REMARK  status: ('A' for Active; 'I' for Inactive)
REMARK    1  A    between atoms: C_1  and  C_2
REMARK    2  A    between atoms: C_2  and  C_3
REMARK    3  A    between atoms: C_5  and  N_6
REMARK    4  A    between atoms: C_7  and  C_9
REMARK                            x       y       z     vdW  Elec       q    Type
REMARK                         _______ _______ _______ _____ _____    ______ ____
ROOT
ATOM      1  C   UNL     1       4.851   5.232  17.371  0.00  0.00    +0.000 A 
ATOM      2  C   UNL     1       4.064   6.286  17.891  0.00  0.00    +0.000 A 
ATOM      3  C   UNL     1       2.697   6.163  18.174  0.00  0.00    +0.000 A 
ATOM      4  C   UNL     1       2.078   4.946  17.884  0.00  0.00    +0.000 A 
ATOM      5  C   UNL     1       2.823   3.891  17.339  0.00  0.00    +0.000 A 
ATOM      6  C   UNL     1       4.191   4.036  17.095  0.00  0.00    +0.000 A 
ATOM      7  F   UNL     1       4.841   2.978  16.589  0.00  0.00    +0.000 F 
ENDROOT
BRANCH   1   9
ATOM      8  C   UNL     1       6.907   4.950  15.821  0.00  0.00    +0.000 C 
ATOM      9  C   UNL     1       6.348   5.508  17.149  0.00  0.00    +0.000 C 
ATOM     10  C   UNL     1       7.161   4.866  18.292  0.00  0.00    +0.000 C 
ATOM     11  C   UNL     1       8.084   5.779  19.070  0.00  0.00    +0.000 C 
ATOM     12  O   UNL     1       8.264   7.099  18.576  0.00  0.00    +0.000 OA
ATOM     13  C   UNL     1       7.427   7.595  17.659  0.00  0.00    +0.000 C 
ATOM     14  N   UNL     1       7.660   8.908  17.457  0.00  0.00    +0.000 N 
ATOM     15  N   UNL     1       6.525   6.955  17.032  0.00  0.00    +0.000 NA
ATOM     16  H   UNL     1       8.108   9.390  18.224  0.00  0.00    +0.000 HD
ATOM     17  H   UNL     1       6.898   9.399  17.009  0.00  0.00    +0.000 HD
ENDBRANCH   1   9
BRANCH   3  18
ATOM     18  N   UNL     1       1.931   7.204  18.757  0.00  0.00    +0.000 N 
ATOM     19  C   UNL     1       1.860   8.516  18.298  0.00  0.00    +0.000 C 
ATOM     20  O   UNL     1       2.389   8.942  17.280  0.00  0.00    +0.000 OA
ATOM     21  H   UNL     1       1.416   7.003  19.607  0.00  0.00    +0.000 HD
BRANCH  19  22
ATOM     22  C   UNL     1       1.082   9.467  19.146  0.00  0.00    +0.000 A 
ATOM     23  N   UNL     1       0.359  10.438  18.503  0.00  0.00    +0.000 NA
ATOM     24  C   UNL     1      -0.362  11.258  19.314  0.00  0.00    +0.000 A 
ATOM     25  C   UNL     1      -0.404  11.151  20.699  0.00  0.00    +0.000 A 
ATOM     26  F   UNL     1      -1.154  11.984  21.428  0.00  0.00    +0.000 F 
ATOM     27  C   UNL     1       0.338  10.164  21.324  0.00  0.00    +0.000 A 
ATOM     28  C   UNL     1       1.094   9.313  20.538  0.00  0.00    +0.000 A 
ATOM     29  F   UNL     1       1.803   8.355  21.150  0.00  0.00    +0.000 F 
ENDBRANCH  19  22
ENDBRANCH   3  18
TORSDOF 3
ENDMDL
MODEL 8
REMARK VINA RESULT:      -8.5      3.538      4.453
REMARK  Name = 
REMARK  4 active torsions:
REMARK  status: ('A' for Active; 'I' for Inactive)
REMARK    1  A    between atoms: C_1  and  C_2
REMARK    2  A    between atoms: C_2  and  C_3
REMARK    3  A    between atoms: C_5  and  N_6
REMARK    4  A    between atoms: C_7  and  C_9
REMARK                            x       y       z     vdW  Elec       q    Type
REMARK                         _______ _______ _______ _____ _____    ______ ____
ROOT
ATOM      1  C   UNL     1       4.673   5.661  17.471  0.00  0.00    +0.000 A 
ATOM      2  C   UNL     1       3.992   6.891  17.626  0.00  0.00    +0.000 A 
ATOM      3  C   UNL     1       2.617   6.988  17.875  0.00  0.00    +0.000 A 
ATOM      4  C   UNL     1       1.879   5.804  17.929  0.00  0.00    +0.000 A 
ATOM      5  C   UNL     1       2.518   4.569  17.749  0.00  0.00    +0.000 A 
ATOM      6  C   UNL     1       3.897   4.505  17.531  0.00  0.00    +0.000 A 
ATOM      7  F   UNL     1       4.439   3.288  17.385  0.00  0.00    +0.000 F 
ENDROOT
BRANCH   1   9
ATOM      8  C   UNL     1       6.663   5.032  15.937  0.00  0.00    +0.000 C 
ATOM      9  C   UNL     1       6.193   5.715  17.241  0.00  0.00    +0.000 C 
ATOM     10  C   UNL     1       6.912   5.012  18.410  0.00  0.00    +0.000 C 
ATOM     11  C   UNL     1       7.958   5.817  19.152  0.00  0.00    +0.000 C 
ATOM     12  O   UNL     1       8.318   7.078  18.606  0.00  0.00    +0.000 OA
ATOM     13  C   UNL     1       7.555   7.649  17.669  0.00  0.00    +0.000 C 
ATOM     14  N   UNL     1       7.970   8.907  17.415  0.00  0.00    +0.000 N 
ATOM     15  N   UNL     1       6.570   7.117  17.066  0.00  0.00    +0.000 NA
ATOM     16  H   UNL     1       8.484   9.352  18.162  0.00  0.00    +0.000 HD
ATOM     17  H   UNL     1       7.282   9.482  16.946  0.00  0.00    +0.000 HD
ENDBRANCH   1   9
BRANCH   3  18
ATOM     18  N   UNL     1       1.956   8.223  18.095  0.00  0.00    +0.000 N 
ATOM     19  C   UNL     1       1.566   8.727  19.331  0.00  0.00    +0.000 C 
ATOM     20  O   UNL     1       1.804   8.213  20.416  0.00  0.00    +0.000 OA
ATOM     21  H   UNL     1       1.701   8.781  17.287  0.00  0.00    +0.000 HD
BRANCH  19  22
ATOM     22  C   UNL     1       0.776   9.994  19.304  0.00  0.00    +0.000 A 
ATOM     23  N   UNL     1      -0.455   9.982  19.905  0.00  0.00    +0.000 NA
ATOM     24  C   UNL     1      -1.123  11.167  19.887  0.00  0.00    +0.000 A 
ATOM     25  C   UNL     1      -0.628  12.337  19.322  0.00  0.00    +0.000 A 
ATOM     26  F   UNL     1      -1.336  13.470  19.362  0.00  0.00    +0.000 F 
ATOM     27  C   UNL     1       0.617  12.321  18.717  0.00  0.00    +0.000 A 
ATOM     28  C   UNL     1       1.326  11.134  18.705  0.00  0.00    +0.000 A 
ATOM     29  F   UNL     1       2.534  11.129  18.124  0.00  0.00    +0.000 F 
ENDBRANCH  19  22
ENDBRANCH   3  18
TORSDOF 3
ENDMDL
MODEL 9
REMARK VINA RESULT:      -8.5      3.310      4.163
REMARK  Name = 
REMARK  4 active torsions:
REMARK  status: ('A' for Active; 'I' for Inactive)
REMARK    1  A    between atoms: C_1  and  C_2
REMARK    2  A    between atoms: C_2  and  C_3
REMARK    3  A    between atoms: C_5  and  N_6
REMARK    4  A    between atoms: C_7  and  C_9
REMARK                            x       y       z     vdW  Elec       q    Type
REMARK                         _______ _______ _______ _____ _____    ______ ____
ROOT
ATOM      1  C   UNL     1       4.668   5.595  17.469  0.00  0.00    +0.000 A 
ATOM      2  C   UNL     1       4.004   6.823  17.695  0.00  0.00    +0.000 A 
ATOM      3  C   UNL     1       2.629   6.923  17.948  0.00  0.00    +0.000 A 
ATOM      4  C   UNL     1       1.876   5.747  17.933  0.00  0.00    +0.000 A 
ATOM      5  C   UNL     1       2.498   4.517  17.682  0.00  0.00    +0.000 A 
ATOM      6  C   UNL     1       3.877   4.447  17.461  0.00  0.00    +0.000 A 
ATOM      7  F   UNL     1       4.403   3.234  17.245  0.00  0.00    +0.000 F 
ENDROOT
BRANCH   1   9
ATOM      8  C   UNL     1       6.661   4.943  15.948  0.00  0.00    +0.000 C 
ATOM      9  C   UNL     1       6.189   5.642  17.243  0.00  0.00    +0.000 C 
ATOM     10  C   UNL     1       6.903   4.949  18.422  0.00  0.00    +0.000 C 
ATOM     11  C   UNL     1       7.948   5.758  19.159  0.00  0.00    +0.000 C 
ATOM     12  O   UNL     1       8.314   7.013  18.601  0.00  0.00    +0.000 OA
ATOM     13  C   UNL     1       7.556   7.576  17.655  0.00  0.00    +0.000 C 
ATOM     14  N   UNL     1       7.974   8.831  17.389  0.00  0.00    +0.000 N 
ATOM     15  N   UNL     1       6.571   7.041  17.055  0.00  0.00    +0.000 NA
ATOM     16  H   UNL     1       8.487   9.281  18.134  0.00  0.00    +0.000 HD
ATOM     17  H   UNL     1       7.290   9.402  16.911  0.00  0.00    +0.000 HD
ENDBRANCH   1   9
BRANCH   3  18
ATOM     18  N   UNL     1       1.984   8.152  18.239  0.00  0.00    +0.000 N 
ATOM     19  C   UNL     1       1.630   8.604  19.506  0.00  0.00    +0.000 C 
ATOM     20  O   UNL     1       1.891   8.041  20.560  0.00  0.00    +0.000 OA
ATOM     21  H   UNL     1       1.713   8.747  17.463  0.00  0.00    +0.000 HD
BRANCH  19  22
ATOM     22  C   UNL     1       0.850   9.876  19.554  0.00  0.00    +0.000 A 
ATOM     23  N   UNL     1       1.279  10.909  18.763  0.00  0.00    +0.000 NA
ATOM     24  C   UNL     1       0.518  12.036  18.812  0.00  0.00    +0.000 A 
ATOM     25  C   UNL     1      -0.630  12.172  19.586  0.00  0.00    +0.000 A 
ATOM     26  F   UNL     1      -1.338  13.306  19.567  0.00  0.00    +0.000 F 
ATOM     27  C   UNL     1      -1.040  11.115  20.380  0.00  0.00    +0.000 A 
ATOM     28  C   UNL     1      -0.288   9.954  20.367  0.00  0.00    +0.000 A 
ATOM     29  F   UNL     1      -0.697   8.932  21.132  0.00  0.00    +0.000 F 
ENDBRANCH  19  22
ENDBRANCH   3  18
TORSDOF 3
ENDMDL
