MODEL 1
REMARK VINA RESULT:      -7.4      0.000      0.000
REMARK  Name = 
REMARK  8 active torsions:
REMARK  status: ('A' for Active; 'I' for Inactive)
REMARK    1  A    between atoms: C_1  and  O_2
REMARK    2  A    between atoms: O_2  and  C_3
REMARK    3  A    between atoms: C_5  and  O_6
REMARK    4  A    between atoms: O_6  and  C_7
REMARK    5  A    between atoms: C_9  and  C_10
REMARK    6  A    between atoms: C_20  and  C_21
REMARK    7  A    between atoms: N_23  and  N_24
REMARK    8  A    between atoms: C_25  and  C_27
REMARK                            x       y       z     vdW  Elec       q    Type
REMARK                         _______ _______ _______ _____ _____    ______ ____
ROOT
ATOM      1  C   UNL     1       1.844   7.305  20.092  0.00  0.00    +0.000 A 
ATOM      2  C   UNL     1       1.036   7.677  21.167  0.00  0.00    +0.000 A 
ATOM      3  C   UNL     1       0.393   8.917  21.218  0.00  0.00    +0.000 A 
ATOM      4  C   UNL     1       0.626   9.855  20.177  0.00  0.00    +0.000 A 
ATOM      5  C   UNL     1       0.178  11.207  19.917  0.00  0.00    +0.000 A 
ATOM      6  C   UNL     1       0.704  11.568  18.692  0.00  0.00    +0.000 A 
ATOM      7  N   UNL     1       1.467  10.531  18.225  0.00  0.00    +0.000 N 
ATOM      8  C   UNL     1       1.447   9.470  19.109  0.00  0.00    +0.000 A 
ATOM      9  C   UNL     1       2.077   8.201  19.026  0.00  0.00    +0.000 A 
ATOM     10  H   UNL     1       1.975  10.510  17.345  0.00  0.00    +0.000 HD
ENDROOT
BRANCH   5  11
ATOM     11  C   UNL     1      -0.695  12.074  20.714  0.00  0.00    +0.000 A 
ATOM     12  C   UNL     1      -0.167  12.827  21.774  0.00  0.00    +0.000 A 
ATOM     13  C   UNL     1      -0.998  13.495  22.678  0.00  0.00    +0.000 A 
ATOM     14  C   UNL     1      -2.370  13.495  22.473  0.00  0.00    +0.000 A 
ATOM     15 CL   UNL     1      -3.400  14.297  23.593  0.00  0.00    +0.000 Cl
ATOM     16  C   UNL     1      -2.912  12.844  21.366  0.00  0.00    +0.000 A 
ATOM     17  C   UNL     1      -2.079  12.127  20.495  0.00  0.00    +0.000 A 
ENDBRANCH   5  11
BRANCH   9  18
ATOM     18  C   UNL     1       2.910   7.877  17.817  0.00  0.00    +0.000 C 
ATOM     19  O   UNL     1       2.694   8.426  16.736  0.00  0.00    +0.000 OA
ATOM     20  N   UNL     1       3.911   6.942  17.984  0.00  0.00    +0.000 N 
ATOM     21  H   UNL     1       4.104   6.506  18.887  0.00  0.00    +0.000 HD
BRANCH  20  22
ATOM     22  N   UNL     1       4.722   6.568  16.912  0.00  0.00    +0.000 N 
ATOM     23  C   UNL     1       4.707   5.249  16.492  0.00  0.00    +0.000 C 
ATOM     24  O   UNL     1       4.001   4.401  17.033  0.00  0.00    +0.000 OA
ATOM     25  H   UNL     1       5.255   7.302  16.461  0.00  0.00    +0.000 HD
BRANCH  23  26
ATOM     26  C   UNL     1       5.574   4.944  15.371  0.00  0.00    +0.000 A 
ATOM     27  C   UNL     1       5.422   4.107  14.277  0.00  0.00    +0.000 A 
ATOM     28  C   UNL     1       6.595   4.189  13.486  0.00  0.00    +0.000 A 
ATOM     29  C   UNL     1       7.442   5.078  14.105  0.00  0.00    +0.000 A 
ATOM     30  N   UNL     1       6.817   5.535  15.234  0.00  0.00    +0.000 N 
ATOM     31  H   UNL     1       7.194   6.211  15.888  0.00  0.00    +0.000 HD
ENDBRANCH  23  26
ENDBRANCH  20  22
ENDBRANCH   9  18
BRANCH   1  33
ATOM     32  C   UNL     1       1.800   5.021  20.772  0.00  0.00    +0.000 C 
ATOM     33  O   UNL     1       2.451   6.070  20.054  0.00  0.00    +0.000 OA
ENDBRANCH   1  33
BRANCH   3  34
ATOM     34  O   UNL     1      -0.486   9.257  22.211  0.00  0.00    +0.000 OA
ATOM     35  C   UNL     1       0.013   9.530  23.511  0.00  0.00    +0.000 C 
ENDBRANCH   3  34
TORSDOF 6
ENDMDL
MODEL 2
REMARK VINA RESULT:      -7.2      4.116      9.242
REMARK  Name = 
REMARK  8 active torsions:
REMARK  status: ('A' for Active; 'I' for Inactive)
REMARK    1  A    between atoms: C_1  and  O_2
REMARK    2  A    between atoms: O_2  and  C_3
REMARK    3  A    between atoms: C_5  and  O_6
REMARK    4  A    between atoms: O_6  and  C_7
REMARK    5  A    between atoms: C_9  and  C_10
REMARK    6  A    between atoms: C_20  and  C_21
REMARK    7  A    between atoms: N_23  and  N_24
REMARK    8  A    between atoms: C_25  and  C_27
REMARK                            x       y       z     vdW  Elec       q    Type
REMARK                         _______ _______ _______ _____ _____    ______ ____
ROOT
ATOM      1  C   UNL     1       0.690   9.454  21.018  0.00  0.00    +0.000 A 
ATOM      2  C   UNL     1       0.876   8.136  21.436  0.00  0.00    +0.000 A 
ATOM      3  C   UNL     1       1.540   7.194  20.646  0.00  0.00    +0.000 A 
ATOM      4  C   UNL     1       1.977   7.571  19.349  0.00  0.00    +0.000 A 
ATOM      5  C   UNL     1       2.646   6.878  18.268  0.00  0.00    +0.000 A 
ATOM      6  C   UNL     1       2.861   7.812  17.273  0.00  0.00    +0.000 A 
ATOM      7  N   UNL     1       2.329   9.007  17.679  0.00  0.00    +0.000 N 
ATOM      8  C   UNL     1       1.775   8.895  18.939  0.00  0.00    +0.000 A 
ATOM      9  C   UNL     1       1.135   9.873  19.744  0.00  0.00    +0.000 A 
ATOM     10  H   UNL     1       2.340   9.877  17.153  0.00  0.00    +0.000 HD
ENDROOT
BRANCH   5  11
ATOM     11  C   UNL     1       3.086   5.482  18.179  0.00  0.00    +0.000 A 
ATOM     12  C   UNL     1       2.294   4.532  17.516  0.00  0.00    +0.000 A 
ATOM     13  C   UNL     1       2.577   3.166  17.594  0.00  0.00    +0.000 A 
ATOM     14  C   UNL     1       3.717   2.741  18.261  0.00  0.00    +0.000 A 
ATOM     15 CL   UNL     1       4.060   1.059  18.379  0.00  0.00    +0.000 Cl
ATOM     16  C   UNL     1       4.578   3.673  18.837  0.00  0.00    +0.000 A 
ATOM     17  C   UNL     1       4.258   5.038  18.806  0.00  0.00    +0.000 A 
ENDBRANCH   5  11
BRANCH   9  18
ATOM     18  C   UNL     1       1.001  11.276  19.222  0.00  0.00    +0.000 C 
ATOM     19  O   UNL     1       1.944  11.833  18.659  0.00  0.00    +0.000 OA
ATOM     20  N   UNL     1      -0.217  11.897  19.411  0.00  0.00    +0.000 N 
ATOM     21  H   UNL     1      -1.005  11.424  19.856  0.00  0.00    +0.000 HD
BRANCH  20  22
ATOM     22  N   UNL     1      -0.425  13.205  18.972  0.00  0.00    +0.000 N 
ATOM     23  C   UNL     1      -0.482  14.221  19.910  0.00  0.00    +0.000 C 
ATOM     24  O   UNL     1      -0.354  14.006  21.114  0.00  0.00    +0.000 OA
ATOM     25  H   UNL     1      -0.480  13.351  17.972  0.00  0.00    +0.000 HD
BRANCH  23  26
ATOM     26  C   UNL     1      -0.697  15.550  19.373  0.00  0.00    +0.000 A 
ATOM     27  C   UNL     1       0.031  16.323  18.482  0.00  0.00    +0.000 A 
ATOM     28  C   UNL     1      -0.641  17.558  18.309  0.00  0.00    +0.000 A 
ATOM     29  C   UNL     1      -1.772  17.519  19.093  0.00  0.00    +0.000 A 
ATOM     30  N   UNL     1      -1.803  16.303  19.722  0.00  0.00    +0.000 N 
ATOM     31  H   UNL     1      -2.525  15.983  20.356  0.00  0.00    +0.000 HD
ENDBRANCH  23  26
ENDBRANCH  20  22
ENDBRANCH   9  18
BRANCH   1  33
ATOM     32  C   UNL     1      -0.490   9.872  23.046  0.00  0.00    +0.000 C 
ATOM     33  O   UNL     1       0.050  10.371  21.821  0.00  0.00    +0.000 OA
ENDBRANCH   1  33
BRANCH   3  34
ATOM     34  O   UNL     1       1.825   5.928  21.083  0.00  0.00    +0.000 OA
ATOM     35  C   UNL     1       0.986   4.856  20.685  0.00  0.00    +0.000 C 
ENDBRANCH   3  34
TORSDOF 6
ENDMDL
MODEL 3
REMARK VINA RESULT:      -7.0      4.223      8.637
REMARK  Name = 
REMARK  8 active torsions:
REMARK  status: ('A' for Active; 'I' for Inactive)
REMARK    1  A    between atoms: C_1  and  O_2
REMARK    2  A    between atoms: O_2  and  C_3
REMARK    3  A    between atoms: C_5  and  O_6
REMARK    4  A    between atoms: O_6  and  C_7
REMARK    5  A    between atoms: C_9  and  C_10
REMARK    6  A    between atoms: C_20  and  C_21
REMARK    7  A    between atoms: N_23  and  N_24
REMARK    8  A    between atoms: C_25  and  C_27
REMARK                            x       y       z     vdW  Elec       q    Type
REMARK                         _______ _______ _______ _____ _____    ______ ____
ROOT
ATOM      1  C   UNL     1       0.655   9.325  21.117  0.00  0.00    +0.000 A 
ATOM      2  C   UNL     1       0.886   8.005  21.510  0.00  0.00    +0.000 A 
ATOM      3  C   UNL     1       1.550   7.092  20.687  0.00  0.00    +0.000 A 
ATOM      4  C   UNL     1       1.940   7.499  19.384  0.00  0.00    +0.000 A 
ATOM      5  C   UNL     1       2.595   6.839  18.273  0.00  0.00    +0.000 A 
ATOM      6  C   UNL     1       2.757   7.792  17.287  0.00  0.00    +0.000 A 
ATOM      7  N   UNL     1       2.207   8.967  17.726  0.00  0.00    +0.000 N 
ATOM      8  C   UNL     1       1.693   8.823  19.000  0.00  0.00    +0.000 A 
ATOM      9  C   UNL     1       1.052   9.773  19.837  0.00  0.00    +0.000 A 
ATOM     10  H   UNL     1       2.181   9.844  17.214  0.00  0.00    +0.000 HD
ENDROOT
BRANCH   5  11
ATOM     11  C   UNL     1       3.066   5.456  18.151  0.00  0.00    +0.000 A 
ATOM     12  C   UNL     1       2.277   4.494  17.502  0.00  0.00    +0.000 A 
ATOM     13  C   UNL     1       2.597   3.135  17.552  0.00  0.00    +0.000 A 
ATOM     14  C   UNL     1       3.770   2.731  18.175  0.00  0.00    +0.000 A 
ATOM     15 CL   UNL     1       4.159   1.057  18.259  0.00  0.00    +0.000 Cl
ATOM     16  C   UNL     1       4.625   3.678  18.735  0.00  0.00    +0.000 A 
ATOM     17  C   UNL     1       4.270   5.034  18.733  0.00  0.00    +0.000 A 
ENDBRANCH   5  11
BRANCH   9  18
ATOM     18  C   UNL     1       0.867  11.179  19.341  0.00  0.00    +0.000 C 
ATOM     19  O   UNL     1       0.078  11.428  18.428  0.00  0.00    +0.000 OA
ATOM     20  N   UNL     1       1.622  12.159  19.952  0.00  0.00    +0.000 N 
ATOM     21  H   UNL     1       2.257  11.954  20.725  0.00  0.00    +0.000 HD
BRANCH  20  22
ATOM     22  N   UNL     1       1.527  13.490  19.544  0.00  0.00    +0.000 N 
ATOM     23  C   UNL     1       2.467  13.984  18.656  0.00  0.00    +0.000 C 
ATOM     24  O   UNL     1       3.378  13.287  18.216  0.00  0.00    +0.000 OA
ATOM     25  H   UNL     1       0.737  14.021  19.890  0.00  0.00    +0.000 HD
BRANCH  23  26
ATOM     26  C   UNL     1       2.294  15.373  18.280  0.00  0.00    +0.000 A 
ATOM     27  C   UNL     1       1.393  16.344  18.690  0.00  0.00    +0.000 A 
ATOM     28  C   UNL     1       1.677  17.541  17.987  0.00  0.00    +0.000 A 
ATOM     29  C   UNL     1       2.749  17.286  17.163  0.00  0.00    +0.000 A 
ATOM     30  N   UNL     1       3.120  15.981  17.352  0.00  0.00    +0.000 N 
ATOM     31  H   UNL     1       3.889  15.511  16.889  0.00  0.00    +0.000 HD
ENDBRANCH  23  26
ENDBRANCH  20  22
ENDBRANCH   9  18
BRANCH   1  33
ATOM     32  C   UNL     1      -0.379   9.710  23.229  0.00  0.00    +0.000 C 
ATOM     33  O   UNL     1       0.016  10.213  21.952  0.00  0.00    +0.000 OA
ENDBRANCH   1  33
BRANCH   3  34
ATOM     34  O   UNL     1       1.879   5.828  21.097  0.00  0.00    +0.000 OA
ATOM     35  C   UNL     1       1.034   4.745  20.741  0.00  0.00    +0.000 C 
ENDBRANCH   3  34
TORSDOF 6
ENDMDL
MODEL 4
REMARK VINA RESULT:      -6.9      1.409      1.883
REMARK  Name = 
REMARK  8 active torsions:
REMARK  status: ('A' for Active; 'I' for Inactive)
REMARK    1  A    between atoms: C_1  and  O_2
REMARK    2  A    between atoms: O_2  and  C_3
REMARK    3  A    between atoms: C_5  and  O_6
REMARK    4  A    between atoms: O_6  and  C_7
REMARK    5  A    between atoms: C_9  and  C_10
REMARK    6  A    between atoms: C_20  and  C_21
REMARK    7  A    between atoms: N_23  and  N_24
REMARK    8  A    between atoms: C_25  and  C_27
REMARK                            x       y       z     vdW  Elec       q    Type
REMARK                         _______ _______ _______ _____ _____    ______ ____
ROOT
ATOM      1  C   UNL     1       2.109   5.872  20.290  0.00  0.00    +0.000 A 
ATOM      2  C   UNL     1       1.464   6.663  21.242  0.00  0.00    +0.000 A 
ATOM      3  C   UNL     1       1.071   7.976  20.972  0.00  0.00    +0.000 A 
ATOM      4  C   UNL     1       1.400   8.546  19.713  0.00  0.00    +0.000 A 
ATOM      5  C   UNL     1       1.195   9.846  19.109  0.00  0.00    +0.000 A 
ATOM      6  C   UNL     1       1.690   9.766  17.822  0.00  0.00    +0.000 A 
ATOM      7  N   UNL     1       2.210   8.513  17.635  0.00  0.00    +0.000 N 
ATOM      8  C   UNL     1       2.056   7.742  18.772  0.00  0.00    +0.000 A 
ATOM      9  C   UNL     1       2.430   6.396  19.019  0.00  0.00    +0.000 A 
ATOM     10  H   UNL     1       2.641   8.164  16.784  0.00  0.00    +0.000 HD
ENDROOT
BRANCH   5  11
ATOM     11  C   UNL     1       0.559  11.046  19.661  0.00  0.00    +0.000 A 
ATOM     12  C   UNL     1       1.332  12.023  20.307  0.00  0.00    +0.000 A 
ATOM     13  C   UNL     1       0.739  13.066  21.022  0.00  0.00    +0.000 A 
ATOM     14  C   UNL     1      -0.642  13.198  21.019  0.00  0.00    +0.000 A 
ATOM     15 CL   UNL     1      -1.380  14.468  21.915  0.00  0.00    +0.000 Cl
ATOM     16  C   UNL     1      -1.428  12.303  20.297  0.00  0.00    +0.000 A 
ATOM     17  C   UNL     1      -0.831  11.224  19.629  0.00  0.00    +0.000 A 
ENDBRANCH   5  11
BRANCH   9  18
ATOM     18  C   UNL     1       3.098   5.611  17.926  0.00  0.00    +0.000 C 
ATOM     19  O   UNL     1       2.511   4.686  17.363  0.00  0.00    +0.000 OA
ATOM     20  N   UNL     1       4.388   5.975  17.597  0.00  0.00    +0.000 N 
ATOM     21  H   UNL     1       4.864   6.758  18.048  0.00  0.00    +0.000 HD
BRANCH  20  22
ATOM     22  N   UNL     1       5.090   5.290  16.605  0.00  0.00    +0.000 N 
ATOM     23  C   UNL     1       5.348   5.932  15.406  0.00  0.00    +0.000 C 
ATOM     24  O   UNL     1       4.978   7.084  15.191  0.00  0.00    +0.000 OA
ATOM     25  H   UNL     1       5.420   4.359  16.834  0.00  0.00    +0.000 HD
BRANCH  23  26
ATOM     26  C   UNL     1       6.085   5.153  14.431  0.00  0.00    +0.000 A 
ATOM     27  C   UNL     1       5.740   4.049  13.668  0.00  0.00    +0.000 A 
ATOM     28  C   UNL     1       6.858   3.687  12.876  0.00  0.00    +0.000 A 
ATOM     29  C   UNL     1       7.866   4.578  13.162  0.00  0.00    +0.000 A 
ATOM     30  N   UNL     1       7.390   5.463  14.092  0.00  0.00    +0.000 N 
ATOM     31  H   UNL     1       7.904   6.241  14.488  0.00  0.00    +0.000 HD
ENDBRANCH  23  26
ENDBRANCH  20  22
ENDBRANCH   9  18
BRANCH   1  33
ATOM     32  C   UNL     1       1.402   3.655  20.807  0.00  0.00    +0.000 C 
ATOM     33  O   UNL     1       2.471   4.573  20.572  0.00  0.00    +0.000 OA
ENDBRANCH   1  33
BRANCH   3  34
ATOM     34  O   UNL     1       0.344   8.729  21.854  0.00  0.00    +0.000 OA
ATOM     35  C   UNL     1       1.008   9.345  22.945  0.00  0.00    +0.000 C 
ENDBRANCH   3  34
TORSDOF 6
ENDMDL
MODEL 5
REMARK VINA RESULT:      -6.8      4.241     10.019
REMARK  Name = 
REMARK  8 active torsions:
REMARK  status: ('A' for Active; 'I' for Inactive)
REMARK    1  A    between atoms: C_1  and  O_2
REMARK    2  A    between atoms: O_2  and  C_3
REMARK    3  A    between atoms: C_5  and  O_6
REMARK    4  A    between atoms: O_6  and  C_7
REMARK    5  A    between atoms: C_9  and  C_10
REMARK    6  A    between atoms: C_20  and  C_21
REMARK    7  A    between atoms: N_23  and  N_24
REMARK    8  A    between atoms: C_25  and  C_27
REMARK                            x       y       z     vdW  Elec       q    Type
REMARK                         _______ _______ _______ _____ _____    ______ ____
ROOT
ATOM      1  C   UNL     1       1.475  10.530  18.768  0.00  0.00    +0.000 A 
ATOM      2  C   UNL     1       2.156   9.717  17.861  0.00  0.00    +0.000 A 
ATOM      3  C   UNL     1       2.347   8.352  18.087  0.00  0.00    +0.000 A 
ATOM      4  C   UNL     1       1.895   7.788  19.309  0.00  0.00    +0.000 A 
ATOM      5  C   UNL     1       1.947   6.463  19.890  0.00  0.00    +0.000 A 
ATOM      6  C   UNL     1       1.270   6.531  21.093  0.00  0.00    +0.000 A 
ATOM      7  N   UNL     1       0.852   7.822  21.281  0.00  0.00    +0.000 N 
ATOM      8  C   UNL     1       1.222   8.619  20.214  0.00  0.00    +0.000 A 
ATOM      9  C   UNL     1       0.988   9.999  19.983  0.00  0.00    +0.000 A 
ATOM     10  H   UNL     1       0.326   8.171  22.077  0.00  0.00    +0.000 HD
ENDROOT
BRANCH   5  11
ATOM     11  C   UNL     1       2.537   5.229  19.360  0.00  0.00    +0.000 A 
ATOM     12  C   UNL     1       1.824   4.444  18.440  0.00  0.00    +0.000 A 
ATOM     13  C   UNL     1       2.263   3.168  18.079  0.00  0.00    +0.000 A 
ATOM     14  C   UNL     1       3.476   2.699  18.564  0.00  0.00    +0.000 A 
ATOM     15 CL   UNL     1       4.012   1.120  18.140  0.00  0.00    +0.000 Cl
ATOM     16  C   UNL     1       4.254   3.503  19.394  0.00  0.00    +0.000 A 
ATOM     17  C   UNL     1       3.782   4.759  19.800  0.00  0.00    +0.000 A 
ENDBRANCH   5  11
BRANCH   9  18
ATOM     18  C   UNL     1       0.223  10.792  21.004  0.00  0.00    +0.000 C 
ATOM     19  O   UNL     1       0.640  10.906  22.158  0.00  0.00    +0.000 OA
ATOM     20  N   UNL     1      -0.957  11.373  20.585  0.00  0.00    +0.000 N 
ATOM     21  H   UNL     1      -1.288  11.298  19.622  0.00  0.00    +0.000 HD
BRANCH  20  22
ATOM     22  N   UNL     1      -1.740  12.114  21.471  0.00  0.00    +0.000 N 
ATOM     23  C   UNL     1      -2.973  12.577  21.045  0.00  0.00    +0.000 C 
ATOM     24  O   UNL     1      -3.397  12.353  19.913  0.00  0.00    +0.000 OA
ATOM     25  H   UNL     1      -1.379  12.240  22.409  0.00  0.00    +0.000 HD
BRANCH  23  26
ATOM     26  C   UNL     1      -3.725  13.334  22.025  0.00  0.00    +0.000 A 
ATOM     27  C   UNL     1      -3.806  14.692  22.290  0.00  0.00    +0.000 A 
ATOM     28  C   UNL     1      -4.699  14.883  23.374  0.00  0.00    +0.000 A 
ATOM     29  C   UNL     1      -5.153  13.640  23.750  0.00  0.00    +0.000 A 
ATOM     30  N   UNL     1      -4.570  12.714  22.928  0.00  0.00    +0.000 N 
ATOM     31  H   UNL     1      -4.723  11.713  22.959  0.00  0.00    +0.000 HD
ENDBRANCH  23  26
ENDBRANCH  20  22
ENDBRANCH   9  18
BRANCH   1  33
ATOM     32  C   UNL     1       2.453  12.638  18.237  0.00  0.00    +0.000 C 
ATOM     33  O   UNL     1       1.281  11.870  18.516  0.00  0.00    +0.000 OA
ENDBRANCH   1  33
BRANCH   3  34
ATOM     34  O   UNL     1       2.918   7.519  17.162  0.00  0.00    +0.000 OA
ATOM     35  C   UNL     1       4.322   7.321  17.186  0.00  0.00    +0.000 C 
ENDBRANCH   3  34
TORSDOF 6
ENDMDL
MODEL 6
REMARK VINA RESULT:      -6.8      4.083      9.190
REMARK  Name = 
REMARK  8 active torsions:
REMARK  status: ('A' for Active; 'I' for Inactive)
REMARK    1  A    between atoms: C_1  and  O_2
REMARK    2  A    between atoms: O_2  and  C_3
REMARK    3  A    between atoms: C_5  and  O_6
REMARK    4  A    between atoms: O_6  and  C_7
REMARK    5  A    between atoms: C_9  and  C_10
REMARK    6  A    between atoms: C_20  and  C_21
REMARK    7  A    between atoms: N_23  and  N_24
REMARK    8  A    between atoms: C_25  and  C_27
REMARK                            x       y       z     vdW  Elec       q    Type
REMARK                         _______ _______ _______ _____ _____    ______ ____
ROOT
ATOM      1  C   UNL     1       0.208   9.173  21.194  0.00  0.00    +0.000 A 
ATOM      2  C   UNL     1       0.896   7.972  21.369  0.00  0.00    +0.000 A 
ATOM      3  C   UNL     1       1.763   7.465  20.398  0.00  0.00    +0.000 A 
ATOM      4  C   UNL     1       1.893   8.158  19.165  0.00  0.00    +0.000 A 
ATOM      5  C   UNL     1       2.645   7.924  17.949  0.00  0.00    +0.000 A 
ATOM      6  C   UNL     1       2.403   9.003  17.121  0.00  0.00    +0.000 A 
ATOM      7  N   UNL     1       1.526   9.845  17.752  0.00  0.00    +0.000 N 
ATOM      8  C   UNL     1       1.189   9.358  19.000  0.00  0.00    +0.000 A 
ATOM      9  C   UNL     1       0.333   9.903  19.992  0.00  0.00    +0.000 A 
ATOM     10  H   UNL     1       1.169  10.722  17.385  0.00  0.00    +0.000 HD
ENDROOT
BRANCH   5  11
ATOM     11  C   UNL     1       3.541   6.818  17.600  0.00  0.00    +0.000 A 
ATOM     12  C   UNL     1       4.853   7.078  17.176  0.00  0.00    +0.000 A 
ATOM     13  C   UNL     1       5.659   6.070  16.640  0.00  0.00    +0.000 A 
ATOM     14  C   UNL     1       5.191   4.764  16.610  0.00  0.00    +0.000 A 
ATOM     15 CL   UNL     1       6.169   3.523  15.931  0.00  0.00    +0.000 Cl
ATOM     16  C   UNL     1       3.932   4.462  17.123  0.00  0.00    +0.000 A 
ATOM     17  C   UNL     1       3.105   5.486  17.607  0.00  0.00    +0.000 A 
ENDBRANCH   5  11
BRANCH   9  18
ATOM     18  C   UNL     1      -0.349  11.216  19.727  0.00  0.00    +0.000 C 
ATOM     19  O   UNL     1      -1.286  11.291  18.931  0.00  0.00    +0.000 OA
ATOM     20  N   UNL     1       0.128  12.315  20.411  0.00  0.00    +0.000 N 
ATOM     21  H   UNL     1       0.889  12.245  21.089  0.00  0.00    +0.000 HD
BRANCH  20  22
ATOM     22  N   UNL     1      -0.435  13.576  20.215  0.00  0.00    +0.000 N 
ATOM     23  C   UNL     1       0.157  14.437  19.307  0.00  0.00    +0.000 C 
ATOM     24  O   UNL     1       1.159  14.123  18.669  0.00  0.00    +0.000 OA
ATOM     25  H   UNL     1      -1.287  13.784  20.723  0.00  0.00    +0.000 HD
BRANCH  23  26
ATOM     26  C   UNL     1      -0.492  15.725  19.159  0.00  0.00    +0.000 A 
ATOM     27  C   UNL     1      -0.234  16.807  18.331  0.00  0.00    +0.000 A 
ATOM     28  C   UNL     1      -1.187  17.818  18.611  0.00  0.00    +0.000 A 
ATOM     29  C   UNL     1      -2.014  17.337  19.599  0.00  0.00    +0.000 A 
ATOM     30  N   UNL     1      -1.594  16.073  19.917  0.00  0.00    +0.000 N 
ATOM     31  H   UNL     1      -2.019  15.463  20.606  0.00  0.00    +0.000 HD
ENDBRANCH  23  26
ENDBRANCH  20  22
ENDBRANCH   9  18
BRANCH   1  33
ATOM     32  C   UNL     1      -0.138   9.595  23.514  0.00  0.00    +0.000 C 
ATOM     33  O   UNL     1      -0.626   9.663  22.173  0.00  0.00    +0.000 OA
ENDBRANCH   1  33
BRANCH   3  34
ATOM     34  O   UNL     1       2.527   6.346  20.595  0.00  0.00    +0.000 OA
ATOM     35  C   UNL     1       1.883   5.107  20.844  0.00  0.00    +0.000 C 
ENDBRANCH   3  34
TORSDOF 6
ENDMDL
MODEL 7
REMARK VINA RESULT:      -6.8      4.204      9.094
REMARK  Name = 
REMARK  8 active torsions:
REMARK  status: ('A' for Active; 'I' for Inactive)
REMARK    1  A    between atoms: C_1  and  O_2
REMARK    2  A    between atoms: O_2  and  C_3
REMARK    3  A    between atoms: C_5  and  O_6
REMARK    4  A    between atoms: O_6  and  C_7
REMARK    5  A    between atoms: C_9  and  C_10
REMARK    6  A    between atoms: C_20  and  C_21
REMARK    7  A    between atoms: N_23  and  N_24
REMARK    8  A    between atoms: C_25  and  C_27
REMARK                            x       y       z     vdW  Elec       q    Type
REMARK                         _______ _______ _______ _____ _____    ______ ____
ROOT
ATOM      1  C   UNL     1       0.584   9.278  21.121  0.00  0.00    +0.000 A 
ATOM      2  C   UNL     1       0.767   7.944  21.490  0.00  0.00    +0.000 A 
ATOM      3  C   UNL     1       1.469   7.042  20.686  0.00  0.00    +0.000 A 
ATOM      4  C   UNL     1       1.949   7.477  19.422  0.00  0.00    +0.000 A 
ATOM      5  C   UNL     1       2.663   6.837  18.338  0.00  0.00    +0.000 A 
ATOM      6  C   UNL     1       2.905   7.814  17.392  0.00  0.00    +0.000 A 
ATOM      7  N   UNL     1       2.347   8.986  17.828  0.00  0.00    +0.000 N 
ATOM      8  C   UNL     1       1.749   8.816  19.062  0.00  0.00    +0.000 A 
ATOM      9  C   UNL     1       1.070   9.754  19.883  0.00  0.00    +0.000 A 
ATOM     10  H   UNL     1       2.368   9.877  17.341  0.00  0.00    +0.000 HD
ENDROOT
BRANCH   5  11
ATOM     11  C   UNL     1       3.119   5.449  18.207  0.00  0.00    +0.000 A 
ATOM     12  C   UNL     1       2.373   4.527  17.458  0.00  0.00    +0.000 A 
ATOM     13  C   UNL     1       2.663   3.161  17.486  0.00  0.00    +0.000 A 
ATOM     14  C   UNL     1       3.770   2.712  18.193  0.00  0.00    +0.000 A 
ATOM     15 CL   UNL     1       4.120   1.028  18.249  0.00  0.00    +0.000 Cl
ATOM     16  C   UNL     1       4.590   3.620  18.858  0.00  0.00    +0.000 A 
ATOM     17  C   UNL     1       4.261   4.983  18.875  0.00  0.00    +0.000 A 
ENDBRANCH   5  11
BRANCH   9  18
ATOM     18  C   UNL     1       0.941  11.176  19.416  0.00  0.00    +0.000 C 
ATOM     19  O   UNL     1       0.387  11.443  18.349  0.00  0.00    +0.000 OA
ATOM     20  N   UNL     1       1.474  12.151  20.235  0.00  0.00    +0.000 N 
ATOM     21  H   UNL     1       1.911  11.929  21.131  0.00  0.00    +0.000 HD
BRANCH  20  22
ATOM     22  N   UNL     1       1.413  13.497  19.873  0.00  0.00    +0.000 N 
ATOM     23  C   UNL     1       1.724  14.457  20.820  0.00  0.00    +0.000 C 
ATOM     24  O   UNL     1       2.052  14.160  21.967  0.00  0.00    +0.000 OA
ATOM     25  H   UNL     1       1.185  13.704  18.908  0.00  0.00    +0.000 HD
BRANCH  23  26
ATOM     26  C   UNL     1       1.641  15.830  20.363  0.00  0.00    +0.000 A 
ATOM     27  C   UNL     1       0.854  16.445  19.400  0.00  0.00    +0.000 A 
ATOM     28  C   UNL     1       1.192  17.820  19.361  0.00  0.00    +0.000 A 
ATOM     29  C   UNL     1       2.174  18.026  20.302  0.00  0.00    +0.000 A 
ATOM     30  N   UNL     1       2.432  16.825  20.907  0.00  0.00    +0.000 N 
ATOM     31  H   UNL     1       3.102  16.668  21.650  0.00  0.00    +0.000 HD
ENDBRANCH  23  26
ENDBRANCH  20  22
ENDBRANCH   9  18
BRANCH   1  33
ATOM     32  C   UNL     1      -0.393   9.690  23.256  0.00  0.00    +0.000 C 
ATOM     33  O   UNL     1      -0.094  10.155  21.938  0.00  0.00    +0.000 OA
ENDBRANCH   1  33
BRANCH   3  34
ATOM     34  O   UNL     1       1.750   5.761  21.079  0.00  0.00    +0.000 OA
ATOM     35  C   UNL     1       0.922   4.703  20.625  0.00  0.00    +0.000 C 
ENDBRANCH   3  34
TORSDOF 6
ENDMDL
MODEL 8
REMARK VINA RESULT:      -6.7      2.435      4.000
REMARK  Name = 
REMARK  8 active torsions:
REMARK  status: ('A' for Active; 'I' for Inactive)
REMARK    1  A    between atoms: C_1  and  O_2
REMARK    2  A    between atoms: O_2  and  C_3
REMARK    3  A    between atoms: C_5  and  O_6
REMARK    4  A    between atoms: O_6  and  C_7
REMARK    5  A    between atoms: C_9  and  C_10
REMARK    6  A    between atoms: C_20  and  C_21
REMARK    7  A    between atoms: N_23  and  N_24
REMARK    8  A    between atoms: C_25  and  C_27
REMARK                            x       y       z     vdW  Elec       q    Type
REMARK                         _______ _______ _______ _____ _____    ______ ____
ROOT
ATOM      1  C   UNL     1      -1.276  10.669  18.143  0.00  0.00    +0.000 A 
ATOM      2  C   UNL     1      -2.435  11.266  18.643  0.00  0.00    +0.000 A 
ATOM      3  C   UNL     1      -2.404  12.169  19.708  0.00  0.00    +0.000 A 
ATOM      4  C   UNL     1      -1.164  12.435  20.347  0.00  0.00    +0.000 A 
ATOM      5  C   UNL     1      -0.761  13.258  21.468  0.00  0.00    +0.000 A 
ATOM      6  C   UNL     1       0.612  13.147  21.567  0.00  0.00    +0.000 A 
ATOM      7  N   UNL     1       1.047  12.281  20.600  0.00  0.00    +0.000 N 
ATOM      8  C   UNL     1      -0.011  11.821  19.840  0.00  0.00    +0.000 A 
ATOM      9  C   UNL     1      -0.021  10.929  18.737  0.00  0.00    +0.000 A 
ATOM     10  H   UNL     1       2.011  12.007  20.431  0.00  0.00    +0.000 HD
ENDROOT
BRANCH   5  11
ATOM     11  C   UNL     1      -1.573  14.107  22.346  0.00  0.00    +0.000 A 
ATOM     12  C   UNL     1      -2.180  13.566  23.489  0.00  0.00    +0.000 A 
ATOM     13  C   UNL     1      -3.122  14.289  24.225  0.00  0.00    +0.000 A 
ATOM     14  C   UNL     1      -3.397  15.604  23.878  0.00  0.00    +0.000 A 
ATOM     15 CL   UNL     1      -4.572  16.493  24.767  0.00  0.00    +0.000 Cl
ATOM     16  C   UNL     1      -2.728  16.200  22.812  0.00  0.00    +0.000 A 
ATOM     17  C   UNL     1      -1.827  15.452  22.041  0.00  0.00    +0.000 A 
ENDBRANCH   5  11
BRANCH   9  18
ATOM     18  C   UNL     1       1.278  10.353  18.250  0.00  0.00    +0.000 C 
ATOM     19  O   UNL     1       2.230  11.085  17.974  0.00  0.00    +0.000 OA
ATOM     20  N   UNL     1       1.343   8.980  18.126  0.00  0.00    +0.000 N 
ATOM     21  H   UNL     1       0.561   8.374  18.379  0.00  0.00    +0.000 HD
BRANCH  20  22
ATOM     22  N   UNL     1       2.505   8.361  17.666  0.00  0.00    +0.000 N 
ATOM     23  C   UNL     1       2.903   7.171  18.251  0.00  0.00    +0.000 C 
ATOM     24  O   UNL     1       2.264   6.645  19.160  0.00  0.00    +0.000 OA
ATOM     25  H   UNL     1       2.981   8.797  16.885  0.00  0.00    +0.000 HD
BRANCH  23  26
ATOM     26  C   UNL     1       4.118   6.590  17.714  0.00  0.00    +0.000 A 
ATOM     27  C   UNL     1       4.774   6.759  16.504  0.00  0.00    +0.000 A 
ATOM     28  C   UNL     1       5.926   5.934  16.503  0.00  0.00    +0.000 A 
ATOM     29  C   UNL     1       5.960   5.280  17.713  0.00  0.00    +0.000 A 
ATOM     30  N   UNL     1       4.873   5.688  18.439  0.00  0.00    +0.000 N 
ATOM     31  H   UNL     1       4.640   5.384  19.377  0.00  0.00    +0.000 HD
ENDBRANCH  23  26
ENDBRANCH  20  22
ENDBRANCH   9  18
BRANCH   1  33
ATOM     32  C   UNL     1      -2.465   9.911  16.221  0.00  0.00    +0.000 C 
ATOM     33  O   UNL     1      -1.329   9.797  17.079  0.00  0.00    +0.000 OA
ENDBRANCH   1  33
BRANCH   3  34
ATOM     34  O   UNL     1      -3.513  12.844  20.141  0.00  0.00    +0.000 OA
ATOM     35  C   UNL     1      -4.785  12.482  19.628  0.00  0.00    +0.000 C 
ENDBRANCH   3  34
TORSDOF 6
ENDMDL
MODEL 9
REMARK VINA RESULT:      -6.7      4.274     10.042
REMARK  Name = 
REMARK  8 active torsions:
REMARK  status: ('A' for Active; 'I' for Inactive)
REMARK    1  A    between atoms: C_1  and  O_2
REMARK    2  A    between atoms: O_2  and  C_3
REMARK    3  A    between atoms: C_5  and  O_6
REMARK    4  A    between atoms: O_6  and  C_7
REMARK    5  A    between atoms: C_9  and  C_10
REMARK    6  A    between atoms: C_20  and  C_21
REMARK    7  A    between atoms: N_23  and  N_24
REMARK    8  A    between atoms: C_25  and  C_27
REMARK                            x       y       z     vdW  Elec       q    Type
REMARK                         _______ _______ _______ _____ _____    ______ ____
ROOT
ATOM      1  C   UNL     1       1.386  10.548  19.021  0.00  0.00    +0.000 A 
ATOM      2  C   UNL     1       1.999   9.788  18.024  0.00  0.00    +0.000 A 
ATOM      3  C   UNL     1       2.239   8.420  18.176  0.00  0.00    +0.000 A 
ATOM      4  C   UNL     1       1.912   7.799  19.410  0.00  0.00    +0.000 A 
ATOM      5  C   UNL     1       2.045   6.453  19.930  0.00  0.00    +0.000 A 
ATOM      6  C   UNL     1       1.478   6.459  21.190  0.00  0.00    +0.000 A 
ATOM      7  N   UNL     1       1.051   7.730  21.467  0.00  0.00    +0.000 N 
ATOM      8  C   UNL     1       1.306   8.576  20.405  0.00  0.00    +0.000 A 
ATOM      9  C   UNL     1       1.023   9.958  20.252  0.00  0.00    +0.000 A 
ATOM     10  H   UNL     1       0.592   8.035  22.321  0.00  0.00    +0.000 HD
ENDROOT
BRANCH   5  11
ATOM     11  C   UNL     1       2.610   5.256  19.299  0.00  0.00    +0.000 A 
ATOM     12  C   UNL     1       1.845   4.508  18.392  0.00  0.00    +0.000 A 
ATOM     13  C   UNL     1       2.272   3.257  17.937  0.00  0.00    +0.000 A 
ATOM     14  C   UNL     1       3.520   2.783  18.314  0.00  0.00    +0.000 A 
ATOM     15 CL   UNL     1       4.043   1.235  17.775  0.00  0.00    +0.000 Cl
ATOM     16  C   UNL     1       4.345   3.555  19.129  0.00  0.00    +0.000 A 
ATOM     17  C   UNL     1       3.887   4.783  19.629  0.00  0.00    +0.000 A 
ENDBRANCH   5  11
BRANCH   9  18
ATOM     18  C   UNL     1       0.336  10.692  21.370  0.00  0.00    +0.000 C 
ATOM     19  O   UNL     1       0.584  10.425  22.546  0.00  0.00    +0.000 OA
ATOM     20  N   UNL     1      -0.575  11.664  21.009  0.00  0.00    +0.000 N 
ATOM     21  H   UNL     1      -0.760  11.901  20.033  0.00  0.00    +0.000 HD
BRANCH  20  22
ATOM     22  N   UNL     1      -1.270  12.384  21.981  0.00  0.00    +0.000 N 
ATOM     23  C   UNL     1      -0.651  13.468  22.579  0.00  0.00    +0.000 C 
ATOM     24  O   UNL     1       0.489  13.815  22.278  0.00  0.00    +0.000 OA
ATOM     25  H   UNL     1      -2.224  12.099  22.171  0.00  0.00    +0.000 HD
BRANCH  23  26
ATOM     26  C   UNL     1      -1.442  14.164  23.574  0.00  0.00    +0.000 A 
ATOM     27  C   UNL     1      -1.126  15.163  24.482  0.00  0.00    +0.000 A 
ATOM     28  C   UNL     1      -2.292  15.474  25.226  0.00  0.00    +0.000 A 
ATOM     29  C   UNL     1      -3.302  14.666  24.756  0.00  0.00    +0.000 A 
ATOM     30  N   UNL     1      -2.785  13.888  23.756  0.00  0.00    +0.000 N 
ATOM     31  H   UNL     1      -3.297  13.201  23.214  0.00  0.00    +0.000 HD
ENDBRANCH  23  26
ENDBRANCH  20  22
ENDBRANCH   9  18
BRANCH   1  33
ATOM     32  C   UNL     1       2.289  12.729  18.691  0.00  0.00    +0.000 C 
ATOM     33  O   UNL     1       1.141  11.891  18.842  0.00  0.00    +0.000 OA
ENDBRANCH   1  33
BRANCH   3  34
ATOM     34  O   UNL     1       2.741   7.639  17.171  0.00  0.00    +0.000 OA
ATOM     35  C   UNL     1       4.144   7.445  17.082  0.00  0.00    +0.000 C 
ENDBRANCH   3  34
TORSDOF 6
ENDMDL
