MODEL 1
REMARK VINA RESULT:      -7.8      0.000      0.000
REMARK  Name = 
REMARK  9 active torsions:
REMARK  status: ('A' for Active; 'I' for Inactive)
REMARK    1  A    between atoms: C_1  and  C_2
REMARK    2  A    between atoms: C_2  and  C_3
REMARK    3  A    between atoms: C_3  and  C_4
REMARK    4  A    between atoms: N_6  and  C_7
REMARK    5  A    between atoms: C_12  and  N_13
REMARK    6  A    between atoms: C_14  and  C_16
REMARK    7  A    between atoms: C_16  and  C_17
REMARK    8  A    between atoms: C_16  and  C_18
REMARK    9  A    between atoms: C_16  and  C_19
REMARK                            x       y       z     vdW  Elec       q    Type
REMARK                         _______ _______ _______ _____ _____    ______ ____
ROOT
ATOM      1  C   UNL     1       6.130   4.197  15.526  0.00  0.00    +0.000 A 
ATOM      2  C   UNL     1       7.229   4.915  15.992  0.00  0.00    +0.000 A 
ATOM      3  C   UNL     1       7.280   5.358  17.309  0.00  0.00    +0.000 A 
ATOM      4  C   UNL     1       6.213   5.132  18.183  0.00  0.00    +0.000 A 
ATOM      5 CL   UNL     1       6.602   5.356  19.854  0.00  0.00    +0.000 Cl
ATOM      6  C   UNL     1       5.013   4.573  17.701  0.00  0.00    +0.000 A 
ATOM      7  C   UNL     1       5.003   4.085  16.366  0.00  0.00    +0.000 A 
ENDROOT
BRANCH   1  10
ATOM      8  C   UNL     1       6.734   4.145  13.118  0.00  0.00    +0.000 C 
ATOM      9  O   UNL     1       7.403   5.177  13.097  0.00  0.00    +0.000 OA
ATOM     10  N   UNL     1       6.137   3.585  14.245  0.00  0.00    +0.000 N 
ATOM     11  H   UNL     1       5.863   2.614  14.189  0.00  0.00    +0.000 HD
BRANCH   8  12
ATOM     12  C   UNL     1       6.564   3.354  11.835  0.00  0.00    +0.000 C 
BRANCH  12  14
ATOM     13  C   UNL     1       4.099   3.245  11.222  0.00  0.00    +0.000 C 
ATOM     14  C   UNL     1       5.301   2.503  11.792  0.00  0.00    +0.000 C 
ENDBRANCH  12  14
ENDBRANCH   8  12
ENDBRANCH   1  10
BRANCH   6  15
ATOM     15  N   UNL     1       3.803   4.409  18.444  0.00  0.00    +0.000 N 
ATOM     16  C   UNL     1       3.525   3.423  19.386  0.00  0.00    +0.000 C 
ATOM     17  O   UNL     1       4.335   2.595  19.790  0.00  0.00    +0.000 OA
ATOM     18  H   UNL     1       3.189   5.211  18.463  0.00  0.00    +0.000 HD
BRANCH  16  19
ATOM     19  C   UNL     1       2.136   3.535  20.070  0.00  0.00    +0.000 C 
ATOM     20  C   UNL     1       1.029   2.821  19.284  0.00  0.00    +0.000 C 
ATOM     21  C   UNL     1       2.197   2.906  21.479  0.00  0.00    +0.000 C 
ATOM     22  C   UNL     1       1.804   5.028  20.225  0.00  0.00    +0.000 C 
ENDBRANCH  16  19
ENDBRANCH   6  15
TORSDOF 5
ENDMDL
MODEL 2
REMARK VINA RESULT:      -7.5      0.510      1.220
REMARK  Name = 
REMARK  9 active torsions:
REMARK  status: ('A' for Active; 'I' for Inactive)
REMARK    1  A    between atoms: C_1  and  C_2
REMARK    2  A    between atoms: C_2  and  C_3
REMARK    3  A    between atoms: C_3  and  C_4
REMARK    4  A    between atoms: N_6  and  C_7
REMARK    5  A    between atoms: C_12  and  N_13
REMARK    6  A    between atoms: C_14  and  C_16
REMARK    7  A    between atoms: C_16  and  C_17
REMARK    8  A    between atoms: C_16  and  C_18
REMARK    9  A    between atoms: C_16  and  C_19
REMARK                            x       y       z     vdW  Elec       q    Type
REMARK                         _______ _______ _______ _____ _____    ______ ____
ROOT
ATOM      1  C   UNL     1       6.194   4.291  15.378  0.00  0.00    +0.000 A 
ATOM      2  C   UNL     1       7.258   5.045  15.867  0.00  0.00    +0.000 A 
ATOM      3  C   UNL     1       7.279   5.463  17.193  0.00  0.00    +0.000 A 
ATOM      4  C   UNL     1       6.217   5.174  18.054  0.00  0.00    +0.000 A 
ATOM      5 CL   UNL     1       6.584   5.380  19.732  0.00  0.00    +0.000 Cl
ATOM      6  C   UNL     1       5.046   4.574  17.551  0.00  0.00    +0.000 A 
ATOM      7  C   UNL     1       5.067   4.113  16.206  0.00  0.00    +0.000 A 
ENDROOT
BRANCH   1  10
ATOM      8  C   UNL     1       6.852   4.296  12.983  0.00  0.00    +0.000 C 
ATOM      9  O   UNL     1       7.508   5.336  12.999  0.00  0.00    +0.000 OA
ATOM     10  N   UNL     1       6.237   3.705  14.085  0.00  0.00    +0.000 N 
ATOM     11  H   UNL     1       5.976   2.733  14.003  0.00  0.00    +0.000 HD
BRANCH   8  12
ATOM     12  C   UNL     1       6.720   3.530  11.681  0.00  0.00    +0.000 C 
BRANCH  12  14
ATOM     13  C   UNL     1       6.427   1.054  11.178  0.00  0.00    +0.000 C 
ATOM     14  C   UNL     1       5.804   2.315  11.764  0.00  0.00    +0.000 C 
ENDBRANCH  12  14
ENDBRANCH   8  12
ENDBRANCH   1  10
BRANCH   6  15
ATOM     15  N   UNL     1       3.839   4.343  18.280  0.00  0.00    +0.000 N 
ATOM     16  C   UNL     1       3.617   3.366  19.247  0.00  0.00    +0.000 C 
ATOM     17  O   UNL     1       4.478   2.612  19.688  0.00  0.00    +0.000 OA
ATOM     18  H   UNL     1       3.168   5.097  18.266  0.00  0.00    +0.000 HD
BRANCH  16  19
ATOM     19  C   UNL     1       2.212   3.396  19.907  0.00  0.00    +0.000 C 
ATOM     20  C   UNL     1       2.191   2.723  21.285  0.00  0.00    +0.000 C 
ATOM     21  C   UNL     1       1.752   4.859  20.088  0.00  0.00    +0.000 C 
ATOM     22  C   UNL     1       1.228   2.698  18.956  0.00  0.00    +0.000 C 
ENDBRANCH  16  19
ENDBRANCH   6  15
TORSDOF 5
ENDMDL
MODEL 3
REMARK VINA RESULT:      -7.4      1.078      1.479
REMARK  Name = 
REMARK  9 active torsions:
REMARK  status: ('A' for Active; 'I' for Inactive)
REMARK    1  A    between atoms: C_1  and  C_2
REMARK    2  A    between atoms: C_2  and  C_3
REMARK    3  A    between atoms: C_3  and  C_4
REMARK    4  A    between atoms: N_6  and  C_7
REMARK    5  A    between atoms: C_12  and  N_13
REMARK    6  A    between atoms: C_14  and  C_16
REMARK    7  A    between atoms: C_16  and  C_17
REMARK    8  A    between atoms: C_16  and  C_18
REMARK    9  A    between atoms: C_16  and  C_19
REMARK                            x       y       z     vdW  Elec       q    Type
REMARK                         _______ _______ _______ _____ _____    ______ ____
ROOT
ATOM      1  C   UNL     1       6.127   4.251  15.365  0.00  0.00    +0.000 A 
ATOM      2  C   UNL     1       6.987   5.276  15.756  0.00  0.00    +0.000 A 
ATOM      3  C   UNL     1       7.028   5.699  17.080  0.00  0.00    +0.000 A 
ATOM      4  C   UNL     1       6.181   5.139  18.039  0.00  0.00    +0.000 A 
ATOM      5 CL   UNL     1       6.647   5.458  19.675  0.00  0.00    +0.000 Cl
ATOM      6  C   UNL     1       5.175   4.233  17.648  0.00  0.00    +0.000 A 
ATOM      7  C   UNL     1       5.184   3.779  16.300  0.00  0.00    +0.000 A 
ENDROOT
BRANCH   1  10
ATOM      8  C   UNL     1       6.878   4.267  12.997  0.00  0.00    +0.000 C 
ATOM      9  O   UNL     1       7.573   5.279  13.056  0.00  0.00    +0.000 OA
ATOM     10  N   UNL     1       6.197   3.685  14.065  0.00  0.00    +0.000 N 
ATOM     11  H   UNL     1       5.901   2.725  13.956  0.00  0.00    +0.000 HD
BRANCH   8  12
ATOM     12  C   UNL     1       6.765   3.527  11.679  0.00  0.00    +0.000 C 
BRANCH  12  14
ATOM     13  C   UNL     1       6.367   1.086  11.090  0.00  0.00    +0.000 C 
ATOM     14  C   UNL     1       5.791   2.356  11.702  0.00  0.00    +0.000 C 
ENDBRANCH  12  14
ENDBRANCH   8  12
ENDBRANCH   1  10
BRANCH   6  15
ATOM     15  N   UNL     1       4.160   3.687  18.493  0.00  0.00    +0.000 N 
ATOM     16  C   UNL     1       2.942   4.271  18.826  0.00  0.00    +0.000 C 
ATOM     17  O   UNL     1       2.517   5.320  18.352  0.00  0.00    +0.000 OA
ATOM     18  H   UNL     1       4.227   2.695  18.672  0.00  0.00    +0.000 HD
BRANCH  16  19
ATOM     19  C   UNL     1       2.018   3.407  19.726  0.00  0.00    +0.000 C 
ATOM     20  C   UNL     1       0.885   4.220  20.366  0.00  0.00    +0.000 C 
ATOM     21  C   UNL     1       1.375   2.282  18.886  0.00  0.00    +0.000 C 
ATOM     22  C   UNL     1       2.889   2.757  20.812  0.00  0.00    +0.000 C 
ENDBRANCH  16  19
ENDBRANCH   6  15
TORSDOF 5
ENDMDL
MODEL 4
REMARK VINA RESULT:      -7.3      0.733      1.385
REMARK  Name = 
REMARK  9 active torsions:
REMARK  status: ('A' for Active; 'I' for Inactive)
REMARK    1  A    between atoms: C_1  and  C_2
REMARK    2  A    between atoms: C_2  and  C_3
REMARK    3  A    between atoms: C_3  and  C_4
REMARK    4  A    between atoms: N_6  and  C_7
REMARK    5  A    between atoms: C_12  and  N_13
REMARK    6  A    between atoms: C_14  and  C_16
REMARK    7  A    between atoms: C_16  and  C_17
REMARK    8  A    between atoms: C_16  and  C_18
REMARK    9  A    between atoms: C_16  and  C_19
REMARK                            x       y       z     vdW  Elec       q    Type
REMARK                         _______ _______ _______ _____ _____    ______ ____
ROOT
ATOM      1  C   UNL     1       5.846   4.033  15.542  0.00  0.00    +0.000 A 
ATOM      2  C   UNL     1       7.046   4.674  15.842  0.00  0.00    +0.000 A 
ATOM      3  C   UNL     1       7.287   5.165  17.120  0.00  0.00    +0.000 A 
ATOM      4  C   UNL     1       6.317   5.067  18.121  0.00  0.00    +0.000 A 
ATOM      5 CL   UNL     1       6.918   5.325  19.723  0.00  0.00    +0.000 Cl
ATOM      6  C   UNL     1       5.028   4.592  17.809  0.00  0.00    +0.000 A 
ATOM      7  C   UNL     1       4.821   4.051  16.510  0.00  0.00    +0.000 A 
ENDROOT
BRANCH   1  10
ATOM      8  C   UNL     1       6.250   3.765  13.106  0.00  0.00    +0.000 C 
ATOM      9  O   UNL     1       7.080   4.664  12.981  0.00  0.00    +0.000 OA
ATOM     10  N   UNL     1       5.653   3.370  14.302  0.00  0.00    +0.000 N 
ATOM     11  H   UNL     1       5.214   2.460  14.321  0.00  0.00    +0.000 HD
BRANCH   8  12
ATOM     12  C   UNL     1       5.852   2.957  11.886  0.00  0.00    +0.000 C 
BRANCH  12  14
ATOM     13  C   UNL     1       6.372   0.597  11.095  0.00  0.00    +0.000 C 
ATOM     14  C   UNL     1       6.921   1.983  11.410  0.00  0.00    +0.000 C 
ENDBRANCH  12  14
ENDBRANCH   8  12
ENDBRANCH   1  10
BRANCH   6  15
ATOM     15  N   UNL     1       3.905   4.561  18.694  0.00  0.00    +0.000 N 
ATOM     16  C   UNL     1       3.406   3.456  19.376  0.00  0.00    +0.000 C 
ATOM     17  O   UNL     1       3.932   2.347  19.390  0.00  0.00    +0.000 OA
ATOM     18  H   UNL     1       3.594   5.458  19.036  0.00  0.00    +0.000 HD
BRANCH  16  19
ATOM     19  C   UNL     1       2.201   3.746  20.311  0.00  0.00    +0.000 C 
ATOM     20  C   UNL     1       2.030   5.240  20.610  0.00  0.00    +0.000 C 
ATOM     21  C   UNL     1       0.898   3.242  19.653  0.00  0.00    +0.000 C 
ATOM     22  C   UNL     1       2.414   2.960  21.615  0.00  0.00    +0.000 C 
ENDBRANCH  16  19
ENDBRANCH   6  15
TORSDOF 5
ENDMDL
MODEL 5
REMARK VINA RESULT:      -7.2      3.250      7.893
REMARK  Name = 
REMARK  9 active torsions:
REMARK  status: ('A' for Active; 'I' for Inactive)
REMARK    1  A    between atoms: C_1  and  C_2
REMARK    2  A    between atoms: C_2  and  C_3
REMARK    3  A    between atoms: C_3  and  C_4
REMARK    4  A    between atoms: N_6  and  C_7
REMARK    5  A    between atoms: C_12  and  N_13
REMARK    6  A    between atoms: C_14  and  C_16
REMARK    7  A    between atoms: C_16  and  C_17
REMARK    8  A    between atoms: C_16  and  C_18
REMARK    9  A    between atoms: C_16  and  C_19
REMARK                            x       y       z     vdW  Elec       q    Type
REMARK                         _______ _______ _______ _____ _____    ______ ____
ROOT
ATOM      1  C   UNL     1       2.047   5.507  20.349  0.00  0.00    +0.000 A 
ATOM      2  C   UNL     1       1.220   4.408  20.129  0.00  0.00    +0.000 A 
ATOM      3  C   UNL     1       1.681   3.307  19.416  0.00  0.00    +0.000 A 
ATOM      4  C   UNL     1       2.966   3.294  18.867  0.00  0.00    +0.000 A 
ATOM      5 CL   UNL     1       3.525   1.725  18.399  0.00  0.00    +0.000 Cl
ATOM      6  C   UNL     1       3.763   4.455  18.911  0.00  0.00    +0.000 A 
ATOM      7  C   UNL     1       3.290   5.550  19.686  0.00  0.00    +0.000 A 
ENDROOT
BRANCH   1  10
ATOM      8  C   UNL     1       1.530   7.889  20.828  0.00  0.00    +0.000 C 
ATOM      9  O   UNL     1       1.639   8.312  19.678  0.00  0.00    +0.000 OA
ATOM     10  N   UNL     1       1.659   6.559  21.221  0.00  0.00    +0.000 N 
ATOM     11  H   UNL     1       1.278   6.303  22.121  0.00  0.00    +0.000 HD
BRANCH   8  12
ATOM     12  C   UNL     1       1.172   8.859  21.937  0.00  0.00    +0.000 C 
BRANCH  12  14
ATOM     13  C   UNL     1      -0.675  10.095  23.173  0.00  0.00    +0.000 C 
ATOM     14  C   UNL     1      -0.286   9.298  21.934  0.00  0.00    +0.000 C 
ENDBRANCH  12  14
ENDBRANCH   8  12
ENDBRANCH   1  10
BRANCH   6  15
ATOM     15  N   UNL     1       5.034   4.628  18.281  0.00  0.00    +0.000 N 
ATOM     16  C   UNL     1       5.354   5.533  17.273  0.00  0.00    +0.000 C 
ATOM     17  O   UNL     1       4.596   6.396  16.843  0.00  0.00    +0.000 OA
ATOM     18  H   UNL     1       5.822   4.228  18.769  0.00  0.00    +0.000 HD
BRANCH  16  19
ATOM     19  C   UNL     1       6.840   5.525  16.825  0.00  0.00    +0.000 C 
ATOM     20  C   UNL     1       7.498   6.907  16.928  0.00  0.00    +0.000 C 
ATOM     21  C   UNL     1       7.647   4.550  17.710  0.00  0.00    +0.000 C 
ATOM     22  C   UNL     1       6.894   5.014  15.377  0.00  0.00    +0.000 C 
ENDBRANCH  16  19
ENDBRANCH   6  15
TORSDOF 5
ENDMDL
MODEL 6
REMARK VINA RESULT:      -7.1      3.145      5.171
REMARK  Name = 
REMARK  9 active torsions:
REMARK  status: ('A' for Active; 'I' for Inactive)
REMARK    1  A    between atoms: C_1  and  C_2
REMARK    2  A    between atoms: C_2  and  C_3
REMARK    3  A    between atoms: C_3  and  C_4
REMARK    4  A    between atoms: N_6  and  C_7
REMARK    5  A    between atoms: C_12  and  N_13
REMARK    6  A    between atoms: C_14  and  C_16
REMARK    7  A    between atoms: C_16  and  C_17
REMARK    8  A    between atoms: C_16  and  C_18
REMARK    9  A    between atoms: C_16  and  C_19
REMARK                            x       y       z     vdW  Elec       q    Type
REMARK                         _______ _______ _______ _____ _____    ______ ____
ROOT
ATOM      1  C   UNL     1       7.238   6.070  18.285  0.00  0.00    +0.000 A 
ATOM      2  C   UNL     1       7.624   5.266  17.215  0.00  0.00    +0.000 A 
ATOM      3  C   UNL     1       6.731   4.362  16.650  0.00  0.00    +0.000 A 
ATOM      4  C   UNL     1       5.442   4.208  17.167  0.00  0.00    +0.000 A 
ATOM      5 CL   UNL     1       4.344   3.386  16.112  0.00  0.00    +0.000 Cl
ATOM      6  C   UNL     1       5.077   4.868  18.357  0.00  0.00    +0.000 A 
ATOM      7  C   UNL     1       5.988   5.823  18.888  0.00  0.00    +0.000 A 
ENDROOT
BRANCH   1  10
ATOM      8  C   UNL     1       8.124   8.389  18.186  0.00  0.00    +0.000 C 
ATOM      9  O   UNL     1       7.406   8.796  17.275  0.00  0.00    +0.000 OA
ATOM     10  N   UNL     1       8.071   7.119  18.757  0.00  0.00    +0.000 N 
ATOM     11  H   UNL     1       8.504   7.000  19.662  0.00  0.00    +0.000 HD
BRANCH   8  12
ATOM     12  C   UNL     1       9.134   9.335  18.807  0.00  0.00    +0.000 C 
BRANCH  12  14
ATOM     13  C   UNL     1      10.401  11.398  18.032  0.00  0.00    +0.000 C 
ATOM     14  C   UNL     1       9.040  10.766  18.295  0.00  0.00    +0.000 C 
ENDBRANCH  12  14
ENDBRANCH   8  12
ENDBRANCH   1  10
BRANCH   6  15
ATOM     15  N   UNL     1       3.848   4.703  19.069  0.00  0.00    +0.000 N 
ATOM     16  C   UNL     1       3.430   3.575  19.769  0.00  0.00    +0.000 C 
ATOM     17  O   UNL     1       4.116   2.576  19.958  0.00  0.00    +0.000 OA
ATOM     18  H   UNL     1       3.348   5.554  19.281  0.00  0.00    +0.000 HD
BRANCH  16  19
ATOM     19  C   UNL     1       2.062   3.714  20.490  0.00  0.00    +0.000 C 
ATOM     20  C   UNL     1       0.902   3.125  19.678  0.00  0.00    +0.000 C 
ATOM     21  C   UNL     1       2.112   2.979  21.847  0.00  0.00    +0.000 C 
ATOM     22  C   UNL     1       1.820   5.207  20.762  0.00  0.00    +0.000 C 
ENDBRANCH  16  19
ENDBRANCH   6  15
TORSDOF 5
ENDMDL
MODEL 7
REMARK VINA RESULT:      -7.1      3.388      8.078
REMARK  Name = 
REMARK  9 active torsions:
REMARK  status: ('A' for Active; 'I' for Inactive)
REMARK    1  A    between atoms: C_1  and  C_2
REMARK    2  A    between atoms: C_2  and  C_3
REMARK    3  A    between atoms: C_3  and  C_4
REMARK    4  A    between atoms: N_6  and  C_7
REMARK    5  A    between atoms: C_12  and  N_13
REMARK    6  A    between atoms: C_14  and  C_16
REMARK    7  A    between atoms: C_16  and  C_17
REMARK    8  A    between atoms: C_16  and  C_18
REMARK    9  A    between atoms: C_16  and  C_19
REMARK                            x       y       z     vdW  Elec       q    Type
REMARK                         _______ _______ _______ _____ _____    ______ ____
ROOT
ATOM      1  C   UNL     1       1.764   5.936  20.520  0.00  0.00    +0.000 A 
ATOM      2  C   UNL     1       1.025   4.756  20.464  0.00  0.00    +0.000 A 
ATOM      3  C   UNL     1       1.439   3.699  19.661  0.00  0.00    +0.000 A 
ATOM      4  C   UNL     1       2.579   3.809  18.861  0.00  0.00    +0.000 A 
ATOM      5 CL   UNL     1       3.186   2.299  18.273  0.00  0.00    +0.000 Cl
ATOM      6  C   UNL     1       3.247   5.045  18.752  0.00  0.00    +0.000 A 
ATOM      7  C   UNL     1       2.835   6.095  19.617  0.00  0.00    +0.000 A 
ENDROOT
BRANCH   1  10
ATOM      8  C   UNL     1       1.246   8.288  21.127  0.00  0.00    +0.000 C 
ATOM      9  O   UNL     1       1.200   8.742  19.985  0.00  0.00    +0.000 OA
ATOM     10  N   UNL     1       1.460   6.953  21.463  0.00  0.00    +0.000 N 
ATOM     11  H   UNL     1       1.201   6.664  22.396  0.00  0.00    +0.000 HD
BRANCH   8  12
ATOM     12  C   UNL     1       1.003   9.220  22.298  0.00  0.00    +0.000 C 
BRANCH  12  14
ATOM     13  C   UNL     1      -0.934  10.719  22.981  0.00  0.00    +0.000 C 
ATOM     14  C   UNL     1      -0.452   9.293  22.744  0.00  0.00    +0.000 C 
ENDBRANCH  12  14
ENDBRANCH   8  12
ENDBRANCH   1  10
BRANCH   6  15
ATOM     15  N   UNL     1       4.338   5.338  17.875  0.00  0.00    +0.000 N 
ATOM     16  C   UNL     1       5.695   5.233  18.162  0.00  0.00    +0.000 C 
ATOM     17  O   UNL     1       6.156   4.770  19.201  0.00  0.00    +0.000 OA
ATOM     18  H   UNL     1       4.106   5.398  16.894  0.00  0.00    +0.000 HD
BRANCH  16  19
ATOM     19  C   UNL     1       6.648   5.571  16.984  0.00  0.00    +0.000 C 
ATOM     20  C   UNL     1       5.908   5.726  15.650  0.00  0.00    +0.000 C 
ATOM     21  C   UNL     1       7.385   6.897  17.274  0.00  0.00    +0.000 C 
ATOM     22  C   UNL     1       7.696   4.451  16.887  0.00  0.00    +0.000 C 
ENDBRANCH  16  19
ENDBRANCH   6  15
TORSDOF 5
ENDMDL
MODEL 8
REMARK VINA RESULT:      -7.1      3.290      7.932
REMARK  Name = 
REMARK  9 active torsions:
REMARK  status: ('A' for Active; 'I' for Inactive)
REMARK    1  A    between atoms: C_1  and  C_2
REMARK    2  A    between atoms: C_2  and  C_3
REMARK    3  A    between atoms: C_3  and  C_4
REMARK    4  A    between atoms: N_6  and  C_7
REMARK    5  A    between atoms: C_12  and  N_13
REMARK    6  A    between atoms: C_14  and  C_16
REMARK    7  A    between atoms: C_16  and  C_17
REMARK    8  A    between atoms: C_16  and  C_18
REMARK    9  A    between atoms: C_16  and  C_19
REMARK                            x       y       z     vdW  Elec       q    Type
REMARK                         _______ _______ _______ _____ _____    ______ ____
ROOT
ATOM      1  C   UNL     1       2.058   5.634  20.388  0.00  0.00    +0.000 A 
ATOM      2  C   UNL     1       1.223   4.558  20.092  0.00  0.00    +0.000 A 
ATOM      3  C   UNL     1       1.698   3.474  19.361  0.00  0.00    +0.000 A 
ATOM      4  C   UNL     1       3.006   3.456  18.872  0.00  0.00    +0.000 A 
ATOM      5 CL   UNL     1       3.559   1.894  18.374  0.00  0.00    +0.000 Cl
ATOM      6  C   UNL     1       3.820   4.599  18.994  0.00  0.00    +0.000 A 
ATOM      7  C   UNL     1       3.332   5.675  19.785  0.00  0.00    +0.000 A 
ENDROOT
BRANCH   1  10
ATOM      8  C   UNL     1       1.440   7.985  20.898  0.00  0.00    +0.000 C 
ATOM      9  O   UNL     1       1.487   8.416  19.747  0.00  0.00    +0.000 OA
ATOM     10  N   UNL     1       1.649   6.661  21.279  0.00  0.00    +0.000 N 
ATOM     11  H   UNL     1       1.313   6.384  22.190  0.00  0.00    +0.000 HD
BRANCH   8  12
ATOM     12  C   UNL     1       1.073   8.932  22.024  0.00  0.00    +0.000 C 
BRANCH  12  14
ATOM     13  C   UNL     1      -0.726  10.447  22.990  0.00  0.00    +0.000 C 
ATOM     14  C   UNL     1      -0.153   9.790  21.741  0.00  0.00    +0.000 C 
ENDBRANCH  12  14
ENDBRANCH   8  12
ENDBRANCH   1  10
BRANCH   6  15
ATOM     15  N   UNL     1       5.122   4.770  18.428  0.00  0.00    +0.000 N 
ATOM     16  C   UNL     1       5.429   5.267  17.165  0.00  0.00    +0.000 C 
ATOM     17  O   UNL     1       4.610   5.729  16.378  0.00  0.00    +0.000 OA
ATOM     18  H   UNL     1       5.889   4.753  19.085  0.00  0.00    +0.000 HD
BRANCH  16  19
ATOM     19  C   UNL     1       6.945   5.386  16.853  0.00  0.00    +0.000 C 
ATOM     20  C   UNL     1       7.804   4.463  17.726  0.00  0.00    +0.000 C 
ATOM     21  C   UNL     1       7.203   5.016  15.376  0.00  0.00    +0.000 C 
ATOM     22  C   UNL     1       7.357   6.852  17.059  0.00  0.00    +0.000 C 
ENDBRANCH  16  19
ENDBRANCH   6  15
TORSDOF 5
ENDMDL
MODEL 9
REMARK VINA RESULT:      -7.1      3.234      5.175
REMARK  Name = 
REMARK  9 active torsions:
REMARK  status: ('A' for Active; 'I' for Inactive)
REMARK    1  A    between atoms: C_1  and  C_2
REMARK    2  A    between atoms: C_2  and  C_3
REMARK    3  A    between atoms: C_3  and  C_4
REMARK    4  A    between atoms: N_6  and  C_7
REMARK    5  A    between atoms: C_12  and  N_13
REMARK    6  A    between atoms: C_14  and  C_16
REMARK    7  A    between atoms: C_16  and  C_17
REMARK    8  A    between atoms: C_16  and  C_18
REMARK    9  A    between atoms: C_16  and  C_19
REMARK                            x       y       z     vdW  Elec       q    Type
REMARK                         _______ _______ _______ _____ _____    ______ ____
ROOT
ATOM      1  C   UNL     1       6.527   6.558  17.127  0.00  0.00    +0.000 A 
ATOM      2  C   UNL     1       7.050   5.524  16.354  0.00  0.00    +0.000 A 
ATOM      3  C   UNL     1       6.364   4.321  16.223  0.00  0.00    +0.000 A 
ATOM      4  C   UNL     1       5.159   4.105  16.896  0.00  0.00    +0.000 A 
ATOM      5 CL   UNL     1       4.242   2.764  16.302  0.00  0.00    +0.000 Cl
ATOM      6  C   UNL     1       4.693   5.053  17.828  0.00  0.00    +0.000 A 
ATOM      7  C   UNL     1       5.383   6.294  17.908  0.00  0.00    +0.000 A 
ENDROOT
BRANCH   1  10
ATOM      8  C   UNL     1       8.067   8.270  18.058  0.00  0.00    +0.000 C 
ATOM      9  O   UNL     1       8.582   7.568  18.926  0.00  0.00    +0.000 OA
ATOM     10  N   UNL     1       7.117   7.849  17.129  0.00  0.00    +0.000 N 
ATOM     11  H   UNL     1       6.985   8.425  16.310  0.00  0.00    +0.000 HD
BRANCH   8  12
ATOM     12  C   UNL     1       8.514   9.712  17.918  0.00  0.00    +0.000 C 
BRANCH  12  14
ATOM     13  C   UNL     1       9.876  11.632  18.879  0.00  0.00    +0.000 C 
ATOM     14  C   UNL     1       9.322  10.230  19.101  0.00  0.00    +0.000 C 
ENDBRANCH  12  14
ENDBRANCH   8  12
ENDBRANCH   1  10
BRANCH   6  15
ATOM     15  N   UNL     1       3.555   4.906  18.681  0.00  0.00    +0.000 N 
ATOM     16  C   UNL     1       3.318   3.883  19.594  0.00  0.00    +0.000 C 
ATOM     17  O   UNL     1       4.118   2.994  19.871  0.00  0.00    +0.000 OA
ATOM     18  H   UNL     1       2.991   5.734  18.803  0.00  0.00    +0.000 HD
BRANCH  16  19
ATOM     19  C   UNL     1       2.012   4.025  20.421  0.00  0.00    +0.000 C 
ATOM     20  C   UNL     1       0.801   3.388  19.729  0.00  0.00    +0.000 C 
ATOM     21  C   UNL     1       2.187   3.338  21.794  0.00  0.00    +0.000 C 
ATOM     22  C   UNL     1       1.765   5.522  20.662  0.00  0.00    +0.000 C 
ENDBRANCH  16  19
ENDBRANCH   6  15
TORSDOF 5
ENDMDL
