MODEL 1
REMARK VINA RESULT:      -7.6      0.000      0.000
REMARK  Name = 
REMARK  9 active torsions:
REMARK  status: ('A' for Active; 'I' for Inactive)
REMARK    1  A    between atoms: C_1  and  O_2
REMARK    2  A    between atoms: O_2  and  C_3
REMARK    3  A    between atoms: C_5  and  C_6
REMARK    4  A    between atoms: C_6  and  C_8
REMARK    5  A    between atoms: C_11  and  C_12
REMARK    6  A    between atoms: C_21  and  O_22
REMARK    7  A    between atoms: O_22  and  C_23
REMARK    8  A    between atoms: C_24  and  O_25
REMARK    9  A    between atoms: O_25  and  C_26
REMARK                            x       y       z     vdW  Elec       q    Type
REMARK                         _______ _______ _______ _____ _____    ______ ____
ROOT
ATOM      1  C   UNL     1       0.544  11.083  18.948  0.00  0.00    +0.000 C 
ATOM      2  O   UNL     1       1.204  12.111  19.096  0.00  0.00    +0.000 OA
ENDROOT
BRANCH   1   5
ATOM      3  C   UNL     1      -2.804  10.443  17.329  0.00  0.00    +0.000 A 
ATOM      4  C   UNL     1      -1.420  10.492  17.560  0.00  0.00    +0.000 A 
ATOM      5  C   UNL     1      -0.907  11.199  18.639  0.00  0.00    +0.000 A 
ATOM      6  C   UNL     1      -1.763  11.976  19.416  0.00  0.00    +0.000 A 
ATOM      7  C   UNL     1      -3.145  11.987  19.172  0.00  0.00    +0.000 A 
ATOM      8  C   UNL     1      -3.686  11.217  18.118  0.00  0.00    +0.000 A 
BRANCH   3  10
ATOM      9  C   UNL     1      -3.000  10.083  14.989  0.00  0.00    +0.000 C 
ATOM     10  O   UNL     1      -3.301   9.657  16.321  0.00  0.00    +0.000 OA
ENDBRANCH   3  10
BRANCH   7  11
ATOM     11  O   UNL     1      -3.790  12.784  20.085  0.00  0.00    +0.000 OA
ATOM     12  C   UNL     1      -3.421  12.732  21.453  0.00  0.00    +0.000 C 
ENDBRANCH   7  11
BRANCH   8  13
ATOM     13  O   UNL     1      -5.042  11.302  17.961  0.00  0.00    +0.000 OA
ATOM     14  C   UNL     1      -5.623  12.272  17.108  0.00  0.00    +0.000 C 
ENDBRANCH   8  13
ENDBRANCH   1   5
BRANCH   1  15
ATOM     15  C   UNL     1       1.207   9.757  19.066  0.00  0.00    +0.000 A 
ATOM     16  C   UNL     1       1.103   9.082  20.287  0.00  0.00    +0.000 A 
ATOM     17  C   UNL     1       1.654   7.809  20.432  0.00  0.00    +0.000 A 
ATOM     18  C   UNL     1       2.324   7.187  19.365  0.00  0.00    +0.000 A 
ATOM     19  C   UNL     1       2.484   7.897  18.168  0.00  0.00    +0.000 A 
ATOM     20  C   UNL     1       1.939   9.179  18.021  0.00  0.00    +0.000 A 
BRANCH  18  21
ATOM     21  C   UNL     1       2.848   5.830  19.491  0.00  0.00    +0.000 A 
ATOM     22  C   UNL     1       2.116   4.777  20.004  0.00  0.00    +0.000 A 
ATOM     23  S   UNL     1       3.064   3.353  20.005  0.00  0.00    +0.000 S 
ATOM     24  C   UNL     1       4.365   4.232  19.316  0.00  0.00    +0.000 A 
ATOM     25  N   UNL     1       5.537   3.633  19.050  0.00  0.00    +0.000 N 
ATOM     26  N   UNL     1       4.124   5.496  19.063  0.00  0.00    +0.000 NA
ATOM     27  H   UNL     1       5.556   2.623  18.985  0.00  0.00    +0.000 HD
ATOM     28  H   UNL     1       6.156   4.117  18.413  0.00  0.00    +0.000 HD
ENDBRANCH  18  21
ENDBRANCH   1  15
TORSDOF 6
ENDMDL
MODEL 2
REMARK VINA RESULT:      -7.6      0.783      2.821
REMARK  Name = 
REMARK  9 active torsions:
REMARK  status: ('A' for Active; 'I' for Inactive)
REMARK    1  A    between atoms: C_1  and  O_2
REMARK    2  A    between atoms: O_2  and  C_3
REMARK    3  A    between atoms: C_5  and  C_6
REMARK    4  A    between atoms: C_6  and  C_8
REMARK    5  A    between atoms: C_11  and  C_12
REMARK    6  A    between atoms: C_21  and  O_22
REMARK    7  A    between atoms: O_22  and  C_23
REMARK    8  A    between atoms: C_24  and  O_25
REMARK    9  A    between atoms: O_25  and  C_26
REMARK                            x       y       z     vdW  Elec       q    Type
REMARK                         _______ _______ _______ _____ _____    ______ ____
ROOT
ATOM      1  C   UNL     1       0.718  10.724  18.859  0.00  0.00    +0.000 C 
ATOM      2  O   UNL     1       1.378  11.752  19.008  0.00  0.00    +0.000 OA
ENDROOT
BRANCH   1   5
ATOM      3  C   UNL     1      -2.851  11.913  19.151  0.00  0.00    +0.000 A 
ATOM      4  C   UNL     1      -1.504  11.648  19.443  0.00  0.00    +0.000 A 
ATOM      5  C   UNL     1      -0.744  10.838  18.609  0.00  0.00    +0.000 A 
ATOM      6  C   UNL     1      -1.363  10.176  17.552  0.00  0.00    +0.000 A 
ATOM      7  C   UNL     1      -2.721  10.382  17.270  0.00  0.00    +0.000 A 
ATOM      8  C   UNL     1      -3.488  11.257  18.072  0.00  0.00    +0.000 A 
BRANCH   3  10
ATOM      9  C   UNL     1      -3.167  12.874  21.300  0.00  0.00    +0.000 C 
ATOM     10  O   UNL     1      -3.558  12.796  19.926  0.00  0.00    +0.000 OA
ENDBRANCH   3  10
BRANCH   7  11
ATOM     11  O   UNL     1      -3.100   9.663  16.163  0.00  0.00    +0.000 OA
ATOM     12  C   UNL     1      -3.182  10.304  14.900  0.00  0.00    +0.000 C 
ENDBRANCH   7  11
BRANCH   8  13
ATOM     13  O   UNL     1      -4.803  11.383  17.716  0.00  0.00    +0.000 OA
ATOM     14  C   UNL     1      -5.820  10.682  18.408  0.00  0.00    +0.000 C 
ENDBRANCH   8  13
ENDBRANCH   1   5
BRANCH   1  15
ATOM     15  C   UNL     1       1.393   9.400  18.917  0.00  0.00    +0.000 A 
ATOM     16  C   UNL     1       2.124   8.991  17.796  0.00  0.00    +0.000 A 
ATOM     17  C   UNL     1       2.826   7.786  17.819  0.00  0.00    +0.000 A 
ATOM     18  C   UNL     1       2.810   6.964  18.958  0.00  0.00    +0.000 A 
ATOM     19  C   UNL     1       2.021   7.347  20.050  0.00  0.00    +0.000 A 
ATOM     20  C   UNL     1       1.307   8.552  20.028  0.00  0.00    +0.000 A 
BRANCH  18  21
ATOM     21  C   UNL     1       3.593   5.733  19.011  0.00  0.00    +0.000 A 
ATOM     22  C   UNL     1       3.166   4.586  19.651  0.00  0.00    +0.000 A 
ATOM     23  S   UNL     1       4.353   3.362  19.512  0.00  0.00    +0.000 S 
ATOM     24  C   UNL     1       5.336   4.435  18.604  0.00  0.00    +0.000 A 
ATOM     25  N   UNL     1       6.541   4.052  18.153  0.00  0.00    +0.000 N 
ATOM     26  N   UNL     1       4.823   5.621  18.379  0.00  0.00    +0.000 NA
ATOM     27  H   UNL     1       6.740   3.060  18.098  0.00  0.00    +0.000 HD
ATOM     28  H   UNL     1       6.946   4.613  17.415  0.00  0.00    +0.000 HD
ENDBRANCH  18  21
ENDBRANCH   1  15
TORSDOF 6
ENDMDL
MODEL 3
REMARK VINA RESULT:      -7.6      1.136      2.941
REMARK  Name = 
REMARK  9 active torsions:
REMARK  status: ('A' for Active; 'I' for Inactive)
REMARK    1  A    between atoms: C_1  and  O_2
REMARK    2  A    between atoms: O_2  and  C_3
REMARK    3  A    between atoms: C_5  and  C_6
REMARK    4  A    between atoms: C_6  and  C_8
REMARK    5  A    between atoms: C_11  and  C_12
REMARK    6  A    between atoms: C_21  and  O_22
REMARK    7  A    between atoms: O_22  and  C_23
REMARK    8  A    between atoms: C_24  and  O_25
REMARK    9  A    between atoms: O_25  and  C_26
REMARK                            x       y       z     vdW  Elec       q    Type
REMARK                         _______ _______ _______ _____ _____    ______ ____
ROOT
ATOM      1  C   UNL     1       0.579  10.723  19.606  0.00  0.00    +0.000 C 
ATOM      2  O   UNL     1       1.167  11.639  20.180  0.00  0.00    +0.000 OA
ENDROOT
BRANCH   1   5
ATOM      3  C   UNL     1      -2.908  12.161  19.479  0.00  0.00    +0.000 A 
ATOM      4  C   UNL     1      -1.617  11.824  19.918  0.00  0.00    +0.000 A 
ATOM      5  C   UNL     1      -0.841  10.920  19.206  0.00  0.00    +0.000 A 
ATOM      6  C   UNL     1      -1.400  10.243  18.125  0.00  0.00    +0.000 A 
ATOM      7  C   UNL     1      -2.707  10.522  17.699  0.00  0.00    +0.000 A 
ATOM      8  C   UNL     1      -3.482  11.490  18.375  0.00  0.00    +0.000 A 
BRANCH   3  10
ATOM      9  C   UNL     1      -4.361  12.697  21.280  0.00  0.00    +0.000 C 
ATOM     10  O   UNL     1      -3.621  13.131  20.136  0.00  0.00    +0.000 OA
ENDBRANCH   3  10
BRANCH   7  11
ATOM     11  O   UNL     1      -3.027   9.769  16.595  0.00  0.00    +0.000 OA
ATOM     12  C   UNL     1      -2.861  10.314  15.297  0.00  0.00    +0.000 C 
ENDBRANCH   7  11
BRANCH   8  13
ATOM     13  O   UNL     1      -4.745  11.683  17.884  0.00  0.00    +0.000 OA
ATOM     14  C   UNL     1      -5.834  10.896  18.331  0.00  0.00    +0.000 C 
ENDBRANCH   8  13
ENDBRANCH   1   5
BRANCH   1  15
ATOM     15  C   UNL     1       1.297   9.455  19.313  0.00  0.00    +0.000 A 
ATOM     16  C   UNL     1       1.899   9.321  18.058  0.00  0.00    +0.000 A 
ATOM     17  C   UNL     1       2.637   8.177  17.753  0.00  0.00    +0.000 A 
ATOM     18  C   UNL     1       2.785   7.142  18.692  0.00  0.00    +0.000 A 
ATOM     19  C   UNL     1       2.122   7.254  19.922  0.00  0.00    +0.000 A 
ATOM     20  C   UNL     1       1.373   8.397  20.228  0.00  0.00    +0.000 A 
BRANCH  18  21
ATOM     21  C   UNL     1       3.607   5.972  18.403  0.00  0.00    +0.000 A 
ATOM     22  C   UNL     1       4.196   5.740  17.175  0.00  0.00    +0.000 A 
ATOM     23  S   UNL     1       5.068   4.269  17.212  0.00  0.00    +0.000 S 
ATOM     24  C   UNL     1       4.615   4.056  18.852  0.00  0.00    +0.000 A 
ATOM     25  N   UNL     1       5.006   2.972  19.540  0.00  0.00    +0.000 N 
ATOM     26  N   UNL     1       3.888   5.018  19.369  0.00  0.00    +0.000 NA
ATOM     27  H   UNL     1       5.792   2.438  19.189  0.00  0.00    +0.000 HD
ATOM     28  H   UNL     1       4.941   3.029  20.548  0.00  0.00    +0.000 HD
ENDBRANCH  18  21
ENDBRANCH   1  15
TORSDOF 6
ENDMDL
MODEL 4
REMARK VINA RESULT:      -7.5      1.076      2.733
REMARK  Name = 
REMARK  9 active torsions:
REMARK  status: ('A' for Active; 'I' for Inactive)
REMARK    1  A    between atoms: C_1  and  O_2
REMARK    2  A    between atoms: O_2  and  C_3
REMARK    3  A    between atoms: C_5  and  C_6
REMARK    4  A    between atoms: C_6  and  C_8
REMARK    5  A    between atoms: C_11  and  C_12
REMARK    6  A    between atoms: C_21  and  O_22
REMARK    7  A    between atoms: O_22  and  C_23
REMARK    8  A    between atoms: C_24  and  O_25
REMARK    9  A    between atoms: O_25  and  C_26
REMARK                            x       y       z     vdW  Elec       q    Type
REMARK                         _______ _______ _______ _____ _____    ______ ____
ROOT
ATOM      1  C   UNL     1       0.466  10.757  19.702  0.00  0.00    +0.000 C 
ATOM      2  O   UNL     1       0.996  11.618  20.403  0.00  0.00    +0.000 OA
ENDROOT
BRANCH   1   5
ATOM      3  C   UNL     1      -3.017  12.192  19.479  0.00  0.00    +0.000 A 
ATOM      4  C   UNL     1      -1.741  11.852  19.955  0.00  0.00    +0.000 A 
ATOM      5  C   UNL     1      -0.941  10.955  19.260  0.00  0.00    +0.000 A 
ATOM      6  C   UNL     1      -1.466  10.286  18.157  0.00  0.00    +0.000 A 
ATOM      7  C   UNL     1      -2.759  10.568  17.692  0.00  0.00    +0.000 A 
ATOM      8  C   UNL     1      -3.557  11.529  18.353  0.00  0.00    +0.000 A 
BRANCH   3  10
ATOM      9  C   UNL     1      -4.346  12.766  21.362  0.00  0.00    +0.000 C 
ATOM     10  O   UNL     1      -3.752  13.156  20.121  0.00  0.00    +0.000 OA
ENDBRANCH   3  10
BRANCH   7  11
ATOM     11  O   UNL     1      -3.044   9.824  16.573  0.00  0.00    +0.000 OA
ATOM     12  C   UNL     1      -2.868  10.391  15.286  0.00  0.00    +0.000 C 
ENDBRANCH   7  11
BRANCH   8  13
ATOM     13  O   UNL     1      -4.803  11.725  17.824  0.00  0.00    +0.000 OA
ATOM     14  C   UNL     1      -5.916  10.972  18.271  0.00  0.00    +0.000 C 
ENDBRANCH   8  13
ENDBRANCH   1   5
BRANCH   1  15
ATOM     15  C   UNL     1       1.240   9.551  19.304  0.00  0.00    +0.000 A 
ATOM     16  C   UNL     1       1.378   8.525  20.244  0.00  0.00    +0.000 A 
ATOM     17  C   UNL     1       2.043   7.347  19.903  0.00  0.00    +0.000 A 
ATOM     18  C   UNL     1       2.586   7.172  18.619  0.00  0.00    +0.000 A 
ATOM     19  C   UNL     1       2.504   8.231  17.706  0.00  0.00    +0.000 A 
ATOM     20  C   UNL     1       1.845   9.418  18.047  0.00  0.00    +0.000 A 
BRANCH  18  21
ATOM     21  C   UNL     1       3.227   5.917  18.235  0.00  0.00    +0.000 A 
ATOM     22  C   UNL     1       2.525   4.783  17.878  0.00  0.00    +0.000 A 
ATOM     23  S   UNL     1       3.613   3.515  17.508  0.00  0.00    +0.000 S 
ATOM     24  C   UNL     1       4.929   4.565  17.834  0.00  0.00    +0.000 A 
ATOM     25  N   UNL     1       6.196   4.134  17.732  0.00  0.00    +0.000 N 
ATOM     26  N   UNL     1       4.607   5.792  18.168  0.00  0.00    +0.000 NA
ATOM     27  H   UNL     1       6.376   3.296  17.191  0.00  0.00    +0.000 HD
ATOM     28  H   UNL     1       6.912   4.846  17.671  0.00  0.00    +0.000 HD
ENDBRANCH  18  21
ENDBRANCH   1  15
TORSDOF 6
ENDMDL
MODEL 5
REMARK VINA RESULT:      -7.4      1.418      2.947
REMARK  Name = 
REMARK  9 active torsions:
REMARK  status: ('A' for Active; 'I' for Inactive)
REMARK    1  A    between atoms: C_1  and  O_2
REMARK    2  A    between atoms: O_2  and  C_3
REMARK    3  A    between atoms: C_5  and  C_6
REMARK    4  A    between atoms: C_6  and  C_8
REMARK    5  A    between atoms: C_11  and  C_12
REMARK    6  A    between atoms: C_21  and  O_22
REMARK    7  A    between atoms: O_22  and  C_23
REMARK    8  A    between atoms: C_24  and  O_25
REMARK    9  A    between atoms: O_25  and  C_26
REMARK                            x       y       z     vdW  Elec       q    Type
REMARK                         _______ _______ _______ _____ _____    ______ ____
ROOT
ATOM      1  C   UNL     1       0.909  10.537  18.685  0.00  0.00    +0.000 C 
ATOM      2  O   UNL     1       1.710  11.443  18.457  0.00  0.00    +0.000 OA
ENDROOT
BRANCH   1   5
ATOM      3  C   UNL     1      -2.446  12.107  19.408  0.00  0.00    +0.000 A 
ATOM      4  C   UNL     1      -1.115  11.677  19.541  0.00  0.00    +0.000 A 
ATOM      5  C   UNL     1      -0.548  10.828  18.602  0.00  0.00    +0.000 A 
ATOM      6  C   UNL     1      -1.347  10.291  17.596  0.00  0.00    +0.000 A 
ATOM      7  C   UNL     1      -2.694  10.662  17.472  0.00  0.00    +0.000 A 
ATOM      8  C   UNL     1      -3.265  11.580  18.383  0.00  0.00    +0.000 A 
BRANCH   3  10
ATOM      9  C   UNL     1      -2.110  13.390  21.379  0.00  0.00    +0.000 C 
ATOM     10  O   UNL     1      -2.959  13.027  20.286  0.00  0.00    +0.000 OA
ENDBRANCH   3  10
BRANCH   7  11
ATOM     11  O   UNL     1      -3.269  10.045  16.388  0.00  0.00    +0.000 OA
ATOM     12  C   UNL     1      -2.971  10.497  15.078  0.00  0.00    +0.000 C 
ENDBRANCH   7  11
BRANCH   8  13
ATOM     13  O   UNL     1      -4.586  11.871  18.178  0.00  0.00    +0.000 OA
ATOM     14  C   UNL     1      -5.604  10.961  18.556  0.00  0.00    +0.000 C 
ENDBRANCH   8  13
ENDBRANCH   1   5
BRANCH   1  15
ATOM     15  C   UNL     1       1.410   9.179  19.023  0.00  0.00    +0.000 A 
ATOM     16  C   UNL     1       1.207   8.714  20.327  0.00  0.00    +0.000 A 
ATOM     17  C   UNL     1       1.603   7.424  20.680  0.00  0.00    +0.000 A 
ATOM     18  C   UNL     1       2.212   6.574  19.742  0.00  0.00    +0.000 A 
ATOM     19  C   UNL     1       2.474   7.070  18.458  0.00  0.00    +0.000 A 
ATOM     20  C   UNL     1       2.086   8.368  18.102  0.00  0.00    +0.000 A 
BRANCH  18  21
ATOM     21  C   UNL     1       2.570   5.202  20.088  0.00  0.00    +0.000 A 
ATOM     22  C   UNL     1       3.568   4.492  19.449  0.00  0.00    +0.000 A 
ATOM     23  S   UNL     1       3.688   2.922  20.118  0.00  0.00    +0.000 S 
ATOM     24  C   UNL     1       2.422   3.303  21.210  0.00  0.00    +0.000 A 
ATOM     25  N   UNL     1       1.979   2.396  22.094  0.00  0.00    +0.000 N 
ATOM     26  N   UNL     1       1.947   4.522  21.124  0.00  0.00    +0.000 NA
ATOM     27  H   UNL     1       2.574   1.605  22.311  0.00  0.00    +0.000 HD
ATOM     28  H   UNL     1       1.437   2.750  22.871  0.00  0.00    +0.000 HD
ENDBRANCH  18  21
ENDBRANCH   1  15
TORSDOF 6
ENDMDL
MODEL 6
REMARK VINA RESULT:      -7.4      0.557      2.619
REMARK  Name = 
REMARK  9 active torsions:
REMARK  status: ('A' for Active; 'I' for Inactive)
REMARK    1  A    between atoms: C_1  and  O_2
REMARK    2  A    between atoms: O_2  and  C_3
REMARK    3  A    between atoms: C_5  and  C_6
REMARK    4  A    between atoms: C_6  and  C_8
REMARK    5  A    between atoms: C_11  and  C_12
REMARK    6  A    between atoms: C_21  and  O_22
REMARK    7  A    between atoms: O_22  and  C_23
REMARK    8  A    between atoms: C_24  and  O_25
REMARK    9  A    between atoms: O_25  and  C_26
REMARK                            x       y       z     vdW  Elec       q    Type
REMARK                         _______ _______ _______ _____ _____    ______ ____
ROOT
ATOM      1  C   UNL     1       0.484  11.089  18.781  0.00  0.00    +0.000 C 
ATOM      2  O   UNL     1       1.174  12.105  18.695  0.00  0.00    +0.000 OA
ENDROOT
BRANCH   1   5
ATOM      3  C   UNL     1      -3.033  12.199  19.579  0.00  0.00    +0.000 A 
ATOM      4  C   UNL     1      -1.663  11.915  19.697  0.00  0.00    +0.000 A 
ATOM      5  C   UNL     1      -0.996  11.216  18.700  0.00  0.00    +0.000 A 
ATOM      6  C   UNL     1      -1.723  10.677  17.642  0.00  0.00    +0.000 A 
ATOM      7  C   UNL     1      -3.103  10.899  17.529  0.00  0.00    +0.000 A 
ATOM      8  C   UNL     1      -3.780  11.667  18.503  0.00  0.00    +0.000 A 
BRANCH   3  10
ATOM      9  C   UNL     1      -3.316  12.699  21.884  0.00  0.00    +0.000 C 
ATOM     10  O   UNL     1      -3.654  12.977  20.522  0.00  0.00    +0.000 OA
ENDBRANCH   3  10
BRANCH   7  11
ATOM     11  O   UNL     1      -3.596  10.311  16.389  0.00  0.00    +0.000 OA
ATOM     12  C   UNL     1      -2.749  10.127  15.267  0.00  0.00    +0.000 C 
ENDBRANCH   7  11
BRANCH   8  13
ATOM     13  O   UNL     1      -5.125  11.820  18.303  0.00  0.00    +0.000 OA
ATOM     14  C   UNL     1      -6.052  10.867  18.791  0.00  0.00    +0.000 C 
ENDBRANCH   8  13
ENDBRANCH   1   5
BRANCH   1  15
ATOM     15  C   UNL     1       1.140   9.766  18.949  0.00  0.00    +0.000 A 
ATOM     16  C   UNL     1       1.075   9.161  20.209  0.00  0.00    +0.000 A 
ATOM     17  C   UNL     1       1.621   7.893  20.406  0.00  0.00    +0.000 A 
ATOM     18  C   UNL     1       2.245   7.204  19.352  0.00  0.00    +0.000 A 
ATOM     19  C   UNL     1       2.366   7.845  18.112  0.00  0.00    +0.000 A 
ATOM     20  C   UNL     1       1.827   9.122  17.912  0.00  0.00    +0.000 A 
BRANCH  18  21
ATOM     21  C   UNL     1       2.762   5.851  19.535  0.00  0.00    +0.000 A 
ATOM     22  C   UNL     1       2.034   4.831  20.117  0.00  0.00    +0.000 A 
ATOM     23  S   UNL     1       2.971   3.401  20.170  0.00  0.00    +0.000 S 
ATOM     24  C   UNL     1       4.262   4.233  19.408  0.00  0.00    +0.000 A 
ATOM     25  N   UNL     1       5.424   3.612  19.147  0.00  0.00    +0.000 N 
ATOM     26  N   UNL     1       4.025   5.485  19.096  0.00  0.00    +0.000 NA
ATOM     27  H   UNL     1       5.434   2.599  19.133  0.00  0.00    +0.000 HD
ATOM     28  H   UNL     1       6.032   4.057  18.473  0.00  0.00    +0.000 HD
ENDBRANCH  18  21
ENDBRANCH   1  15
TORSDOF 6
ENDMDL
MODEL 7
REMARK VINA RESULT:      -7.4      1.375      1.486
REMARK  Name = 
REMARK  9 active torsions:
REMARK  status: ('A' for Active; 'I' for Inactive)
REMARK    1  A    between atoms: C_1  and  O_2
REMARK    2  A    between atoms: O_2  and  C_3
REMARK    3  A    between atoms: C_5  and  C_6
REMARK    4  A    between atoms: C_6  and  C_8
REMARK    5  A    between atoms: C_11  and  C_12
REMARK    6  A    between atoms: C_21  and  O_22
REMARK    7  A    between atoms: O_22  and  C_23
REMARK    8  A    between atoms: C_24  and  O_25
REMARK    9  A    between atoms: O_25  and  C_26
REMARK                            x       y       z     vdW  Elec       q    Type
REMARK                         _______ _______ _______ _____ _____    ______ ____
ROOT
ATOM      1  C   UNL     1       0.990  10.654  18.738  0.00  0.00    +0.000 C 
ATOM      2  O   UNL     1       1.816  11.560  18.633  0.00  0.00    +0.000 OA
ENDROOT
BRANCH   1   5
ATOM      3  C   UNL     1      -2.529  10.428  17.395  0.00  0.00    +0.000 A 
ATOM      4  C   UNL     1      -1.139  10.287  17.527  0.00  0.00    +0.000 A 
ATOM      5  C   UNL     1      -0.449  10.965  18.523  0.00  0.00    +0.000 A 
ATOM      6  C   UNL     1      -1.124  11.897  19.307  0.00  0.00    +0.000 A 
ATOM      7  C   UNL     1      -2.504  12.097  19.159  0.00  0.00    +0.000 A 
ATOM      8  C   UNL     1      -3.229  11.362  18.194  0.00  0.00    +0.000 A 
BRANCH   3  10
ATOM      9  C   UNL     1      -3.031  10.048  15.105  0.00  0.00    +0.000 C 
ATOM     10  O   UNL     1      -3.209   9.674  16.474  0.00  0.00    +0.000 OA
ENDBRANCH   3  10
BRANCH   7  11
ATOM     11  O   UNL     1      -2.958  13.026  20.064  0.00  0.00    +0.000 OA
ATOM     12  C   UNL     1      -3.371  12.610  21.355  0.00  0.00    +0.000 C 
ENDBRANCH   7  11
BRANCH   8  13
ATOM     13  O   UNL     1      -4.568  11.636  18.127  0.00  0.00    +0.000 OA
ATOM     14  C   UNL     1      -5.533  10.690  18.549  0.00  0.00    +0.000 C 
ENDBRANCH   8  13
ENDBRANCH   1   5
BRANCH   1  15
ATOM     15  C   UNL     1       1.445   9.275  19.059  0.00  0.00    +0.000 A 
ATOM     16  C   UNL     1       1.192   8.789  20.347  0.00  0.00    +0.000 A 
ATOM     17  C   UNL     1       1.543   7.482  20.683  0.00  0.00    +0.000 A 
ATOM     18  C   UNL     1       2.157   6.635  19.744  0.00  0.00    +0.000 A 
ATOM     19  C   UNL     1       2.468   7.151  18.480  0.00  0.00    +0.000 A 
ATOM     20  C   UNL     1       2.125   8.466  18.141  0.00  0.00    +0.000 A 
BRANCH  18  21
ATOM     21  C   UNL     1       2.468   5.247  20.070  0.00  0.00    +0.000 A 
ATOM     22  C   UNL     1       3.412   4.500  19.393  0.00  0.00    +0.000 A 
ATOM     23  S   UNL     1       3.489   2.922  20.049  0.00  0.00    +0.000 S 
ATOM     24  C   UNL     1       2.279   3.349  21.187  0.00  0.00    +0.000 A 
ATOM     25  N   UNL     1       1.829   2.455  22.082  0.00  0.00    +0.000 N 
ATOM     26  N   UNL     1       1.853   4.587  21.124  0.00  0.00    +0.000 NA
ATOM     27  H   UNL     1       2.397   1.638  22.273  0.00  0.00    +0.000 HD
ATOM     28  H   UNL     1       1.330   2.827  22.879  0.00  0.00    +0.000 HD
ENDBRANCH  18  21
ENDBRANCH   1  15
TORSDOF 6
ENDMDL
MODEL 8
REMARK VINA RESULT:      -7.3      1.173      1.227
REMARK  Name = 
REMARK  9 active torsions:
REMARK  status: ('A' for Active; 'I' for Inactive)
REMARK    1  A    between atoms: C_1  and  O_2
REMARK    2  A    between atoms: O_2  and  C_3
REMARK    3  A    between atoms: C_5  and  C_6
REMARK    4  A    between atoms: C_6  and  C_8
REMARK    5  A    between atoms: C_11  and  C_12
REMARK    6  A    between atoms: C_21  and  O_22
REMARK    7  A    between atoms: O_22  and  C_23
REMARK    8  A    between atoms: C_24  and  O_25
REMARK    9  A    between atoms: O_25  and  C_26
REMARK                            x       y       z     vdW  Elec       q    Type
REMARK                         _______ _______ _______ _____ _____    ______ ____
ROOT
ATOM      1  C   UNL     1       0.758  10.760  19.073  0.00  0.00    +0.000 C 
ATOM      2  O   UNL     1       1.440  11.722  19.425  0.00  0.00    +0.000 OA
ENDROOT
BRANCH   1   5
ATOM      3  C   UNL     1      -2.547  10.375  17.293  0.00  0.00    +0.000 A 
ATOM      4  C   UNL     1      -1.176  10.319  17.591  0.00  0.00    +0.000 A 
ATOM      5  C   UNL     1      -0.663  10.987  18.695  0.00  0.00    +0.000 A 
ATOM      6  C   UNL     1      -1.493  11.829  19.430  0.00  0.00    +0.000 A 
ATOM      7  C   UNL     1      -2.856  11.946  19.120  0.00  0.00    +0.000 A 
ATOM      8  C   UNL     1      -3.404  11.217  18.040  0.00  0.00    +0.000 A 
BRANCH   3  10
ATOM      9  C   UNL     1      -2.974  10.219  14.962  0.00  0.00    +0.000 C 
ATOM     10  O   UNL     1      -3.054   9.628  16.262  0.00  0.00    +0.000 OA
ENDBRANCH   3  10
BRANCH   7  11
ATOM     11  O   UNL     1      -3.482  12.793  20.002  0.00  0.00    +0.000 OA
ATOM     12  C   UNL     1      -2.753  13.353  21.081  0.00  0.00    +0.000 C 
ENDBRANCH   7  11
BRANCH   8  13
ATOM     13  O   UNL     1      -4.741  11.406  17.819  0.00  0.00    +0.000 OA
ATOM     14  C   UNL     1      -5.713  10.610  18.473  0.00  0.00    +0.000 C 
ENDBRANCH   8  13
ENDBRANCH   1   5
BRANCH   1  15
ATOM     15  C   UNL     1       1.367   9.405  19.020  0.00  0.00    +0.000 A 
ATOM     16  C   UNL     1       1.325   8.625  20.181  0.00  0.00    +0.000 A 
ATOM     17  C   UNL     1       1.827   7.324  20.169  0.00  0.00    +0.000 A 
ATOM     18  C   UNL     1       2.385   6.777  19.001  0.00  0.00    +0.000 A 
ATOM     19  C   UNL     1       2.486   7.587  17.863  0.00  0.00    +0.000 A 
ATOM     20  C   UNL     1       1.990   8.897  17.873  0.00  0.00    +0.000 A 
BRANCH  18  21
ATOM     21  C   UNL     1       2.854   5.395  18.965  0.00  0.00    +0.000 A 
ATOM     22  C   UNL     1       4.060   4.986  19.501  0.00  0.00    +0.000 A 
ATOM     23  S   UNL     1       4.269   3.306  19.257  0.00  0.00    +0.000 S 
ATOM     24  C   UNL     1       2.744   3.242  18.475  0.00  0.00    +0.000 A 
ATOM     25  N   UNL     1       2.271   2.087  17.980  0.00  0.00    +0.000 N 
ATOM     26  N   UNL     1       2.090   4.377  18.414  0.00  0.00    +0.000 NA
ATOM     27  H   UNL     1       2.671   1.220  18.319  0.00  0.00    +0.000 HD
ATOM     28  H   UNL     1       1.281   2.054  17.779  0.00  0.00    +0.000 HD
ENDBRANCH  18  21
ENDBRANCH   1  15
TORSDOF 6
ENDMDL
MODEL 9
REMARK VINA RESULT:      -7.3      0.751      1.201
REMARK  Name = 
REMARK  9 active torsions:
REMARK  status: ('A' for Active; 'I' for Inactive)
REMARK    1  A    between atoms: C_1  and  O_2
REMARK    2  A    between atoms: O_2  and  C_3
REMARK    3  A    between atoms: C_5  and  C_6
REMARK    4  A    between atoms: C_6  and  C_8
REMARK    5  A    between atoms: C_11  and  C_12
REMARK    6  A    between atoms: C_21  and  O_22
REMARK    7  A    between atoms: O_22  and  C_23
REMARK    8  A    between atoms: C_24  and  O_25
REMARK    9  A    between atoms: O_25  and  C_26
REMARK                            x       y       z     vdW  Elec       q    Type
REMARK                         _______ _______ _______ _____ _____    ______ ____
ROOT
ATOM      1  C   UNL     1       0.570  10.880  19.403  0.00  0.00    +0.000 C 
ATOM      2  O   UNL     1       1.213  11.834  19.840  0.00  0.00    +0.000 OA
ENDROOT
BRANCH   1   5
ATOM      3  C   UNL     1      -2.657  10.449  17.495  0.00  0.00    +0.000 A 
ATOM      4  C   UNL     1      -1.301  10.393  17.856  0.00  0.00    +0.000 A 
ATOM      5  C   UNL     1      -0.830  11.104  18.952  0.00  0.00    +0.000 A 
ATOM      6  C   UNL     1      -1.682  11.985  19.612  0.00  0.00    +0.000 A 
ATOM      7  C   UNL     1      -3.029  12.101  19.236  0.00  0.00    +0.000 A 
ATOM      8  C   UNL     1      -3.536  11.331  18.166  0.00  0.00    +0.000 A 
BRANCH   3  10
ATOM      9  C   UNL     1      -2.961  10.185  15.154  0.00  0.00    +0.000 C 
ATOM     10  O   UNL     1      -3.126   9.662  16.475  0.00  0.00    +0.000 OA
ENDBRANCH   3  10
BRANCH   7  11
ATOM     11  O   UNL     1      -3.683  12.992  20.051  0.00  0.00    +0.000 OA
ATOM     12  C   UNL     1      -3.920  12.663  21.410  0.00  0.00    +0.000 C 
ENDBRANCH   7  11
BRANCH   8  13
ATOM     13  O   UNL     1      -4.860  11.523  17.876  0.00  0.00    +0.000 OA
ATOM     14  C   UNL     1      -5.868  10.760  18.515  0.00  0.00    +0.000 C 
ENDBRANCH   8  13
ENDBRANCH   1   5
BRANCH   1  15
ATOM     15  C   UNL     1       1.205   9.538  19.321  0.00  0.00    +0.000 A 
ATOM     16  C   UNL     1       1.823   9.182  18.118  0.00  0.00    +0.000 A 
ATOM     17  C   UNL     1       2.486   7.959  18.006  0.00  0.00    +0.000 A 
ATOM     18  C   UNL     1       2.542   7.068  19.091  0.00  0.00    +0.000 A 
ATOM     19  C   UNL     1       1.863   7.402  20.270  0.00  0.00    +0.000 A 
ATOM     20  C   UNL     1       1.189   8.625  20.383  0.00  0.00    +0.000 A 
BRANCH  18  21
ATOM     21  C   UNL     1       3.288   5.816  19.001  0.00  0.00    +0.000 A 
ATOM     22  C   UNL     1       3.006   4.705  19.771  0.00  0.00    +0.000 A 
ATOM     23  S   UNL     1       4.096   3.441  19.395  0.00  0.00    +0.000 S 
ATOM     24  C   UNL     1       4.849   4.452  18.233  0.00  0.00    +0.000 A 
ATOM     25  N   UNL     1       5.899   4.017  17.518  0.00  0.00    +0.000 N 
ATOM     26  N   UNL     1       4.323   5.645  18.093  0.00  0.00    +0.000 NA
ATOM     27  H   UNL     1       6.056   3.018  17.455  0.00  0.00    +0.000 HD
ATOM     28  H   UNL     1       6.123   4.540  16.682  0.00  0.00    +0.000 HD
ENDBRANCH  18  21
ENDBRANCH   1  15
TORSDOF 6
ENDMDL
