MODEL 1
REMARK VINA RESULT:      -7.2      0.000      0.000
REMARK  Name = 
REMARK  3 active torsions:
REMARK  status: ('A' for Active; 'I' for Inactive)
REMARK    1  A    between atoms: C_2  and  C_3
REMARK    2  A    between atoms: C_11  and  C_12
REMARK    3  A    between atoms: C_12  and  C_13
REMARK                            x       y       z     vdW  Elec       q    Type
REMARK                         _______ _______ _______ _____ _____    ______ ____
ROOT
ATOM      1  O   UNL     1       4.025   7.182  17.130  0.00  0.00    +0.000 OA
ATOM      2  C   UNL     1       4.420   6.028  16.979  0.00  0.00    +0.000 C 
ATOM      3  N   UNL     1       3.814   4.978  17.698  0.00  0.00    +0.000 N 
ATOM      4  C   UNL     1       4.123   3.558  17.556  0.00  0.00    +0.000 C 
ATOM      5  C   UNL     1       2.870   2.692  17.541  0.00  0.00    +0.000 C 
ATOM      6  C   UNL     1       1.931   2.960  18.723  0.00  0.00    +0.000 C 
ATOM      7  C   UNL     1       1.635   4.471  18.775  0.00  0.00    +0.000 C 
ATOM      8  C   UNL     1       2.902   5.326  18.790  0.00  0.00    +0.000 C 
ENDROOT
BRANCH   2   9
ATOM      9  C   UNL     1       5.499   5.729  16.061  0.00  0.00    +0.000 A 
ATOM     10  C   UNL     1       5.547   5.316  14.742  0.00  0.00    +0.000 A 
ATOM     11  N   UNL     1       6.812   5.151  14.206  0.00  0.00    +0.000 NA
ATOM     12  N   UNL     1       7.752   5.373  15.109  0.00  0.00    +0.000 NA
ATOM     13  S   UNL     1       7.128   5.775  16.610  0.00  0.00    +0.000 S 
ENDBRANCH   2   9
BRANCH   6  14
ATOM     14  C   UNL     1       2.452   2.446  20.080  0.00  0.00    +0.000 C 
BRANCH  14  15
ATOM     15  C   UNL     1       1.677   2.919  21.303  0.00  0.00    +0.000 C 
ATOM     16  F   UNL     1       2.216   4.006  21.886  0.00  0.00    +0.000 F 
ATOM     17  F   UNL     1       0.405   3.224  20.960  0.00  0.00    +0.000 F 
ATOM     18  F   UNL     1       1.622   1.944  22.237  0.00  0.00    +0.000 F 
ENDBRANCH  14  15
ENDBRANCH   6  14
TORSDOF 3
ENDMDL
MODEL 2
REMARK VINA RESULT:      -7.0      4.496      6.655
REMARK  Name = 
REMARK  3 active torsions:
REMARK  status: ('A' for Active; 'I' for Inactive)
REMARK    1  A    between atoms: C_2  and  C_3
REMARK    2  A    between atoms: C_11  and  C_12
REMARK    3  A    between atoms: C_12  and  C_13
REMARK                            x       y       z     vdW  Elec       q    Type
REMARK                         _______ _______ _______ _____ _____    ______ ____
ROOT
ATOM      1  O   UNL     1       3.136   1.906  17.568  0.00  0.00    +0.000 OA
ATOM      2  C   UNL     1       3.409   2.792  18.376  0.00  0.00    +0.000 C 
ATOM      3  N   UNL     1       4.275   3.840  18.004  0.00  0.00    +0.000 N 
ATOM      4  C   UNL     1       4.617   4.995  18.827  0.00  0.00    +0.000 C 
ATOM      5  C   UNL     1       4.616   6.294  18.032  0.00  0.00    +0.000 C 
ATOM      6  C   UNL     1       5.465   6.227  16.757  0.00  0.00    +0.000 C 
ATOM      7  C   UNL     1       5.013   5.003  15.937  0.00  0.00    +0.000 C 
ATOM      8  C   UNL     1       5.020   3.707  16.750  0.00  0.00    +0.000 C 
ENDROOT
BRANCH   2   9
ATOM      9  C   UNL     1       2.845   2.776  19.708  0.00  0.00    +0.000 A 
ATOM     10  C   UNL     1       3.365   2.526  20.965  0.00  0.00    +0.000 A 
ATOM     11  N   UNL     1       2.474   2.628  22.019  0.00  0.00    +0.000 NA
ATOM     12  N   UNL     1       1.252   2.896  21.594  0.00  0.00    +0.000 NA
ATOM     13  S   UNL     1       1.157   3.021  19.927  0.00  0.00    +0.000 S 
ENDBRANCH   2   9
BRANCH   6  14
ATOM     14  C   UNL     1       6.987   6.203  17.004  0.00  0.00    +0.000 C 
BRANCH  14  15
ATOM     15  C   UNL     1       7.575   7.474  17.603  0.00  0.00    +0.000 C 
ATOM     16  F   UNL     1       6.653   8.426  17.838  0.00  0.00    +0.000 F 
ATOM     17  F   UNL     1       8.187   7.195  18.778  0.00  0.00    +0.000 F 
ATOM     18  F   UNL     1       8.504   8.003  16.778  0.00  0.00    +0.000 F 
ENDBRANCH  14  15
ENDBRANCH   6  14
TORSDOF 3
ENDMDL
MODEL 3
REMARK VINA RESULT:      -6.9      0.873      1.400
REMARK  Name = 
REMARK  3 active torsions:
REMARK  status: ('A' for Active; 'I' for Inactive)
REMARK    1  A    between atoms: C_2  and  C_3
REMARK    2  A    between atoms: C_11  and  C_12
REMARK    3  A    between atoms: C_12  and  C_13
REMARK                            x       y       z     vdW  Elec       q    Type
REMARK                         _______ _______ _______ _____ _____    ______ ____
ROOT
ATOM      1  O   UNL     1       3.538   7.261  17.381  0.00  0.00    +0.000 OA
ATOM      2  C   UNL     1       4.202   6.227  17.407  0.00  0.00    +0.000 C 
ATOM      3  N   UNL     1       3.699   5.086  18.064  0.00  0.00    +0.000 N 
ATOM      4  C   UNL     1       4.337   3.774  18.102  0.00  0.00    +0.000 C 
ATOM      5  C   UNL     1       3.343   2.639  17.892  0.00  0.00    +0.000 C 
ATOM      6  C   UNL     1       2.128   2.714  18.825  0.00  0.00    +0.000 C 
ATOM      7  C   UNL     1       1.501   4.115  18.694  0.00  0.00    +0.000 C 
ATOM      8  C   UNL     1       2.512   5.243  18.908  0.00  0.00    +0.000 C 
ENDROOT
BRANCH   2   9
ATOM      9  C   UNL     1       5.497   6.163  16.764  0.00  0.00    +0.000 A 
ATOM     10  C   UNL     1       6.744   6.678  17.069  0.00  0.00    +0.000 A 
ATOM     11  N   UNL     1       7.759   6.371  16.181  0.00  0.00    +0.000 NA
ATOM     12  N   UNL     1       7.307   5.671  15.155  0.00  0.00    +0.000 NA
ATOM     13  S   UNL     1       5.660   5.381  15.241  0.00  0.00    +0.000 S 
ENDBRANCH   2   9
BRANCH   6  14
ATOM     14  C   UNL     1       2.434   2.375  20.298  0.00  0.00    +0.000 C 
BRANCH  14  15
ATOM     15  C   UNL     1       1.501   3.003  21.324  0.00  0.00    +0.000 C 
ATOM     16  F   UNL     1       0.364   3.482  20.785  0.00  0.00    +0.000 F 
ATOM     17  F   UNL     1       1.159   2.091  22.263  0.00  0.00    +0.000 F 
ATOM     18  F   UNL     1       2.112   4.028  21.958  0.00  0.00    +0.000 F 
ENDBRANCH  14  15
ENDBRANCH   6  14
TORSDOF 3
ENDMDL
MODEL 4
REMARK VINA RESULT:      -6.9      4.680      6.646
REMARK  Name = 
REMARK  3 active torsions:
REMARK  status: ('A' for Active; 'I' for Inactive)
REMARK    1  A    between atoms: C_2  and  C_3
REMARK    2  A    between atoms: C_11  and  C_12
REMARK    3  A    between atoms: C_12  and  C_13
REMARK                            x       y       z     vdW  Elec       q    Type
REMARK                         _______ _______ _______ _____ _____    ______ ____
ROOT
ATOM      1  O   UNL     1       5.013   2.455  19.940  0.00  0.00    +0.000 OA
ATOM      2  C   UNL     1       4.293   3.214  19.294  0.00  0.00    +0.000 C 
ATOM      3  N   UNL     1       4.850   4.349  18.670  0.00  0.00    +0.000 N 
ATOM      4  C   UNL     1       4.133   5.284  17.808  0.00  0.00    +0.000 C 
ATOM      5  C   UNL     1       4.940   5.670  16.575  0.00  0.00    +0.000 C 
ATOM      6  C   UNL     1       6.355   6.161  16.904  0.00  0.00    +0.000 C 
ATOM      7  C   UNL     1       7.044   5.100  17.783  0.00  0.00    +0.000 C 
ATOM      8  C   UNL     1       6.222   4.724  19.017  0.00  0.00    +0.000 C 
ENDROOT
BRANCH   2   9
ATOM      9  C   UNL     1       2.876   2.953  19.161  0.00  0.00    +0.000 A 
ATOM     10  C   UNL     1       2.107   2.308  18.209  0.00  0.00    +0.000 A 
ATOM     11  N   UNL     1       0.747   2.260  18.463  0.00  0.00    +0.000 NA
ATOM     12  N   UNL     1       0.439   2.911  19.571  0.00  0.00    +0.000 NA
ATOM     13  S   UNL     1       1.774   3.593  20.316  0.00  0.00    +0.000 S 
ENDBRANCH   2   9
BRANCH   6  14
ATOM     14  C   UNL     1       6.410   7.554  17.562  0.00  0.00    +0.000 C 
BRANCH  14  15
ATOM     15  C   UNL     1       7.797   8.175  17.670  0.00  0.00    +0.000 C 
ATOM     16  F   UNL     1       7.771   9.515  17.789  0.00  0.00    +0.000 F 
ATOM     17  F   UNL     1       8.447   7.679  18.748  0.00  0.00    +0.000 F 
ATOM     18  F   UNL     1       8.537   7.879  16.580  0.00  0.00    +0.000 F 
ENDBRANCH  14  15
ENDBRANCH   6  14
TORSDOF 3
ENDMDL
MODEL 5
REMARK VINA RESULT:      -6.8      1.714      2.149
REMARK  Name = 
REMARK  3 active torsions:
REMARK  status: ('A' for Active; 'I' for Inactive)
REMARK    1  A    between atoms: C_2  and  C_3
REMARK    2  A    between atoms: C_11  and  C_12
REMARK    3  A    between atoms: C_12  and  C_13
REMARK                            x       y       z     vdW  Elec       q    Type
REMARK                         _______ _______ _______ _____ _____    ______ ____
ROOT
ATOM      1  O   UNL     1       4.350   6.279  16.750  0.00  0.00    +0.000 OA
ATOM      2  C   UNL     1       4.651   5.433  17.591  0.00  0.00    +0.000 C 
ATOM      3  N   UNL     1       3.638   4.732  18.275  0.00  0.00    +0.000 N 
ATOM      4  C   UNL     1       3.848   3.649  19.231  0.00  0.00    +0.000 C 
ATOM      5  C   UNL     1       2.871   2.498  19.028  0.00  0.00    +0.000 C 
ATOM      6  C   UNL     1       1.405   2.946  18.981  0.00  0.00    +0.000 C 
ATOM      7  C   UNL     1       1.272   4.062  17.926  0.00  0.00    +0.000 C 
ATOM      8  C   UNL     1       2.259   5.209  18.145  0.00  0.00    +0.000 C 
ENDROOT
BRANCH   2   9
ATOM      9  C   UNL     1       6.038   5.142  17.883  0.00  0.00    +0.000 A 
ATOM     10  C   UNL     1       6.870   5.419  18.953  0.00  0.00    +0.000 A 
ATOM     11  N   UNL     1       8.164   4.941  18.851  0.00  0.00    +0.000 NA
ATOM     12  N   UNL     1       8.370   4.345  17.690  0.00  0.00    +0.000 NA
ATOM     13  S   UNL     1       7.016   4.359  16.705  0.00  0.00    +0.000 S 
ENDBRANCH   2   9
BRANCH   6  14
ATOM     14  C   UNL     1       0.831   3.392  20.340  0.00  0.00    +0.000 C 
BRANCH  14  15
ATOM     15  C   UNL     1       1.491   2.775  21.566  0.00  0.00    +0.000 C 
ATOM     16  F   UNL     1       2.167   1.643  21.292  0.00  0.00    +0.000 F 
ATOM     17  F   UNL     1       2.363   3.651  22.118  0.00  0.00    +0.000 F 
ATOM     18  F   UNL     1       0.568   2.477  22.506  0.00  0.00    +0.000 F 
ENDBRANCH  14  15
ENDBRANCH   6  14
TORSDOF 3
ENDMDL
MODEL 6
REMARK VINA RESULT:      -6.8      4.470      6.502
REMARK  Name = 
REMARK  3 active torsions:
REMARK  status: ('A' for Active; 'I' for Inactive)
REMARK    1  A    between atoms: C_2  and  C_3
REMARK    2  A    between atoms: C_11  and  C_12
REMARK    3  A    between atoms: C_12  and  C_13
REMARK                            x       y       z     vdW  Elec       q    Type
REMARK                         _______ _______ _______ _____ _____    ______ ____
ROOT
ATOM      1  O   UNL     1       2.051   6.967  19.860  0.00  0.00    +0.000 OA
ATOM      2  C   UNL     1       2.535   5.861  19.626  0.00  0.00    +0.000 C 
ATOM      3  N   UNL     1       3.463   5.708  18.576  0.00  0.00    +0.000 N 
ATOM      4  C   UNL     1       4.175   4.479  18.241  0.00  0.00    +0.000 C 
ATOM      5  C   UNL     1       5.644   4.730  17.923  0.00  0.00    +0.000 C 
ATOM      6  C   UNL     1       5.860   5.823  16.870  0.00  0.00    +0.000 C 
ATOM      7  C   UNL     1       5.103   7.087  17.321  0.00  0.00    +0.000 C 
ATOM      8  C   UNL     1       3.631   6.819  17.636  0.00  0.00    +0.000 C 
ENDROOT
BRANCH   2   9
ATOM      9  C   UNL     1       2.169   4.711  20.424  0.00  0.00    +0.000 A 
ATOM     10  C   UNL     1       2.636   4.184  21.615  0.00  0.00    +0.000 A 
ATOM     11  N   UNL     1       1.992   3.045  22.066  0.00  0.00    +0.000 NA
ATOM     12  N   UNL     1       1.067   2.643  21.211  0.00  0.00    +0.000 NA
ATOM     13  S   UNL     1       0.966   3.621  19.856  0.00  0.00    +0.000 S 
ENDBRANCH   2   9
BRANCH   6  14
ATOM     14  C   UNL     1       5.463   5.416  15.437  0.00  0.00    +0.000 C 
BRANCH  14  15
ATOM     15  C   UNL     1       6.357   4.373  14.780  0.00  0.00    +0.000 C 
ATOM     16  F   UNL     1       7.664   4.549  15.047  0.00  0.00    +0.000 F 
ATOM     17  F   UNL     1       6.014   3.133  15.201  0.00  0.00    +0.000 F 
ATOM     18  F   UNL     1       6.210   4.399  13.437  0.00  0.00    +0.000 F 
ENDBRANCH  14  15
ENDBRANCH   6  14
TORSDOF 3
ENDMDL
MODEL 7
REMARK VINA RESULT:      -6.8      1.629      1.892
REMARK  Name = 
REMARK  3 active torsions:
REMARK  status: ('A' for Active; 'I' for Inactive)
REMARK    1  A    between atoms: C_2  and  C_3
REMARK    2  A    between atoms: C_11  and  C_12
REMARK    3  A    between atoms: C_12  and  C_13
REMARK                            x       y       z     vdW  Elec       q    Type
REMARK                         _______ _______ _______ _____ _____    ______ ____
ROOT
ATOM      1  O   UNL     1       4.497   6.693  16.761  0.00  0.00    +0.000 OA
ATOM      2  C   UNL     1       4.751   5.712  17.457  0.00  0.00    +0.000 C 
ATOM      3  N   UNL     1       3.707   5.028  18.114  0.00  0.00    +0.000 N 
ATOM      4  C   UNL     1       3.852   3.806  18.900  0.00  0.00    +0.000 C 
ATOM      5  C   UNL     1       2.744   2.800  18.615  0.00  0.00    +0.000 C 
ATOM      6  C   UNL     1       1.336   3.397  18.735  0.00  0.00    +0.000 C 
ATOM      7  C   UNL     1       1.266   4.657  17.851  0.00  0.00    +0.000 C 
ATOM      8  C   UNL     1       2.385   5.656  18.148  0.00  0.00    +0.000 C 
ENDROOT
BRANCH   2   9
ATOM      9  C   UNL     1       6.112   5.243  17.607  0.00  0.00    +0.000 A 
ATOM     10  C   UNL     1       6.953   4.480  16.818  0.00  0.00    +0.000 A 
ATOM     11  N   UNL     1       8.222   4.259  17.326  0.00  0.00    +0.000 NA
ATOM     12  N   UNL     1       8.360   4.791  18.528  0.00  0.00    +0.000 NA
ATOM     13  S   UNL     1       6.970   5.554  19.064  0.00  0.00    +0.000 S 
ENDBRANCH   2   9
BRANCH   6  14
ATOM     14  C   UNL     1       0.894   3.703  20.180  0.00  0.00    +0.000 C 
BRANCH  14  15
ATOM     15  C   UNL     1       1.473   2.789  21.251  0.00  0.00    +0.000 C 
ATOM     16  F   UNL     1       0.615   2.541  22.258  0.00  0.00    +0.000 F 
ATOM     17  F   UNL     1       1.827   1.601  20.710  0.00  0.00    +0.000 F 
ATOM     18  F   UNL     1       2.585   3.334  21.792  0.00  0.00    +0.000 F 
ENDBRANCH  14  15
ENDBRANCH   6  14
TORSDOF 3
ENDMDL
MODEL 8
REMARK VINA RESULT:      -6.8      4.614      6.584
REMARK  Name = 
REMARK  3 active torsions:
REMARK  status: ('A' for Active; 'I' for Inactive)
REMARK    1  A    between atoms: C_2  and  C_3
REMARK    2  A    between atoms: C_11  and  C_12
REMARK    3  A    between atoms: C_12  and  C_13
REMARK                            x       y       z     vdW  Elec       q    Type
REMARK                         _______ _______ _______ _____ _____    ______ ____
ROOT
ATOM      1  O   UNL     1       2.269   6.997  19.825  0.00  0.00    +0.000 OA
ATOM      2  C   UNL     1       2.689   5.872  19.562  0.00  0.00    +0.000 C 
ATOM      3  N   UNL     1       3.599   5.693  18.499  0.00  0.00    +0.000 N 
ATOM      4  C   UNL     1       4.240   4.435  18.130  0.00  0.00    +0.000 C 
ATOM      5  C   UNL     1       5.718   4.612  17.806  0.00  0.00    +0.000 C 
ATOM      6  C   UNL     1       5.987   5.717  16.776  0.00  0.00    +0.000 C 
ATOM      7  C   UNL     1       5.304   7.009  17.263  0.00  0.00    +0.000 C 
ATOM      8  C   UNL     1       3.821   6.815  17.585  0.00  0.00    +0.000 C 
ENDROOT
BRANCH   2   9
ATOM      9  C   UNL     1       2.266   4.724  20.335  0.00  0.00    +0.000 A 
ATOM     10  C   UNL     1       2.672   4.179  21.540  0.00  0.00    +0.000 A 
ATOM     11  N   UNL     1       1.986   3.052  21.956  0.00  0.00    +0.000 NA
ATOM     12  N   UNL     1       1.088   2.677  21.062  0.00  0.00    +0.000 NA
ATOM     13  S   UNL     1       1.063   3.666  19.711  0.00  0.00    +0.000 S 
ENDBRANCH   2   9
BRANCH   6  14
ATOM     14  C   UNL     1       5.557   5.366  15.338  0.00  0.00    +0.000 C 
BRANCH  14  15
ATOM     15  C   UNL     1       6.542   4.515  14.547  0.00  0.00    +0.000 C 
ATOM     16  F   UNL     1       5.957   3.496  13.892  0.00  0.00    +0.000 F 
ATOM     17  F   UNL     1       7.187   5.277  13.633  0.00  0.00    +0.000 F 
ATOM     18  F   UNL     1       7.478   3.987  15.366  0.00  0.00    +0.000 F 
ENDBRANCH  14  15
ENDBRANCH   6  14
TORSDOF 3
ENDMDL
MODEL 9
REMARK VINA RESULT:      -6.8      4.638      6.695
REMARK  Name = 
REMARK  3 active torsions:
REMARK  status: ('A' for Active; 'I' for Inactive)
REMARK    1  A    between atoms: C_2  and  C_3
REMARK    2  A    between atoms: C_11  and  C_12
REMARK    3  A    between atoms: C_12  and  C_13
REMARK                            x       y       z     vdW  Elec       q    Type
REMARK                         _______ _______ _______ _____ _____    ______ ____
ROOT
ATOM      1  O   UNL     1       5.105   2.559  19.986  0.00  0.00    +0.000 OA
ATOM      2  C   UNL     1       4.349   3.337  19.408  0.00  0.00    +0.000 C 
ATOM      3  N   UNL     1       4.873   4.473  18.758  0.00  0.00    +0.000 N 
ATOM      4  C   UNL     1       4.108   5.431  17.967  0.00  0.00    +0.000 C 
ATOM      5  C   UNL     1       4.824   5.824  16.681  0.00  0.00    +0.000 C 
ATOM      6  C   UNL     1       6.267   6.291  16.908  0.00  0.00    +0.000 C 
ATOM      7  C   UNL     1       7.005   5.208  17.718  0.00  0.00    +0.000 C 
ATOM      8  C   UNL     1       6.274   4.825  19.005  0.00  0.00    +0.000 C 
ENDROOT
BRANCH   2   9
ATOM      9  C   UNL     1       2.922   3.098  19.379  0.00  0.00    +0.000 A 
ATOM     10  C   UNL     1       1.887   3.378  20.252  0.00  0.00    +0.000 A 
ATOM     11  N   UNL     1       0.625   2.986  19.839  0.00  0.00    +0.000 NA
ATOM     12  N   UNL     1       0.672   2.351  18.681  0.00  0.00    +0.000 NA
ATOM     13  S   UNL     1       2.228   2.210  18.080  0.00  0.00    +0.000 S 
ENDBRANCH   2   9
BRANCH   6  14
ATOM     14  C   UNL     1       6.392   7.673  17.579  0.00  0.00    +0.000 C 
BRANCH  14  15
ATOM     15  C   UNL     1       7.804   8.238  17.660  0.00  0.00    +0.000 C 
ATOM     16  F   UNL     1       8.570   7.907  16.603  0.00  0.00    +0.000 F 
ATOM     17  F   UNL     1       7.763   9.589  17.731  0.00  0.00    +0.000 F 
ATOM     18  F   UNL     1       8.432   7.794  18.770  0.00  0.00    +0.000 F 
ENDBRANCH  14  15
ENDBRANCH   6  14
TORSDOF 3
ENDMDL
