MODEL 1
REMARK VINA RESULT:      -7.9      0.000      0.000
REMARK  Name = 
REMARK  8 active torsions:
REMARK  status: ('A' for Active; 'I' for Inactive)
REMARK    1  A    between atoms: C_2  and  C_25
REMARK    2  A    between atoms: N_3  and  C_4
REMARK    3  A    between atoms: C_7  and  C_8
REMARK    4  A    between atoms: C_8  and  C_9
REMARK    5  A    between atoms: C_9  and  N_10
REMARK    6  A    between atoms: C_12  and  C_13
REMARK    7  A    between atoms: C_22  and  C_23
REMARK    8  A    between atoms: C_23  and  O_24
REMARK                            x       y       z     vdW  Elec       q    Type
REMARK                         _______ _______ _______ _____ _____    ______ ____
ROOT
ATOM      1  C   UNL     1       1.229   8.415  19.817  0.00  0.00    +0.000 C 
ATOM      2  C   UNL     1       1.650   7.512  20.981  0.00  0.00    +0.000 C 
ATOM      3  C   UNL     1       1.984   6.109  20.478  0.00  0.00    +0.000 C 
ATOM      4  C   UNL     1       3.012   6.158  19.343  0.00  0.00    +0.000 C 
ATOM      5  O   UNL     1       2.548   7.009  18.290  0.00  0.00    +0.000 OA
ATOM      6  C   UNL     1       2.314   8.371  18.716  0.00  0.00    +0.000 C 
ENDROOT
BRANCH   1   9
ATOM      7  O   UNL     1      -1.130   9.849  19.335  0.00  0.00    +0.000 OA
ATOM      8  C   UNL     1      -0.244  10.392  19.984  0.00  0.00    +0.000 C 
ATOM      9  N   UNL     1       0.948   9.766  20.297  0.00  0.00    +0.000 N 
ATOM     10  H   UNL     1       1.630  10.231  20.882  0.00  0.00    +0.000 HD
BRANCH   8  11
ATOM     11  C   UNL     1      -0.442  11.778  20.474  0.00  0.00    +0.000 A 
ATOM     12  C   UNL     1      -0.564  12.788  19.519  0.00  0.00    +0.000 A 
ATOM     13  C   UNL     1      -0.731  14.086  19.959  0.00  0.00    +0.000 A 
ATOM     14  N   UNL     1      -0.775  14.428  21.265  0.00  0.00    +0.000 NA
ATOM     15  C   UNL     1      -0.629  13.435  22.166  0.00  0.00    +0.000 A 
ATOM     16  C   UNL     1      -0.460  12.103  21.831  0.00  0.00    +0.000 A 
ENDBRANCH   8  11
ENDBRANCH   1   9
BRANCH   4  17
ATOM     17  C   UNL     1       3.236   4.761  18.754  0.00  0.00    +0.000 C 
BRANCH  17  18
ATOM     18  C   UNL     1       4.615   4.209  19.115  0.00  0.00    +0.000 C 
BRANCH  18  19
ATOM     19  N   UNL     1       5.550   4.311  18.015  0.00  0.00    +0.000 N 
ATOM     20  C   UNL     1       5.285   4.233  16.683  0.00  0.00    +0.000 A 
ATOM     21  C   UNL     1       6.510   4.447  16.087  0.00  0.00    +0.000 A 
ATOM     22  N   UNL     1       7.456   4.629  17.067  0.00  0.00    +0.000 NA
ATOM     23  N   UNL     1       6.854   4.542  18.247  0.00  0.00    +0.000 NA
BRANCH  21  24
ATOM     24  C   UNL     1       6.773   4.489  14.660  0.00  0.00    +0.000 A 
ATOM     25  C   UNL     1       6.062   3.675  13.782  0.00  0.00    +0.000 A 
ATOM     26  C   UNL     1       6.360   3.729  12.421  0.00  0.00    +0.000 A 
ATOM     27  C   UNL     1       7.354   4.594  11.977  0.00  0.00    +0.000 A 
ATOM     28  C   UNL     1       8.010   5.373  12.914  0.00  0.00    +0.000 A 
ATOM     29  N   UNL     1       7.744   5.344  14.239  0.00  0.00    +0.000 NA
ENDBRANCH  21  24
ENDBRANCH  18  19
ENDBRANCH  17  18
ENDBRANCH   4  17
BRANCH   6  30
ATOM     30  C   UNL     1       1.928   9.161  17.459  0.00  0.00    +0.000 C 
BRANCH  30  31
ATOM     31  O   UNL     1       2.242  10.546  17.654  0.00  0.00    +0.000 OA
ATOM     32  H   UNL     1       2.169  10.686  18.615  0.00  0.00    +0.000 HD
ENDBRANCH  30  31
ENDBRANCH   6  30
TORSDOF 8
ENDMDL
MODEL 2
REMARK VINA RESULT:      -7.5      1.064      1.352
REMARK  Name = 
REMARK  8 active torsions:
REMARK  status: ('A' for Active; 'I' for Inactive)
REMARK    1  A    between atoms: C_2  and  C_25
REMARK    2  A    between atoms: N_3  and  C_4
REMARK    3  A    between atoms: C_7  and  C_8
REMARK    4  A    between atoms: C_8  and  C_9
REMARK    5  A    between atoms: C_9  and  N_10
REMARK    6  A    between atoms: C_12  and  C_13
REMARK    7  A    between atoms: C_22  and  C_23
REMARK    8  A    between atoms: C_23  and  O_24
REMARK                            x       y       z     vdW  Elec       q    Type
REMARK                         _______ _______ _______ _____ _____    ______ ____
ROOT
ATOM      1  C   UNL     1       1.306   7.922  19.934  0.00  0.00    +0.000 C 
ATOM      2  C   UNL     1       1.599   6.955  21.086  0.00  0.00    +0.000 C 
ATOM      3  C   UNL     1       1.906   5.559  20.551  0.00  0.00    +0.000 C 
ATOM      4  C   UNL     1       3.017   5.602  19.495  0.00  0.00    +0.000 C 
ATOM      5  O   UNL     1       2.669   6.514  18.448  0.00  0.00    +0.000 OA
ATOM      6  C   UNL     1       2.466   7.869  18.913  0.00  0.00    +0.000 C 
ENDROOT
BRANCH   1   9
ATOM      7  O   UNL     1      -0.747   8.613  21.711  0.00  0.00    +0.000 OA
ATOM      8  C   UNL     1      -0.006   9.501  21.309  0.00  0.00    +0.000 C 
ATOM      9  N   UNL     1       1.051   9.265  20.450  0.00  0.00    +0.000 N 
ATOM     10  H   UNL     1       1.672  10.018  20.186  0.00  0.00    +0.000 HD
BRANCH   8  11
ATOM     11  C   UNL     1      -0.227  10.897  21.760  0.00  0.00    +0.000 A 
ATOM     12  C   UNL     1      -1.128  11.102  22.806  0.00  0.00    +0.000 A 
ATOM     13  C   UNL     1      -1.358  12.397  23.224  0.00  0.00    +0.000 A 
ATOM     14  N   UNL     1      -0.762  13.475  22.669  0.00  0.00    +0.000 NA
ATOM     15  C   UNL     1       0.085  13.250  21.643  0.00  0.00    +0.000 A 
ATOM     16  C   UNL     1       0.386  11.993  21.150  0.00  0.00    +0.000 A 
ENDBRANCH   8  11
ENDBRANCH   1   9
BRANCH   4  17
ATOM     17  C   UNL     1       3.221   4.221  18.866  0.00  0.00    +0.000 C 
BRANCH  17  18
ATOM     18  C   UNL     1       4.680   3.774  18.942  0.00  0.00    +0.000 C 
BRANCH  18  19
ATOM     19  N   UNL     1       5.461   4.262  17.824  0.00  0.00    +0.000 N 
ATOM     20  C   UNL     1       5.462   3.804  16.543  0.00  0.00    +0.000 A 
ATOM     21  C   UNL     1       6.333   4.649  15.889  0.00  0.00    +0.000 A 
ATOM     22  N   UNL     1       6.828   5.562  16.789  0.00  0.00    +0.000 NA
ATOM     23  N   UNL     1       6.285   5.313  17.975  0.00  0.00    +0.000 NA
BRANCH  21  24
ATOM     24  C   UNL     1       6.675   4.604  14.478  0.00  0.00    +0.000 A 
ATOM     25  C   UNL     1       6.011   3.736  13.615  0.00  0.00    +0.000 A 
ATOM     26  C   UNL     1       6.384   3.708  12.272  0.00  0.00    +0.000 A 
ATOM     27  C   UNL     1       7.403   4.544  11.831  0.00  0.00    +0.000 A 
ATOM     28  C   UNL     1       8.008   5.380  12.753  0.00  0.00    +0.000 A 
ATOM     29  N   UNL     1       7.670   5.431  14.060  0.00  0.00    +0.000 NA
ENDBRANCH  21  24
ENDBRANCH  18  19
ENDBRANCH  17  18
ENDBRANCH   4  17
BRANCH   6  30
ATOM     30  C   UNL     1       2.209   8.724  17.666  0.00  0.00    +0.000 C 
BRANCH  30  31
ATOM     31  O   UNL     1       0.849   9.174  17.672  0.00  0.00    +0.000 OA
ATOM     32  H   UNL     1       0.594   9.214  16.732  0.00  0.00    +0.000 HD
ENDBRANCH  30  31
ENDBRANCH   6  30
TORSDOF 8
ENDMDL
MODEL 3
REMARK VINA RESULT:      -7.3      1.537      2.049
REMARK  Name = 
REMARK  8 active torsions:
REMARK  status: ('A' for Active; 'I' for Inactive)
REMARK    1  A    between atoms: C_2  and  C_25
REMARK    2  A    between atoms: N_3  and  C_4
REMARK    3  A    between atoms: C_7  and  C_8
REMARK    4  A    between atoms: C_8  and  C_9
REMARK    5  A    between atoms: C_9  and  N_10
REMARK    6  A    between atoms: C_12  and  C_13
REMARK    7  A    between atoms: C_22  and  C_23
REMARK    8  A    between atoms: C_23  and  O_24
REMARK                            x       y       z     vdW  Elec       q    Type
REMARK                         _______ _______ _______ _____ _____    ______ ____
ROOT
ATOM      1  C   UNL     1       1.557   9.094  19.497  0.00  0.00    +0.000 C 
ATOM      2  C   UNL     1       1.897   8.736  18.047  0.00  0.00    +0.000 C 
ATOM      3  C   UNL     1       2.914   7.598  17.998  0.00  0.00    +0.000 C 
ATOM      4  C   UNL     1       2.441   6.398  18.826  0.00  0.00    +0.000 C 
ATOM      5  O   UNL     1       2.154   6.804  20.168  0.00  0.00    +0.000 OA
ATOM      6  C   UNL     1       1.123   7.816  20.252  0.00  0.00    +0.000 C 
ENDROOT
BRANCH   1   9
ATOM      7  O   UNL     1       1.717  11.413  21.061  0.00  0.00    +0.000 OA
ATOM      8  C   UNL     1       0.724  11.252  20.363  0.00  0.00    +0.000 C 
ATOM      9  N   UNL     1       0.556  10.157  19.537  0.00  0.00    +0.000 N 
ATOM     10  H   UNL     1      -0.255  10.091  18.936  0.00  0.00    +0.000 HD
BRANCH   8  11
ATOM     11  C   UNL     1      -0.353  12.272  20.380  0.00  0.00    +0.000 A 
ATOM     12  C   UNL     1      -1.665  11.828  20.204  0.00  0.00    +0.000 A 
ATOM     13  C   UNL     1      -2.677  12.767  20.200  0.00  0.00    +0.000 A 
ATOM     14  N   UNL     1      -2.461  14.092  20.350  0.00  0.00    +0.000 NA
ATOM     15  C   UNL     1      -1.182  14.496  20.493  0.00  0.00    +0.000 A 
ATOM     16  C   UNL     1      -0.097  13.637  20.514  0.00  0.00    +0.000 A 
ENDBRANCH   8  11
ENDBRANCH   1   9
BRANCH   4  17
ATOM     17  C   UNL     1       3.527   5.318  18.885  0.00  0.00    +0.000 C 
BRANCH  17  18
ATOM     18  C   UNL     1       4.916   5.923  19.078  0.00  0.00    +0.000 C 
BRANCH  18  19
ATOM     19  N   UNL     1       5.733   5.810  17.888  0.00  0.00    +0.000 N 
ATOM     20  C   UNL     1       5.452   5.131  16.744  0.00  0.00    +0.000 A 
ATOM     21  C   UNL     1       6.529   5.397  15.926  0.00  0.00    +0.000 A 
ATOM     22  N   UNL     1       7.414   6.203  16.602  0.00  0.00    +0.000 NA
ATOM     23  N   UNL     1       6.914   6.448  17.807  0.00  0.00    +0.000 NA
BRANCH  21  24
ATOM     24  C   UNL     1       6.711   4.923  14.565  0.00  0.00    +0.000 A 
ATOM     25  C   UNL     1       5.910   3.905  14.055  0.00  0.00    +0.000 A 
ATOM     26  C   UNL     1       6.131   3.463  12.752  0.00  0.00    +0.000 A 
ATOM     27  C   UNL     1       7.141   4.049  11.997  0.00  0.00    +0.000 A 
ATOM     28  C   UNL     1       7.889   5.059  12.577  0.00  0.00    +0.000 A 
ATOM     29  N   UNL     1       7.699   5.509  13.837  0.00  0.00    +0.000 NA
ENDBRANCH  21  24
ENDBRANCH  18  19
ENDBRANCH  17  18
ENDBRANCH   4  17
BRANCH   6  30
ATOM     30  C   UNL     1       0.868   8.056  21.745  0.00  0.00    +0.000 C 
BRANCH  30  31
ATOM     31  O   UNL     1       1.936   8.842  22.288  0.00  0.00    +0.000 OA
ATOM     32  H   UNL     1       1.715   9.761  22.053  0.00  0.00    +0.000 HD
ENDBRANCH  30  31
ENDBRANCH   6  30
TORSDOF 8
ENDMDL
MODEL 4
REMARK VINA RESULT:      -7.1      6.493      9.346
REMARK  Name = 
REMARK  8 active torsions:
REMARK  status: ('A' for Active; 'I' for Inactive)
REMARK    1  A    between atoms: C_2  and  C_25
REMARK    2  A    between atoms: N_3  and  C_4
REMARK    3  A    between atoms: C_7  and  C_8
REMARK    4  A    between atoms: C_8  and  C_9
REMARK    5  A    between atoms: C_9  and  N_10
REMARK    6  A    between atoms: C_12  and  C_13
REMARK    7  A    between atoms: C_22  and  C_23
REMARK    8  A    between atoms: C_23  and  O_24
REMARK                            x       y       z     vdW  Elec       q    Type
REMARK                         _______ _______ _______ _____ _____    ______ ____
ROOT
ATOM      1  C   UNL     1       6.376   5.535  17.709  0.00  0.00    +0.000 C 
ATOM      2  C   UNL     1       7.138   5.873  18.995  0.00  0.00    +0.000 C 
ATOM      3  C   UNL     1       8.200   6.936  18.727  0.00  0.00    +0.000 C 
ATOM      4  C   UNL     1       7.593   8.164  18.039  0.00  0.00    +0.000 C 
ATOM      5  O   UNL     1       6.910   7.774  16.843  0.00  0.00    +0.000 OA
ATOM      6  C   UNL     1       5.832   6.838  17.079  0.00  0.00    +0.000 C 
ENDROOT
BRANCH   1   9
ATOM      7  O   UNL     1       4.120   5.955  19.316  0.00  0.00    +0.000 OA
ATOM      8  C   UNL     1       4.271   4.851  18.807  0.00  0.00    +0.000 C 
ATOM      9  N   UNL     1       5.335   4.546  17.980  0.00  0.00    +0.000 N 
ATOM     10  H   UNL     1       5.393   3.639  17.536  0.00  0.00    +0.000 HD
BRANCH   8  11
ATOM     11  C   UNL     1       3.274   3.784  19.067  0.00  0.00    +0.000 A 
ATOM     12  C   UNL     1       2.811   3.053  17.972  0.00  0.00    +0.000 A 
ATOM     13  C   UNL     1       1.870   2.068  18.196  0.00  0.00    +0.000 A 
ATOM     14  N   UNL     1       1.369   1.782  19.418  0.00  0.00    +0.000 NA
ATOM     15  C   UNL     1       1.816   2.521  20.454  0.00  0.00    +0.000 A 
ATOM     16  C   UNL     1       2.759   3.527  20.338  0.00  0.00    +0.000 A 
ENDBRANCH   8  11
ENDBRANCH   1   9
BRANCH   4  17
ATOM     17  C   UNL     1       8.687   9.164  17.650  0.00  0.00    +0.000 C 
BRANCH  17  18
ATOM     18  C   UNL     1       9.008  10.124  18.794  0.00  0.00    +0.000 C 
BRANCH  18  19
ATOM     19  N   UNL     1       9.578  11.368  18.321  0.00  0.00    +0.000 N 
ATOM     20  C   UNL     1       9.092  12.628  18.488  0.00  0.00    +0.000 A 
ATOM     21  C   UNL     1      10.040  13.433  17.895  0.00  0.00    +0.000 A 
ATOM     22  N   UNL     1      11.041  12.640  17.386  0.00  0.00    +0.000 NA
ATOM     23  N   UNL     1      10.745  11.374  17.653  0.00  0.00    +0.000 NA
BRANCH  21  24
ATOM     24  C   UNL     1      10.009  14.883  17.820  0.00  0.00    +0.000 A 
ATOM     25  C   UNL     1       8.960  15.601  18.387  0.00  0.00    +0.000 A 
ATOM     26  C   UNL     1       8.956  16.990  18.274  0.00  0.00    +0.000 A 
ATOM     27  C   UNL     1       9.998  17.621  17.604  0.00  0.00    +0.000 A 
ATOM     28  C   UNL     1      11.006  16.834  17.074  0.00  0.00    +0.000 A 
ATOM     29  N   UNL     1      11.038  15.486  17.167  0.00  0.00    +0.000 NA
ENDBRANCH  21  24
ENDBRANCH  18  19
ENDBRANCH  17  18
ENDBRANCH   4  17
BRANCH   6  30
ATOM     30  C   UNL     1       5.148   6.611  15.725  0.00  0.00    +0.000 C 
BRANCH  30  31
ATOM     31  O   UNL     1       5.923   5.689  14.950  0.00  0.00    +0.000 OA
ATOM     32  H   UNL     1       6.511   5.253  15.594  0.00  0.00    +0.000 HD
ENDBRANCH  30  31
ENDBRANCH   6  30
TORSDOF 8
ENDMDL
MODEL 5
REMARK VINA RESULT:      -7.0      1.595      2.120
REMARK  Name = 
REMARK  8 active torsions:
REMARK  status: ('A' for Active; 'I' for Inactive)
REMARK    1  A    between atoms: C_2  and  C_25
REMARK    2  A    between atoms: N_3  and  C_4
REMARK    3  A    between atoms: C_7  and  C_8
REMARK    4  A    between atoms: C_8  and  C_9
REMARK    5  A    between atoms: C_9  and  N_10
REMARK    6  A    between atoms: C_12  and  C_13
REMARK    7  A    between atoms: C_22  and  C_23
REMARK    8  A    between atoms: C_23  and  O_24
REMARK                            x       y       z     vdW  Elec       q    Type
REMARK                         _______ _______ _______ _____ _____    ______ ____
ROOT
ATOM      1  C   UNL     1       1.257   9.669  19.708  0.00  0.00    +0.000 C 
ATOM      2  C   UNL     1       1.365   9.406  18.202  0.00  0.00    +0.000 C 
ATOM      3  C   UNL     1       2.397   8.317  17.919  0.00  0.00    +0.000 C 
ATOM      4  C   UNL     1       2.108   7.054  18.737  0.00  0.00    +0.000 C 
ATOM      5  O   UNL     1       2.033   7.373  20.130  0.00  0.00    +0.000 OA
ATOM      6  C   UNL     1       0.996   8.333  20.443  0.00  0.00    +0.000 C 
ENDROOT
BRANCH   1   9
ATOM      7  O   UNL     1       1.690  12.074  21.077  0.00  0.00    +0.000 OA
ATOM      8  C   UNL     1       0.557  11.829  20.681  0.00  0.00    +0.000 C 
ATOM      9  N   UNL     1       0.240  10.683  19.976  0.00  0.00    +0.000 N 
ATOM     10  H   UNL     1      -0.696  10.546  19.619  0.00  0.00    +0.000 HD
BRANCH   8  11
ATOM     11  C   UNL     1      -0.535  12.795  20.949  0.00  0.00    +0.000 A 
ATOM     12  C   UNL     1      -0.611  13.926  20.134  0.00  0.00    +0.000 A 
ATOM     13  C   UNL     1      -1.612  14.844  20.383  0.00  0.00    +0.000 A 
ATOM     14  N   UNL     1      -2.515  14.707  21.379  0.00  0.00    +0.000 NA
ATOM     15  C   UNL     1      -2.403  13.618  22.166  0.00  0.00    +0.000 A 
ATOM     16  C   UNL     1      -1.440  12.638  22.000  0.00  0.00    +0.000 A 
ENDBRANCH   8  11
ENDBRANCH   1   9
BRANCH   4  17
ATOM     17  C   UNL     1       3.224   6.021  18.552  0.00  0.00    +0.000 C 
BRANCH  17  18
ATOM     18  C   UNL     1       4.609   6.656  18.671  0.00  0.00    +0.000 C 
BRANCH  18  19
ATOM     19  N   UNL     1       5.507   6.209  17.628  0.00  0.00    +0.000 N 
ATOM     20  C   UNL     1       5.184   5.690  16.413  0.00  0.00    +0.000 A 
ATOM     21  C   UNL     1       6.403   5.488  15.802  0.00  0.00    +0.000 A 
ATOM     22  N   UNL     1       7.402   5.875  16.663  0.00  0.00    +0.000 NA
ATOM     23  N   UNL     1       6.839   6.315  17.782  0.00  0.00    +0.000 NA
BRANCH  21  24
ATOM     24  C   UNL     1       6.616   4.966  14.464  0.00  0.00    +0.000 A 
ATOM     25  C   UNL     1       5.817   3.941  13.966  0.00  0.00    +0.000 A 
ATOM     26  C   UNL     1       6.068   3.452  12.685  0.00  0.00    +0.000 A 
ATOM     27  C   UNL     1       7.105   4.001  11.939  0.00  0.00    +0.000 A 
ATOM     28  C   UNL     1       7.850   5.021  12.506  0.00  0.00    +0.000 A 
ATOM     29  N   UNL     1       7.631   5.516  13.744  0.00  0.00    +0.000 NA
ENDBRANCH  21  24
ENDBRANCH  18  19
ENDBRANCH  17  18
ENDBRANCH   4  17
BRANCH   6  30
ATOM     30  C   UNL     1       0.983   8.479  21.969  0.00  0.00    +0.000 C 
BRANCH  30  31
ATOM     31  O   UNL     1       2.055   9.340  22.372  0.00  0.00    +0.000 OA
ATOM     32  H   UNL     1       2.639   8.778  22.913  0.00  0.00    +0.000 HD
ENDBRANCH  30  31
ENDBRANCH   6  30
TORSDOF 8
ENDMDL
MODEL 6
REMARK VINA RESULT:      -7.0      6.483      9.349
REMARK  Name = 
REMARK  8 active torsions:
REMARK  status: ('A' for Active; 'I' for Inactive)
REMARK    1  A    between atoms: C_2  and  C_25
REMARK    2  A    between atoms: N_3  and  C_4
REMARK    3  A    between atoms: C_7  and  C_8
REMARK    4  A    between atoms: C_8  and  C_9
REMARK    5  A    between atoms: C_9  and  N_10
REMARK    6  A    between atoms: C_12  and  C_13
REMARK    7  A    between atoms: C_22  and  C_23
REMARK    8  A    between atoms: C_23  and  O_24
REMARK                            x       y       z     vdW  Elec       q    Type
REMARK                         _______ _______ _______ _____ _____    ______ ____
ROOT
ATOM      1  C   UNL     1       6.359   5.504  17.557  0.00  0.00    +0.000 C 
ATOM      2  C   UNL     1       7.034   5.828  18.894  0.00  0.00    +0.000 C 
ATOM      3  C   UNL     1       8.129   6.876  18.704  0.00  0.00    +0.000 C 
ATOM      4  C   UNL     1       7.590   8.114  17.979  0.00  0.00    +0.000 C 
ATOM      5  O   UNL     1       6.986   7.737  16.737  0.00  0.00    +0.000 OA
ATOM      6  C   UNL     1       5.881   6.817  16.894  0.00  0.00    +0.000 C 
ENDROOT
BRANCH   1   9
ATOM      7  O   UNL     1       3.895   6.030  18.781  0.00  0.00    +0.000 OA
ATOM      8  C   UNL     1       4.116   4.891  18.388  0.00  0.00    +0.000 C 
ATOM      9  N   UNL     1       5.288   4.530  17.752  0.00  0.00    +0.000 N 
ATOM     10  H   UNL     1       5.407   3.592  17.394  0.00  0.00    +0.000 HD
BRANCH   8  11
ATOM     11  C   UNL     1       3.088   3.839  18.585  0.00  0.00    +0.000 A 
ATOM     12  C   UNL     1       1.750   4.211  18.451  0.00  0.00    +0.000 A 
ATOM     13  C   UNL     1       0.782   3.247  18.649  0.00  0.00    +0.000 A 
ATOM     14  N   UNL     1       1.063   1.966  18.973  0.00  0.00    +0.000 NA
ATOM     15  C   UNL     1       2.364   1.640  19.121  0.00  0.00    +0.000 A 
ATOM     16  C   UNL     1       3.410   2.528  18.942  0.00  0.00    +0.000 A 
ENDBRANCH   8  11
ENDBRANCH   1   9
BRANCH   4  17
ATOM     17  C   UNL     1       8.723   9.097  17.670  0.00  0.00    +0.000 C 
BRANCH  17  18
ATOM     18  C   UNL     1       8.906  10.120  18.791  0.00  0.00    +0.000 C 
BRANCH  18  19
ATOM     19  N   UNL     1       9.486  11.357  18.313  0.00  0.00    +0.000 N 
ATOM     20  C   UNL     1       9.019  12.622  18.491  0.00  0.00    +0.000 A 
ATOM     21  C   UNL     1       9.969  13.417  17.887  0.00  0.00    +0.000 A 
ATOM     22  N   UNL     1      10.953  12.613  17.363  0.00  0.00    +0.000 NA
ATOM     23  N   UNL     1      10.644  11.350  17.630  0.00  0.00    +0.000 NA
BRANCH  21  24
ATOM     24  C   UNL     1       9.956  14.867  17.817  0.00  0.00    +0.000 A 
ATOM     25  C   UNL     1      11.085  15.568  17.401  0.00  0.00    +0.000 A 
ATOM     26  C   UNL     1      11.039  16.961  17.369  0.00  0.00    +0.000 A 
ATOM     27  C   UNL     1       9.871  17.612  17.750  0.00  0.00    +0.000 A 
ATOM     28  C   UNL     1       8.792  16.840  18.146  0.00  0.00    +0.000 A 
ATOM     29  N   UNL     1       8.805  15.490  18.187  0.00  0.00    +0.000 NA
ENDBRANCH  21  24
ENDBRANCH  18  19
ENDBRANCH  17  18
ENDBRANCH   4  17
BRANCH   6  30
ATOM     30  C   UNL     1       5.289   6.603  15.496  0.00  0.00    +0.000 C 
BRANCH  30  31
ATOM     31  O   UNL     1       6.024   5.574  14.822  0.00  0.00    +0.000 OA
ATOM     32  H   UNL     1       5.417   5.238  14.139  0.00  0.00    +0.000 HD
ENDBRANCH  30  31
ENDBRANCH   6  30
TORSDOF 8
ENDMDL
MODEL 7
REMARK VINA RESULT:      -7.0      4.679      8.194
REMARK  Name = 
REMARK  8 active torsions:
REMARK  status: ('A' for Active; 'I' for Inactive)
REMARK    1  A    between atoms: C_2  and  C_25
REMARK    2  A    between atoms: N_3  and  C_4
REMARK    3  A    between atoms: C_7  and  C_8
REMARK    4  A    between atoms: C_8  and  C_9
REMARK    5  A    between atoms: C_9  and  N_10
REMARK    6  A    between atoms: C_12  and  C_13
REMARK    7  A    between atoms: C_22  and  C_23
REMARK    8  A    between atoms: C_23  and  O_24
REMARK                            x       y       z     vdW  Elec       q    Type
REMARK                         _______ _______ _______ _____ _____    ______ ____
ROOT
ATOM      1  C   UNL     1       7.842   6.893  18.109  0.00  0.00    +0.000 C 
ATOM      2  C   UNL     1       6.624   7.394  17.326  0.00  0.00    +0.000 C 
ATOM      3  C   UNL     1       5.861   6.223  16.712  0.00  0.00    +0.000 C 
ATOM      4  C   UNL     1       5.512   5.173  17.772  0.00  0.00    +0.000 C 
ATOM      5  O   UNL     1       6.697   4.744  18.452  0.00  0.00    +0.000 OA
ATOM      6  C   UNL     1       7.391   5.819  19.126  0.00  0.00    +0.000 C 
ENDROOT
BRANCH   1   9
ATOM      7  O   UNL     1       7.761   9.547  17.216  0.00  0.00    +0.000 OA
ATOM      8  C   UNL     1       8.454   9.285  18.191  0.00  0.00    +0.000 C 
ATOM      9  N   UNL     1       8.547   8.014  18.726  0.00  0.00    +0.000 N 
ATOM     10  H   UNL     1       9.088   7.852  19.565  0.00  0.00    +0.000 HD
BRANCH   8  11
ATOM     11  C   UNL     1       9.229  10.366  18.848  0.00  0.00    +0.000 A 
ATOM     12  C   UNL     1      10.022  11.178  18.035  0.00  0.00    +0.000 A 
ATOM     13  C   UNL     1      10.762  12.176  18.634  0.00  0.00    +0.000 A 
ATOM     14  N   UNL     1      10.765  12.403  19.965  0.00  0.00    +0.000 NA
ATOM     15  C   UNL     1      10.010  11.588  20.730  0.00  0.00    +0.000 A 
ATOM     16  C   UNL     1       9.230  10.560  20.230  0.00  0.00    +0.000 A 
ENDBRANCH   8  11
ENDBRANCH   1   9
BRANCH   4  17
ATOM     17  C   UNL     1       4.871   3.941  17.125  0.00  0.00    +0.000 C 
BRANCH  17  18
ATOM     18  C   UNL     1       3.381   3.842  17.450  0.00  0.00    +0.000 C 
BRANCH  18  19
ATOM     19  N   UNL     1       2.971   4.818  18.439  0.00  0.00    +0.000 N 
ATOM     20  C   UNL     1       2.550   6.094  18.229  0.00  0.00    +0.000 A 
ATOM     21  C   UNL     1       2.237   6.553  19.490  0.00  0.00    +0.000 A 
ATOM     22  N   UNL     1       2.490   5.556  20.402  0.00  0.00    +0.000 NA
ATOM     23  N   UNL     1       2.941   4.496  19.744  0.00  0.00    +0.000 NA
BRANCH  21  24
ATOM     24  C   UNL     1       1.713   7.867  19.819  0.00  0.00    +0.000 A 
ATOM     25  C   UNL     1       1.602   8.852  18.842  0.00  0.00    +0.000 A 
ATOM     26  C   UNL     1       1.115  10.107  19.203  0.00  0.00    +0.000 A 
ATOM     27  C   UNL     1       0.751  10.341  20.524  0.00  0.00    +0.000 A 
ATOM     28  C   UNL     1       0.887   9.306  21.433  0.00  0.00    +0.000 A 
ATOM     29  N   UNL     1       1.355   8.079  21.114  0.00  0.00    +0.000 NA
ENDBRANCH  21  24
ENDBRANCH  18  19
ENDBRANCH  17  18
ENDBRANCH   4  17
BRANCH   6  30
ATOM     30  C   UNL     1       8.561   5.177  19.881  0.00  0.00    +0.000 C 
BRANCH  30  31
ATOM     31  O   UNL     1       8.286   5.197  21.288  0.00  0.00    +0.000 OA
ATOM     32  H   UNL     1       8.502   4.300  21.598  0.00  0.00    +0.000 HD
ENDBRANCH  30  31
ENDBRANCH   6  30
TORSDOF 8
ENDMDL
MODEL 8
REMARK VINA RESULT:      -7.0      2.275     10.343
REMARK  Name = 
REMARK  8 active torsions:
REMARK  status: ('A' for Active; 'I' for Inactive)
REMARK    1  A    between atoms: C_2  and  C_25
REMARK    2  A    between atoms: N_3  and  C_4
REMARK    3  A    between atoms: C_7  and  C_8
REMARK    4  A    between atoms: C_8  and  C_9
REMARK    5  A    between atoms: C_9  and  N_10
REMARK    6  A    between atoms: C_12  and  C_13
REMARK    7  A    between atoms: C_22  and  C_23
REMARK    8  A    between atoms: C_23  and  O_24
REMARK                            x       y       z     vdW  Elec       q    Type
REMARK                         _______ _______ _______ _____ _____    ______ ____
ROOT
ATOM      1  C   UNL     1       2.426   7.583  18.345  0.00  0.00    +0.000 C 
ATOM      2  C   UNL     1       2.210   8.964  17.718  0.00  0.00    +0.000 C 
ATOM      3  C   UNL     1       0.881   9.560  18.177  0.00  0.00    +0.000 C 
ATOM      4  C   UNL     1       0.774   9.562  19.706  0.00  0.00    +0.000 C 
ATOM      5  O   UNL     1       0.974   8.241  20.218  0.00  0.00    +0.000 OA
ATOM      6  C   UNL     1       2.267   7.686  19.880  0.00  0.00    +0.000 C 
ENDROOT
BRANCH   1   9
ATOM      7  O   UNL     1       2.860   4.965  17.444  0.00  0.00    +0.000 OA
ATOM      8  C   UNL     1       3.823   5.718  17.524  0.00  0.00    +0.000 C 
ATOM      9  N   UNL     1       3.716   7.034  17.933  0.00  0.00    +0.000 N 
ATOM     10  H   UNL     1       4.528   7.637  17.932  0.00  0.00    +0.000 HD
BRANCH   8  11
ATOM     11  C   UNL     1       5.172   5.220  17.159  0.00  0.00    +0.000 A 
ATOM     12  C   UNL     1       6.141   5.188  18.162  0.00  0.00    +0.000 A 
ATOM     13  C   UNL     1       7.406   4.743  17.834  0.00  0.00    +0.000 A 
ATOM     14  N   UNL     1       7.755   4.345  16.591  0.00  0.00    +0.000 NA
ATOM     15  C   UNL     1       6.805   4.410  15.635  0.00  0.00    +0.000 A 
ATOM     16  C   UNL     1       5.508   4.836  15.860  0.00  0.00    +0.000 A 
ENDBRANCH   8  11
ENDBRANCH   1   9
BRANCH   4  17
ATOM     17  C   UNL     1      -0.615  10.033  20.151  0.00  0.00    +0.000 C 
BRANCH  17  18
ATOM     18  C   UNL     1      -1.294  10.885  19.080  0.00  0.00    +0.000 C 
BRANCH  18  19
ATOM     19  N   UNL     1      -1.078  12.301  19.289  0.00  0.00    +0.000 N 
ATOM     20  C   UNL     1      -0.289  13.142  18.568  0.00  0.00    +0.000 A 
ATOM     21  C   UNL     1      -0.490  14.373  19.155  0.00  0.00    +0.000 A 
ATOM     22  N   UNL     1      -1.369  14.229  20.201  0.00  0.00    +0.000 NA
ATOM     23  N   UNL     1      -1.722  12.951  20.275  0.00  0.00    +0.000 NA
BRANCH  21  24
ATOM     24  C   UNL     1       0.110  15.629  18.741  0.00  0.00    +0.000 A 
ATOM     25  C   UNL     1      -0.686  16.731  18.440  0.00  0.00    +0.000 A 
ATOM     26  C   UNL     1      -0.072  17.912  18.025  0.00  0.00    +0.000 A 
ATOM     27  C   UNL     1       1.313  17.959  17.924  0.00  0.00    +0.000 A 
ATOM     28  C   UNL     1       2.031  16.820  18.247  0.00  0.00    +0.000 A 
ATOM     29  N   UNL     1       1.466  15.662  18.652  0.00  0.00    +0.000 NA
ENDBRANCH  21  24
ENDBRANCH  18  19
ENDBRANCH  17  18
ENDBRANCH   4  17
BRANCH   6  30
ATOM     30  C   UNL     1       2.357   6.328  20.586  0.00  0.00    +0.000 C 
BRANCH  30  31
ATOM     31  O   UNL     1       1.515   5.385  19.911  0.00  0.00    +0.000 OA
ATOM     32  H   UNL     1       1.901   4.514  20.115  0.00  0.00    +0.000 HD
ENDBRANCH  30  31
ENDBRANCH   6  30
TORSDOF 8
ENDMDL
MODEL 9
REMARK VINA RESULT:      -6.9      3.563      5.668
REMARK  Name = 
REMARK  8 active torsions:
REMARK  status: ('A' for Active; 'I' for Inactive)
REMARK    1  A    between atoms: C_2  and  C_25
REMARK    2  A    between atoms: N_3  and  C_4
REMARK    3  A    between atoms: C_7  and  C_8
REMARK    4  A    between atoms: C_8  and  C_9
REMARK    5  A    between atoms: C_9  and  N_10
REMARK    6  A    between atoms: C_12  and  C_13
REMARK    7  A    between atoms: C_22  and  C_23
REMARK    8  A    between atoms: C_23  and  O_24
REMARK                            x       y       z     vdW  Elec       q    Type
REMARK                         _______ _______ _______ _____ _____    ______ ____
ROOT
ATOM      1  C   UNL     1      -1.742  11.808  22.150  0.00  0.00    +0.000 C 
ATOM      2  C   UNL     1      -1.090  10.978  23.260  0.00  0.00    +0.000 C 
ATOM      3  C   UNL     1      -0.485   9.698  22.689  0.00  0.00    +0.000 C 
ATOM      4  C   UNL     1       0.461  10.004  21.523  0.00  0.00    +0.000 C 
ATOM      5  O   UNL     1      -0.218  10.770  20.523  0.00  0.00    +0.000 OA
ATOM      6  C   UNL     1      -0.719  12.035  21.012  0.00  0.00    +0.000 C 
ENDROOT
BRANCH   1   9
ATOM      7  O   UNL     1      -4.247  12.082  23.375  0.00  0.00    +0.000 OA
ATOM      8  C   UNL     1      -3.545  13.080  23.262  0.00  0.00    +0.000 C 
ATOM      9  N   UNL     1      -2.285  13.050  22.695  0.00  0.00    +0.000 N 
ATOM     10  H   UNL     1      -1.717  13.887  22.671  0.00  0.00    +0.000 HD
BRANCH   8  11
ATOM     11  C   UNL     1      -4.046  14.385  23.758  0.00  0.00    +0.000 A 
ATOM     12  C   UNL     1      -3.198  15.131  24.578  0.00  0.00    +0.000 A 
ATOM     13  C   UNL     1      -3.657  16.339  25.063  0.00  0.00    +0.000 A 
ATOM     14  N   UNL     1      -4.885  16.832  24.790  0.00  0.00    +0.000 NA
ATOM     15  C   UNL     1      -5.693  16.078  24.016  0.00  0.00    +0.000 A 
ATOM     16  C   UNL     1      -5.329  14.856  23.478  0.00  0.00    +0.000 A 
ENDBRANCH   8  11
ENDBRANCH   1   9
BRANCH   4  17
ATOM     17  C   UNL     1       0.953   8.709  20.870  0.00  0.00    +0.000 C 
BRANCH  17  18
ATOM     18  C   UNL     1       1.575   8.968  19.498  0.00  0.00    +0.000 C 
BRANCH  18  19
ATOM     19  N   UNL     1       2.243   7.797  18.970  0.00  0.00    +0.000 N 
ATOM     20  C   UNL     1       2.141   6.511  19.401  0.00  0.00    +0.000 A 
ATOM     21  C   UNL     1       2.933   5.802  18.524  0.00  0.00    +0.000 A 
ATOM     22  N   UNL     1       3.486   6.675  17.619  0.00  0.00    +0.000 NA
ATOM     23  N   UNL     1       3.056   7.898  17.904  0.00  0.00    +0.000 NA
BRANCH  21  24
ATOM     24  C   UNL     1       3.149   4.366  18.533  0.00  0.00    +0.000 A 
ATOM     25  C   UNL     1       2.494   3.544  17.619  0.00  0.00    +0.000 A 
ATOM     26  C   UNL     1       2.712   2.168  17.675  0.00  0.00    +0.000 A 
ATOM     27  C   UNL     1       3.575   1.654  18.636  0.00  0.00    +0.000 A 
ATOM     28  C   UNL     1       4.189   2.541  19.503  0.00  0.00    +0.000 A 
ATOM     29  N   UNL     1       4.000   3.878  19.475  0.00  0.00    +0.000 NA
ENDBRANCH  21  24
ENDBRANCH  18  19
ENDBRANCH  17  18
ENDBRANCH   4  17
BRANCH   6  30
ATOM     30  C   UNL     1      -1.317  12.765  19.803  0.00  0.00    +0.000 C 
BRANCH  30  31
ATOM     31  O   UNL     1      -2.727  12.516  19.748  0.00  0.00    +0.000 OA
ATOM     32  H   UNL     1      -2.954  12.165  20.628  0.00  0.00    +0.000 HD
ENDBRANCH  30  31
ENDBRANCH   6  30
TORSDOF 8
ENDMDL
