MODEL 1
REMARK VINA RESULT:      -7.7      0.000      0.000
REMARK  Name = 
REMARK  11 active torsions:
REMARK  status: ('A' for Active; 'I' for Inactive)
REMARK    1  A    between atoms: C_1  and  C_2
REMARK    2  A    between atoms: C_5  and  C_6
REMARK    3  A    between atoms: C_6  and  C_7
REMARK    4  A    between atoms: C_7  and  C_8
REMARK    5  A    between atoms: C_8  and  N_9
REMARK    6  A    between atoms: N_12  and  C_13
REMARK    7  A    between atoms: C_13  and  C_14
REMARK    8  A    between atoms: C_14  and  C_15
REMARK    9  A    between atoms: C_14  and  O_16
REMARK   10  A    between atoms: C_14  and  C_17
REMARK   11  A    between atoms: C_20  and  C_21
REMARK                            x       y       z     vdW  Elec       q    Type
REMARK                         _______ _______ _______ _____ _____    ______ ____
ROOT
ATOM      1  N   UNL     1       6.013   5.162  18.550  0.00  0.00    +0.000 N 
ATOM      2  C   UNL     1       5.121   4.167  18.845  0.00  0.00    +0.000 C 
ATOM      3  O   UNL     1       5.165   3.506  19.876  0.00  0.00    +0.000 OA
ATOM      4  N   UNL     1       4.208   3.952  17.851  0.00  0.00    +0.000 N 
ATOM      5  H   UNL     1       5.840   5.755  17.755  0.00  0.00    +0.000 HD
ATOM      6  H   UNL     1       4.175   4.573  17.055  0.00  0.00    +0.000 HD
ENDROOT
BRANCH   1   7
ATOM      7  C   UNL     1       7.073   5.521  19.476  0.00  0.00    +0.000 C 
BRANCH   7   8
ATOM      8  C   UNL     1       8.178   6.346  18.815  0.00  0.00    +0.000 C 
BRANCH   8   9
ATOM      9  C   UNL     1       7.624   7.276  17.736  0.00  0.00    +0.000 C 
BRANCH   9  14
ATOM     10  C   UNL     1       6.446   4.212  14.049  0.00  0.00    +0.000 C 
ATOM     11  C   UNL     1       6.403   5.285  15.058  0.00  0.00    +0.000 A 
ATOM     12  N   UNL     1       5.337   6.078  15.226  0.00  0.00    +0.000 NA
ATOM     13  O   UNL     1       5.718   6.906  16.284  0.00  0.00    +0.000 OA
ATOM     14  C   UNL     1       6.979   6.522  16.637  0.00  0.00    +0.000 A 
ATOM     15  N   UNL     1       7.449   5.534  15.911  0.00  0.00    +0.000 NA
ENDBRANCH   9  14
ENDBRANCH   8   9
ENDBRANCH   7   8
ENDBRANCH   1   7
BRANCH   4  16
ATOM     16  C   UNL     1       3.154   2.939  17.994  0.00  0.00    +0.000 C 
BRANCH  16  17
ATOM     17  C   UNL     1       1.817   3.503  18.540  0.00  0.00    +0.000 C 
ATOM     18  C   UNL     1       1.200   2.633  19.639  0.00  0.00    +0.000 C 
BRANCH  17  19
ATOM     19  C   UNL     1       1.980   4.918  19.024  0.00  0.00    +0.000 A 
ATOM     20  C   UNL     1       1.985   5.499  20.278  0.00  0.00    +0.000 A 
ATOM     21  C   UNL     1       2.224   6.879  20.092  0.00  0.00    +0.000 A 
ATOM     22  C   UNL     1       2.358   7.069  18.736  0.00  0.00    +0.000 A 
ATOM     23  C   UNL     1       2.631   8.265  17.910  0.00  0.00    +0.000 C 
ATOM     24  O   UNL     1       2.204   5.884  18.077  0.00  0.00    +0.000 OA
ENDBRANCH  17  19
BRANCH  17  25
ATOM     25  O   UNL     1       0.882   3.555  17.443  0.00  0.00    +0.000 OA
ATOM     26  H   UNL     1       0.009   3.681  17.850  0.00  0.00    +0.000 HD
ENDBRANCH  17  25
ENDBRANCH  16  17
ENDBRANCH   4  16
TORSDOF 8
ENDMDL
MODEL 2
REMARK VINA RESULT:      -7.6      2.045      5.702
REMARK  Name = 
REMARK  11 active torsions:
REMARK  status: ('A' for Active; 'I' for Inactive)
REMARK    1  A    between atoms: C_1  and  C_2
REMARK    2  A    between atoms: C_5  and  C_6
REMARK    3  A    between atoms: C_6  and  C_7
REMARK    4  A    between atoms: C_7  and  C_8
REMARK    5  A    between atoms: C_8  and  N_9
REMARK    6  A    between atoms: N_12  and  C_13
REMARK    7  A    between atoms: C_13  and  C_14
REMARK    8  A    between atoms: C_14  and  C_15
REMARK    9  A    between atoms: C_14  and  O_16
REMARK   10  A    between atoms: C_14  and  C_17
REMARK   11  A    between atoms: C_20  and  C_21
REMARK                            x       y       z     vdW  Elec       q    Type
REMARK                         _______ _______ _______ _____ _____    ______ ____
ROOT
ATOM      1  N   UNL     1       2.455   3.667  18.347  0.00  0.00    +0.000 N 
ATOM      2  C   UNL     1       3.791   3.448  18.151  0.00  0.00    +0.000 C 
ATOM      3  O   UNL     1       4.475   2.750  18.891  0.00  0.00    +0.000 OA
ATOM      4  N   UNL     1       4.296   4.124  17.076  0.00  0.00    +0.000 N 
ATOM      5  H   UNL     1       1.925   4.136  17.629  0.00  0.00    +0.000 HD
ATOM      6  H   UNL     1       3.672   4.628  16.461  0.00  0.00    +0.000 HD
ENDROOT
BRANCH   1   7
ATOM      7  C   UNL     1       1.744   3.051  19.454  0.00  0.00    +0.000 C 
BRANCH   7   8
ATOM      8  C   UNL     1       1.034   4.074  20.341  0.00  0.00    +0.000 C 
BRANCH   8   9
ATOM      9  C   UNL     1       2.014   5.075  20.950  0.00  0.00    +0.000 C 
BRANCH   9  14
ATOM     10  C   UNL     1       2.322   8.901  17.846  0.00  0.00    +0.000 C 
ATOM     11  C   UNL     1       2.064   8.066  19.033  0.00  0.00    +0.000 A 
ATOM     12  N   UNL     1       1.495   8.547  20.146  0.00  0.00    +0.000 NA
ATOM     13  O   UNL     1       1.419   7.425  20.975  0.00  0.00    +0.000 OA
ATOM     14  C   UNL     1       1.956   6.389  20.269  0.00  0.00    +0.000 A 
ATOM     15  N   UNL     1       2.373   6.729  19.072  0.00  0.00    +0.000 NA
ENDBRANCH   9  14
ENDBRANCH   8   9
ENDBRANCH   7   8
ENDBRANCH   1   7
BRANCH   4  16
ATOM     16  C   UNL     1       5.707   3.996  16.692  0.00  0.00    +0.000 C 
BRANCH  16  17
ATOM     17  C   UNL     1       6.302   5.284  16.065  0.00  0.00    +0.000 C 
ATOM     18  C   UNL     1       5.262   6.129  15.324  0.00  0.00    +0.000 C 
BRANCH  17  19
ATOM     19  C   UNL     1       7.009   6.117  17.100  0.00  0.00    +0.000 A 
ATOM     20  C   UNL     1       7.567   5.830  18.332  0.00  0.00    +0.000 A 
ATOM     21  C   UNL     1       8.127   7.031  18.820  0.00  0.00    +0.000 A 
ATOM     22  C   UNL     1       7.888   7.988  17.861  0.00  0.00    +0.000 A 
ATOM     23  C   UNL     1       8.229   9.423  17.765  0.00  0.00    +0.000 C 
ATOM     24  O   UNL     1       7.203   7.444  16.814  0.00  0.00    +0.000 OA
ENDBRANCH  17  19
BRANCH  17  25
ATOM     25  O   UNL     1       7.306   4.885  15.111  0.00  0.00    +0.000 OA
ATOM     26  H   UNL     1       6.895   4.992  14.239  0.00  0.00    +0.000 HD
ENDBRANCH  17  25
ENDBRANCH  16  17
ENDBRANCH   4  16
TORSDOF 8
ENDMDL
MODEL 3
REMARK VINA RESULT:      -7.4      1.765      5.912
REMARK  Name = 
REMARK  11 active torsions:
REMARK  status: ('A' for Active; 'I' for Inactive)
REMARK    1  A    between atoms: C_1  and  C_2
REMARK    2  A    between atoms: C_5  and  C_6
REMARK    3  A    between atoms: C_6  and  C_7
REMARK    4  A    between atoms: C_7  and  C_8
REMARK    5  A    between atoms: C_8  and  N_9
REMARK    6  A    between atoms: N_12  and  C_13
REMARK    7  A    between atoms: C_13  and  C_14
REMARK    8  A    between atoms: C_14  and  C_15
REMARK    9  A    between atoms: C_14  and  O_16
REMARK   10  A    between atoms: C_14  and  C_17
REMARK   11  A    between atoms: C_20  and  C_21
REMARK                            x       y       z     vdW  Elec       q    Type
REMARK                         _______ _______ _______ _____ _____    ______ ____
ROOT
ATOM      1  N   UNL     1       5.022   2.750  19.321  0.00  0.00    +0.000 N 
ATOM      2  C   UNL     1       5.547   4.012  19.297  0.00  0.00    +0.000 C 
ATOM      3  O   UNL     1       5.033   4.967  19.868  0.00  0.00    +0.000 OA
ATOM      4  N   UNL     1       6.675   4.111  18.531  0.00  0.00    +0.000 N 
ATOM      5  H   UNL     1       5.563   1.986  18.949  0.00  0.00    +0.000 HD
ATOM      6  H   UNL     1       7.093   3.278  18.142  0.00  0.00    +0.000 HD
ENDROOT
BRANCH   1   7
ATOM      7  C   UNL     1       3.810   2.452  20.065  0.00  0.00    +0.000 C 
BRANCH   7   8
ATOM      8  C   UNL     1       2.568   2.408  19.175  0.00  0.00    +0.000 C 
BRANCH   8   9
ATOM      9  C   UNL     1       1.443   3.284  19.725  0.00  0.00    +0.000 C 
BRANCH   9  14
ATOM     10  C   UNL     1       2.496   7.795  18.019  0.00  0.00    +0.000 C 
ATOM     11  C   UNL     1       2.183   6.661  18.908  0.00  0.00    +0.000 A 
ATOM     12  N   UNL     1       2.030   6.801  20.231  0.00  0.00    +0.000 NA
ATOM     13  O   UNL     1       1.719   5.506  20.654  0.00  0.00    +0.000 OA
ATOM     14  C   UNL     1       1.723   4.726  19.535  0.00  0.00    +0.000 A 
ATOM     15  N   UNL     1       2.008   5.385  18.436  0.00  0.00    +0.000 NA
ENDBRANCH   9  14
ENDBRANCH   8   9
ENDBRANCH   7   8
ENDBRANCH   1   7
BRANCH   4  16
ATOM     16  C   UNL     1       7.396   5.384  18.401  0.00  0.00    +0.000 C 
BRANCH  16  17
ATOM     17  C   UNL     1       6.814   6.323  17.313  0.00  0.00    +0.000 C 
ATOM     18  C   UNL     1       7.682   7.557  17.055  0.00  0.00    +0.000 C 
BRANCH  17  19
ATOM     19  C   UNL     1       6.569   5.580  16.028  0.00  0.00    +0.000 A 
ATOM     20  C   UNL     1       5.549   4.757  15.586  0.00  0.00    +0.000 A 
ATOM     21  C   UNL     1       5.865   4.387  14.259  0.00  0.00    +0.000 A 
ATOM     22  C   UNL     1       7.056   5.007  13.957  0.00  0.00    +0.000 A 
ATOM     23  C   UNL     1       7.896   5.033  12.742  0.00  0.00    +0.000 C 
ATOM     24  O   UNL     1       7.495   5.728  15.029  0.00  0.00    +0.000 OA
ENDBRANCH  17  19
BRANCH  17  25
ATOM     25  O   UNL     1       5.525   6.778  17.770  0.00  0.00    +0.000 OA
ATOM     26  H   UNL     1       4.915   6.622  17.031  0.00  0.00    +0.000 HD
ENDBRANCH  17  25
ENDBRANCH  16  17
ENDBRANCH   4  16
TORSDOF 8
ENDMDL
MODEL 4
REMARK VINA RESULT:      -7.3      1.755      5.514
REMARK  Name = 
REMARK  11 active torsions:
REMARK  status: ('A' for Active; 'I' for Inactive)
REMARK    1  A    between atoms: C_1  and  C_2
REMARK    2  A    between atoms: C_5  and  C_6
REMARK    3  A    between atoms: C_6  and  C_7
REMARK    4  A    between atoms: C_7  and  C_8
REMARK    5  A    between atoms: C_8  and  N_9
REMARK    6  A    between atoms: N_12  and  C_13
REMARK    7  A    between atoms: C_13  and  C_14
REMARK    8  A    between atoms: C_14  and  C_15
REMARK    9  A    between atoms: C_14  and  O_16
REMARK   10  A    between atoms: C_14  and  C_17
REMARK   11  A    between atoms: C_20  and  C_21
REMARK                            x       y       z     vdW  Elec       q    Type
REMARK                         _______ _______ _______ _____ _____    ______ ____
ROOT
ATOM      1  N   UNL     1       2.983   2.618  18.746  0.00  0.00    +0.000 N 
ATOM      2  C   UNL     1       3.098   3.190  17.509  0.00  0.00    +0.000 C 
ATOM      3  O   UNL     1       2.148   3.356  16.752  0.00  0.00    +0.000 OA
ATOM      4  N   UNL     1       4.386   3.511  17.182  0.00  0.00    +0.000 N 
ATOM      5  H   UNL     1       3.774   2.635  19.369  0.00  0.00    +0.000 HD
ATOM      6  H   UNL     1       5.118   3.416  17.871  0.00  0.00    +0.000 HD
ENDROOT
BRANCH   1   7
ATOM      7  C   UNL     1       1.694   2.188  19.260  0.00  0.00    +0.000 C 
BRANCH   7   8
ATOM      8  C   UNL     1       1.381   2.780  20.635  0.00  0.00    +0.000 C 
BRANCH   8   9
ATOM      9  C   UNL     1       0.977   4.251  20.543  0.00  0.00    +0.000 C 
BRANCH   9  14
ATOM     10  C   UNL     1       3.645   7.339  17.765  0.00  0.00    +0.000 C 
ATOM     11  C   UNL     1       3.241   6.335  18.766  0.00  0.00    +0.000 A 
ATOM     12  N   UNL     1       4.108   5.771  19.616  0.00  0.00    +0.000 NA
ATOM     13  O   UNL     1       3.300   4.927  20.382  0.00  0.00    +0.000 OA
ATOM     14  C   UNL     1       2.031   5.073  19.903  0.00  0.00    +0.000 A 
ATOM     15  N   UNL     1       1.940   5.921  18.906  0.00  0.00    +0.000 NA
ENDBRANCH   9  14
ENDBRANCH   8   9
ENDBRANCH   7   8
ENDBRANCH   1   7
BRANCH   4  16
ATOM     16  C   UNL     1       4.707   4.156  15.902  0.00  0.00    +0.000 C 
BRANCH  16  17
ATOM     17  C   UNL     1       6.225   4.387  15.684  0.00  0.00    +0.000 C 
ATOM     18  C   UNL     1       6.551   5.001  14.320  0.00  0.00    +0.000 C 
BRANCH  17  19
ATOM     19  C   UNL     1       6.812   5.225  16.788  0.00  0.00    +0.000 A 
ATOM     20  C   UNL     1       7.317   4.928  18.040  0.00  0.00    +0.000 A 
ATOM     21  C   UNL     1       7.764   6.144  18.602  0.00  0.00    +0.000 A 
ATOM     22  C   UNL     1       7.515   7.120  17.664  0.00  0.00    +0.000 A 
ATOM     23  C   UNL     1       7.760   8.577  17.639  0.00  0.00    +0.000 C 
ATOM     24  O   UNL     1       6.929   6.571  16.560  0.00  0.00    +0.000 OA
ENDBRANCH  17  19
BRANCH  17  25
ATOM     25  O   UNL     1       6.879   3.105  15.757  0.00  0.00    +0.000 OA
ATOM     26  H   UNL     1       6.746   2.795  16.668  0.00  0.00    +0.000 HD
ENDBRANCH  17  25
ENDBRANCH  16  17
ENDBRANCH   4  16
TORSDOF 8
ENDMDL
MODEL 5
REMARK VINA RESULT:      -7.3      1.431      1.656
REMARK  Name = 
REMARK  11 active torsions:
REMARK  status: ('A' for Active; 'I' for Inactive)
REMARK    1  A    between atoms: C_1  and  C_2
REMARK    2  A    between atoms: C_5  and  C_6
REMARK    3  A    between atoms: C_6  and  C_7
REMARK    4  A    between atoms: C_7  and  C_8
REMARK    5  A    between atoms: C_8  and  N_9
REMARK    6  A    between atoms: N_12  and  C_13
REMARK    7  A    between atoms: C_13  and  C_14
REMARK    8  A    between atoms: C_14  and  C_15
REMARK    9  A    between atoms: C_14  and  O_16
REMARK   10  A    between atoms: C_14  and  C_17
REMARK   11  A    between atoms: C_20  and  C_21
REMARK                            x       y       z     vdW  Elec       q    Type
REMARK                         _______ _______ _______ _____ _____    ______ ____
ROOT
ATOM      1  N   UNL     1       6.237   4.263  18.715  0.00  0.00    +0.000 N 
ATOM      2  C   UNL     1       5.118   3.507  18.498  0.00  0.00    +0.000 C 
ATOM      3  O   UNL     1       4.823   3.041  17.403  0.00  0.00    +0.000 OA
ATOM      4  N   UNL     1       4.337   3.368  19.610  0.00  0.00    +0.000 N 
ATOM      5  H   UNL     1       6.492   4.500  19.661  0.00  0.00    +0.000 HD
ATOM      6  H   UNL     1       4.665   3.714  20.501  0.00  0.00    +0.000 HD
ENDROOT
BRANCH   1   7
ATOM      7  C   UNL     1       7.178   4.542  17.645  0.00  0.00    +0.000 C 
BRANCH   7   8
ATOM      8  C   UNL     1       7.149   6.004  17.199  0.00  0.00    +0.000 C 
BRANCH   8   9
ATOM      9  C   UNL     1       6.017   6.274  16.209  0.00  0.00    +0.000 C 
BRANCH   9  14
ATOM     10  C   UNL     1       7.236   3.838  12.091  0.00  0.00    +0.000 C 
ATOM     11  C   UNL     1       6.515   4.319  13.284  0.00  0.00    +0.000 A 
ATOM     12  N   UNL     1       5.327   3.827  13.658  0.00  0.00    +0.000 NA
ATOM     13  O   UNL     1       5.043   4.535  14.827  0.00  0.00    +0.000 OA
ATOM     14  C   UNL     1       6.093   5.382  15.028  0.00  0.00    +0.000 A 
ATOM     15  N   UNL     1       7.022   5.294  14.105  0.00  0.00    +0.000 NA
ENDBRANCH   9  14
ENDBRANCH   8   9
ENDBRANCH   7   8
ENDBRANCH   1   7
BRANCH   4  16
ATOM     16  C   UNL     1       3.104   2.570  19.579  0.00  0.00    +0.000 C 
BRANCH  16  17
ATOM     17  C   UNL     1       1.868   3.353  19.068  0.00  0.00    +0.000 C 
ATOM     18  C   UNL     1       0.546   2.832  19.640  0.00  0.00    +0.000 C 
BRANCH  17  19
ATOM     19  C   UNL     1       2.008   4.827  19.337  0.00  0.00    +0.000 A 
ATOM     20  C   UNL     1       1.823   5.610  20.461  0.00  0.00    +0.000 A 
ATOM     21  C   UNL     1       2.151   6.936  20.098  0.00  0.00    +0.000 A 
ATOM     22  C   UNL     1       2.524   6.894  18.774  0.00  0.00    +0.000 A 
ATOM     23  C   UNL     1       2.987   7.929  17.827  0.00  0.00    +0.000 C 
ATOM     24  O   UNL     1       2.434   5.617  18.300  0.00  0.00    +0.000 OA
ENDBRANCH  17  19
BRANCH  17  25
ATOM     25  O   UNL     1       1.816   3.206  17.635  0.00  0.00    +0.000 OA
ATOM     26  H   UNL     1       2.642   3.594  17.302  0.00  0.00    +0.000 HD
ENDBRANCH  17  25
ENDBRANCH  16  17
ENDBRANCH   4  16
TORSDOF 8
ENDMDL
MODEL 6
REMARK VINA RESULT:      -7.2      1.812      5.699
REMARK  Name = 
REMARK  11 active torsions:
REMARK  status: ('A' for Active; 'I' for Inactive)
REMARK    1  A    between atoms: C_1  and  C_2
REMARK    2  A    between atoms: C_5  and  C_6
REMARK    3  A    between atoms: C_6  and  C_7
REMARK    4  A    between atoms: C_7  and  C_8
REMARK    5  A    between atoms: C_8  and  N_9
REMARK    6  A    between atoms: N_12  and  C_13
REMARK    7  A    between atoms: C_13  and  C_14
REMARK    8  A    between atoms: C_14  and  C_15
REMARK    9  A    between atoms: C_14  and  O_16
REMARK   10  A    between atoms: C_14  and  C_17
REMARK   11  A    between atoms: C_20  and  C_21
REMARK                            x       y       z     vdW  Elec       q    Type
REMARK                         _______ _______ _______ _____ _____    ______ ____
ROOT
ATOM      1  N   UNL     1       2.753   5.532  18.531  0.00  0.00    +0.000 N 
ATOM      2  C   UNL     1       3.650   6.057  17.642  0.00  0.00    +0.000 C 
ATOM      3  O   UNL     1       4.011   7.228  17.661  0.00  0.00    +0.000 OA
ATOM      4  N   UNL     1       4.062   5.157  16.699  0.00  0.00    +0.000 N 
ATOM      5  H   UNL     1       2.604   4.536  18.546  0.00  0.00    +0.000 HD
ATOM      6  H   UNL     1       3.786   4.188  16.774  0.00  0.00    +0.000 HD
ENDROOT
BRANCH   1   7
ATOM      7  C   UNL     1       2.184   6.343  19.594  0.00  0.00    +0.000 C 
BRANCH   7   8
ATOM      8  C   UNL     1       1.731   5.509  20.793  0.00  0.00    +0.000 C 
BRANCH   8   9
ATOM      9  C   UNL     1       0.861   4.327  20.368  0.00  0.00    +0.000 C 
BRANCH   9  14
ATOM     10  C   UNL     1       3.974   1.058  18.370  0.00  0.00    +0.000 C 
ATOM     11  C   UNL     1       2.878   2.025  18.564  0.00  0.00    +0.000 A 
ATOM     12  N   UNL     1       2.007   2.335  17.595  0.00  0.00    +0.000 NA
ATOM     13  O   UNL     1       1.148   3.242  18.218  0.00  0.00    +0.000 OA
ATOM     14  C   UNL     1       1.600   3.384  19.498  0.00  0.00    +0.000 A 
ATOM     15  N   UNL     1       2.665   2.662  19.761  0.00  0.00    +0.000 NA
ENDBRANCH   9  14
ENDBRANCH   8   9
ENDBRANCH   7   8
ENDBRANCH   1   7
BRANCH   4  16
ATOM     16  C   UNL     1       5.043   5.529  15.671  0.00  0.00    +0.000 C 
BRANCH  16  17
ATOM     17  C   UNL     1       6.474   5.004  15.956  0.00  0.00    +0.000 C 
ATOM     18  C   UNL     1       7.371   4.998  14.715  0.00  0.00    +0.000 C 
BRANCH  17  19
ATOM     19  C   UNL     1       7.127   5.779  17.068  0.00  0.00    +0.000 A 
ATOM     20  C   UNL     1       7.651   5.419  18.296  0.00  0.00    +0.000 A 
ATOM     21  C   UNL     1       8.166   6.596  18.884  0.00  0.00    +0.000 A 
ATOM     22  C   UNL     1       7.936   7.611  17.984  0.00  0.00    +0.000 A 
ATOM     23  C   UNL     1       8.245   9.057  17.998  0.00  0.00    +0.000 C 
ATOM     24  O   UNL     1       7.298   7.126  16.880  0.00  0.00    +0.000 OA
ENDBRANCH  17  19
BRANCH  17  25
ATOM     25  O   UNL     1       6.358   3.645  16.422  0.00  0.00    +0.000 OA
ATOM     26  H   UNL     1       6.906   3.596  17.222  0.00  0.00    +0.000 HD
ENDBRANCH  17  25
ENDBRANCH  16  17
ENDBRANCH   4  16
TORSDOF 8
ENDMDL
MODEL 7
REMARK VINA RESULT:      -7.2      2.003      6.061
REMARK  Name = 
REMARK  11 active torsions:
REMARK  status: ('A' for Active; 'I' for Inactive)
REMARK    1  A    between atoms: C_1  and  C_2
REMARK    2  A    between atoms: C_5  and  C_6
REMARK    3  A    between atoms: C_6  and  C_7
REMARK    4  A    between atoms: C_7  and  C_8
REMARK    5  A    between atoms: C_8  and  N_9
REMARK    6  A    between atoms: N_12  and  C_13
REMARK    7  A    between atoms: C_13  and  C_14
REMARK    8  A    between atoms: C_14  and  C_15
REMARK    9  A    between atoms: C_14  and  O_16
REMARK   10  A    between atoms: C_14  and  C_17
REMARK   11  A    between atoms: C_20  and  C_21
REMARK                            x       y       z     vdW  Elec       q    Type
REMARK                         _______ _______ _______ _____ _____    ______ ____
ROOT
ATOM      1  N   UNL     1       3.267   5.171  20.380  0.00  0.00    +0.000 N 
ATOM      2  C   UNL     1       3.535   5.832  19.213  0.00  0.00    +0.000 C 
ATOM      3  O   UNL     1       2.692   6.467  18.590  0.00  0.00    +0.000 OA
ATOM      4  N   UNL     1       4.822   5.669  18.785  0.00  0.00    +0.000 N 
ATOM      5  H   UNL     1       4.032   4.784  20.910  0.00  0.00    +0.000 HD
ATOM      6  H   UNL     1       5.492   5.193  19.374  0.00  0.00    +0.000 HD
ENDROOT
BRANCH   1   7
ATOM      7  C   UNL     1       1.945   5.206  20.980  0.00  0.00    +0.000 C 
BRANCH   7   8
ATOM      8  C   UNL     1       1.441   3.819  21.379  0.00  0.00    +0.000 C 
BRANCH   8   9
ATOM      9  C   UNL     1       0.699   3.132  20.234  0.00  0.00    +0.000 C 
BRANCH   9  14
ATOM     10  C   UNL     1       4.328   1.454  17.338  0.00  0.00    +0.000 C 
ATOM     11  C   UNL     1       3.111   2.128  17.826  0.00  0.00    +0.000 A 
ATOM     12  N   UNL     1       2.282   2.800  17.016  0.00  0.00    +0.000 NA
ATOM     13  O   UNL     1       1.275   3.233  17.880  0.00  0.00    +0.000 OA
ATOM     14  C   UNL     1       1.610   2.777  19.121  0.00  0.00    +0.000 A 
ATOM     15  N   UNL     1       2.733   2.097  19.145  0.00  0.00    +0.000 NA
ENDBRANCH   9  14
ENDBRANCH   8   9
ENDBRANCH   7   8
ENDBRANCH   1   7
BRANCH   4  16
ATOM     16  C   UNL     1       5.306   6.322  17.562  0.00  0.00    +0.000 C 
BRANCH  16  17
ATOM     17  C   UNL     1       6.705   5.835  17.106  0.00  0.00    +0.000 C 
ATOM     18  C   UNL     1       7.400   4.947  18.142  0.00  0.00    +0.000 C 
BRANCH  17  19
ATOM     19  C   UNL     1       6.631   5.129  15.779  0.00  0.00    +0.000 A 
ATOM     20  C   UNL     1       5.899   4.052  15.316  0.00  0.00    +0.000 A 
ATOM     21  C   UNL     1       6.236   3.880  13.954  0.00  0.00    +0.000 A 
ATOM     22  C   UNL     1       7.150   4.864  13.655  0.00  0.00    +0.000 A 
ATOM     23  C   UNL     1       7.866   5.228  12.414  0.00  0.00    +0.000 C 
ATOM     24  O   UNL     1       7.402   5.624  14.760  0.00  0.00    +0.000 OA
ENDBRANCH  17  19
BRANCH  17  25
ATOM     25  O   UNL     1       7.530   6.999  16.900  0.00  0.00    +0.000 OA
ATOM     26  H   UNL     1       7.405   7.247  15.969  0.00  0.00    +0.000 HD
ENDBRANCH  17  25
ENDBRANCH  16  17
ENDBRANCH   4  16
TORSDOF 8
ENDMDL
MODEL 8
REMARK VINA RESULT:      -7.2      2.366      3.242
REMARK  Name = 
REMARK  11 active torsions:
REMARK  status: ('A' for Active; 'I' for Inactive)
REMARK    1  A    between atoms: C_1  and  C_2
REMARK    2  A    between atoms: C_5  and  C_6
REMARK    3  A    between atoms: C_6  and  C_7
REMARK    4  A    between atoms: C_7  and  C_8
REMARK    5  A    between atoms: C_8  and  N_9
REMARK    6  A    between atoms: N_12  and  C_13
REMARK    7  A    between atoms: C_13  and  C_14
REMARK    8  A    between atoms: C_14  and  C_15
REMARK    9  A    between atoms: C_14  and  O_16
REMARK   10  A    between atoms: C_14  and  C_17
REMARK   11  A    between atoms: C_20  and  C_21
REMARK                            x       y       z     vdW  Elec       q    Type
REMARK                         _______ _______ _______ _____ _____    ______ ____
ROOT
ATOM      1  N   UNL     1       6.479   4.301  17.492  0.00  0.00    +0.000 N 
ATOM      2  C   UNL     1       5.541   3.843  18.377  0.00  0.00    +0.000 C 
ATOM      3  O   UNL     1       5.625   4.001  19.589  0.00  0.00    +0.000 OA
ATOM      4  N   UNL     1       4.529   3.149  17.776  0.00  0.00    +0.000 N 
ATOM      5  H   UNL     1       6.283   4.259  16.505  0.00  0.00    +0.000 HD
ATOM      6  H   UNL     1       4.474   3.110  16.768  0.00  0.00    +0.000 HD
ENDROOT
BRANCH   1   7
ATOM      7  C   UNL     1       7.643   5.043  17.946  0.00  0.00    +0.000 C 
BRANCH   7   8
ATOM      8  C   UNL     1       7.293   6.452  18.426  0.00  0.00    +0.000 C 
BRANCH   8   9
ATOM      9  C   UNL     1       7.541   7.500  17.342  0.00  0.00    +0.000 C 
BRANCH   9  14
ATOM     10  C   UNL     1       9.039  12.104  18.307  0.00  0.00    +0.000 C 
ATOM     11  C   UNL     1       8.834  10.646  18.371  0.00  0.00    +0.000 A 
ATOM     12  N   UNL     1       9.357   9.884  19.340  0.00  0.00    +0.000 NA
ATOM     13  O   UNL     1       8.889   8.606  19.027  0.00  0.00    +0.000 OA
ATOM     14  C   UNL     1       8.136   8.738  17.898  0.00  0.00    +0.000 A 
ATOM     15  N   UNL     1       8.074   9.970  17.449  0.00  0.00    +0.000 NA
ENDBRANCH   9  14
ENDBRANCH   8   9
ENDBRANCH   7   8
ENDBRANCH   1   7
BRANCH   4  16
ATOM     16  C   UNL     1       3.415   2.598  18.560  0.00  0.00    +0.000 C 
BRANCH  16  17
ATOM     17  C   UNL     1       2.077   3.355  18.359  0.00  0.00    +0.000 C 
ATOM     18  C   UNL     1       0.881   2.642  18.995  0.00  0.00    +0.000 C 
BRANCH  17  19
ATOM     19  C   UNL     1       2.171   4.770  18.863  0.00  0.00    +0.000 A 
ATOM     20  C   UNL     1       2.101   5.336  20.122  0.00  0.00    +0.000 A 
ATOM     21  C   UNL     1       2.301   6.725  19.960  0.00  0.00    +0.000 A 
ATOM     22  C   UNL     1       2.489   6.935  18.613  0.00  0.00    +0.000 A 
ATOM     23  C   UNL     1       2.758   8.148  17.812  0.00  0.00    +0.000 C 
ATOM     24  O   UNL     1       2.405   5.753  17.937  0.00  0.00    +0.000 OA
ENDBRANCH  17  19
BRANCH  17  25
ATOM     25  O   UNL     1       1.833   3.446  16.941  0.00  0.00    +0.000 OA
ATOM     26  H   UNL     1       1.052   2.895  16.774  0.00  0.00    +0.000 HD
ENDBRANCH  17  25
ENDBRANCH  16  17
ENDBRANCH   4  16
TORSDOF 8
ENDMDL
MODEL 9
REMARK VINA RESULT:      -7.2      2.167      5.723
REMARK  Name = 
REMARK  11 active torsions:
REMARK  status: ('A' for Active; 'I' for Inactive)
REMARK    1  A    between atoms: C_1  and  C_2
REMARK    2  A    between atoms: C_5  and  C_6
REMARK    3  A    between atoms: C_6  and  C_7
REMARK    4  A    between atoms: C_7  and  C_8
REMARK    5  A    between atoms: C_8  and  N_9
REMARK    6  A    between atoms: N_12  and  C_13
REMARK    7  A    between atoms: C_13  and  C_14
REMARK    8  A    between atoms: C_14  and  C_15
REMARK    9  A    between atoms: C_14  and  O_16
REMARK   10  A    between atoms: C_14  and  C_17
REMARK   11  A    between atoms: C_20  and  C_21
REMARK                            x       y       z     vdW  Elec       q    Type
REMARK                         _______ _______ _______ _____ _____    ______ ____
ROOT
ATOM      1  N   UNL     1       2.539   3.952  18.298  0.00  0.00    +0.000 N 
ATOM      2  C   UNL     1       3.868   3.733  18.057  0.00  0.00    +0.000 C 
ATOM      3  O   UNL     1       4.648   3.320  18.907  0.00  0.00    +0.000 OA
ATOM      4  N   UNL     1       4.247   4.070  16.788  0.00  0.00    +0.000 N 
ATOM      5  H   UNL     1       1.929   4.160  17.524  0.00  0.00    +0.000 HD
ATOM      6  H   UNL     1       3.549   4.339  16.109  0.00  0.00    +0.000 HD
ENDROOT
BRANCH   1   7
ATOM      7  C   UNL     1       1.954   3.674  19.598  0.00  0.00    +0.000 C 
BRANCH   7   8
ATOM      8  C   UNL     1       1.573   4.946  20.356  0.00  0.00    +0.000 C 
BRANCH   8   9
ATOM      9  C   UNL     1       2.678   5.999  20.293  0.00  0.00    +0.000 C 
BRANCH   9  14
ATOM     10  C   UNL     1       0.654  10.386  19.281  0.00  0.00    +0.000 C 
ATOM     11  C   UNL     1       1.361   9.098  19.160  0.00  0.00    +0.000 A 
ATOM     12  N   UNL     1       1.929   8.689  18.019  0.00  0.00    +0.000 NA
ATOM     13  O   UNL     1       2.496   7.461  18.367  0.00  0.00    +0.000 OA
ATOM     14  C   UNL     1       2.202   7.263  19.685  0.00  0.00    +0.000 A 
ATOM     15  N   UNL     1       1.501   8.236  20.219  0.00  0.00    +0.000 NA
ENDBRANCH   9  14
ENDBRANCH   8   9
ENDBRANCH   7   8
ENDBRANCH   1   7
BRANCH   4  16
ATOM     16  C   UNL     1       5.632   3.884  16.334  0.00  0.00    +0.000 C 
BRANCH  16  17
ATOM     17  C   UNL     1       6.311   5.193  15.855  0.00  0.00    +0.000 C 
ATOM     18  C   UNL     1       5.345   6.151  15.153  0.00  0.00    +0.000 C 
BRANCH  17  19
ATOM     19  C   UNL     1       7.007   5.893  16.991  0.00  0.00    +0.000 A 
ATOM     20  C   UNL     1       7.526   5.461  18.197  0.00  0.00    +0.000 A 
ATOM     21  C   UNL     1       8.097   6.590  18.827  0.00  0.00    +0.000 A 
ATOM     22  C   UNL     1       7.903   7.650  17.972  0.00  0.00    +0.000 A 
ATOM     23  C   UNL     1       8.274   9.079  18.041  0.00  0.00    +0.000 C 
ATOM     24  O   UNL     1       7.234   7.238  16.856  0.00  0.00    +0.000 OA
ENDBRANCH  17  19
BRANCH  17  25
ATOM     25  O   UNL     1       7.339   4.834  14.910  0.00  0.00    +0.000 OA
ATOM     26  H   UNL     1       8.079   4.499  15.443  0.00  0.00    +0.000 HD
ENDBRANCH  17  25
ENDBRANCH  16  17
ENDBRANCH   4  16
TORSDOF 8
ENDMDL
