MODEL 1
REMARK VINA RESULT:      -8.1      0.000      0.000
REMARK  Name = 
REMARK  5 active torsions:
REMARK  status: ('A' for Active; 'I' for Inactive)
REMARK    1  A    between atoms: C_2  and  C_5
REMARK    2  A    between atoms: N_3  and  O_4
REMARK    3  A    between atoms: C_8  and  C_9
REMARK    4  A    between atoms: C_9  and  C_10
REMARK    5  A    between atoms: C_13  and  C_14
REMARK                            x       y       z     vdW  Elec       q    Type
REMARK                         _______ _______ _______ _____ _____    ______ ____
ROOT
ATOM      1  C   UNL     1       6.195   4.411  15.832  0.00  0.00    +0.000 A 
ATOM      2  C   UNL     1       4.912   3.869  15.952  0.00  0.00    +0.000 A 
ATOM      3  C   UNL     1       4.359   3.665  17.218  0.00  0.00    +0.000 A 
ATOM      4  C   UNL     1       5.067   4.016  18.380  0.00  0.00    +0.000 A 
ATOM      5  C   UNL     1       6.351   4.570  18.248  0.00  0.00    +0.000 A 
ATOM      6  C   UNL     1       6.909   4.768  16.982  0.00  0.00    +0.000 A 
ENDROOT
BRANCH   1   8
ATOM      7  O   UNL     1       6.351   4.052  13.492  0.00  0.00    +0.000 OA
ATOM      8  C   UNL     1       6.770   4.641  14.479  0.00  0.00    +0.000 C 
ATOM      9  N   UNL     1       7.812   5.539  14.426  0.00  0.00    +0.000 N 
ATOM     10  H   UNL     1       8.405   5.718  15.229  0.00  0.00    +0.000 HD
BRANCH   9  11
ATOM     11  O   UNL     1       8.422   5.692  13.157  0.00  0.00    +0.000 OA
ATOM     12  H   UNL     1       9.336   5.960  13.398  0.00  0.00    +0.000 HD
ENDBRANCH   9  11
ENDBRANCH   1   8
BRANCH   4  13
ATOM     13  C   UNL     1       4.444   3.796  19.744  0.00  0.00    +0.000 C 
BRANCH  13  14
ATOM     14  C   UNL     1       3.384   4.825  19.881  0.00  0.00    +0.000 A 
ATOM     15  N   UNL     1       2.373   4.707  20.755  0.00  0.00    +0.000 NA
ATOM     16  O   UNL     1       1.688   5.914  20.610  0.00  0.00    +0.000 OA
ATOM     17  C   UNL     1       2.348   6.629  19.649  0.00  0.00    +0.000 A 
ATOM     18  N   UNL     1       3.368   5.978  19.132  0.00  0.00    +0.000 NA
BRANCH  17  19
ATOM     19  C   UNL     1       1.888   7.988  19.400  0.00  0.00    +0.000 A 
ATOM     20  C   UNL     1       1.215   8.735  20.380  0.00  0.00    +0.000 A 
ATOM     21  C   UNL     1       0.828  10.055  20.132  0.00  0.00    +0.000 A 
ATOM     22  C   UNL     1       1.104  10.642  18.900  0.00  0.00    +0.000 A 
ATOM     23  C   UNL     1       1.770   9.915  17.916  0.00  0.00    +0.000 A 
ATOM     24  C   UNL     1       2.160   8.598  18.163  0.00  0.00    +0.000 A 
ENDBRANCH  17  19
ENDBRANCH  13  14
ENDBRANCH   4  13
TORSDOF 5
ENDMDL
MODEL 2
REMARK VINA RESULT:      -8.0      4.340      6.372
REMARK  Name = 
REMARK  5 active torsions:
REMARK  status: ('A' for Active; 'I' for Inactive)
REMARK    1  A    between atoms: C_2  and  C_5
REMARK    2  A    between atoms: N_3  and  O_4
REMARK    3  A    between atoms: C_8  and  C_9
REMARK    4  A    between atoms: C_9  and  C_10
REMARK    5  A    between atoms: C_13  and  C_14
REMARK                            x       y       z     vdW  Elec       q    Type
REMARK                         _______ _______ _______ _____ _____    ______ ____
ROOT
ATOM      1  C   UNL     1       3.275   4.257  18.461  0.00  0.00    +0.000 A 
ATOM      2  C   UNL     1       4.006   3.775  17.371  0.00  0.00    +0.000 A 
ATOM      3  C   UNL     1       5.369   4.064  17.266  0.00  0.00    +0.000 A 
ATOM      4  C   UNL     1       6.025   4.818  18.254  0.00  0.00    +0.000 A 
ATOM      5  C   UNL     1       5.284   5.287  19.350  0.00  0.00    +0.000 A 
ATOM      6  C   UNL     1       3.918   5.006  19.454  0.00  0.00    +0.000 A 
ENDROOT
BRANCH   1   8
ATOM      7  O   UNL     1       1.049   4.127  17.651  0.00  0.00    +0.000 OA
ATOM      8  C   UNL     1       1.828   3.930  18.574  0.00  0.00    +0.000 C 
ATOM      9  N   UNL     1       1.432   3.417  19.789  0.00  0.00    +0.000 N 
ATOM     10  H   UNL     1       1.941   3.614  20.644  0.00  0.00    +0.000 HD
BRANCH   9  11
ATOM     11  O   UNL     1       0.041   3.191  19.933  0.00  0.00    +0.000 OA
ATOM     12  H   UNL     1      -0.341   3.877  19.343  0.00  0.00    +0.000 HD
ENDBRANCH   9  11
ENDBRANCH   1   8
BRANCH   4  13
ATOM     13  C   UNL     1       7.506   5.110  18.126  0.00  0.00    +0.000 C 
BRANCH  13  14
ATOM     14  C   UNL     1       7.615   6.562  17.843  0.00  0.00    +0.000 A 
ATOM     15  N   UNL     1       6.882   7.169  16.898  0.00  0.00    +0.000 NA
ATOM     16  O   UNL     1       7.234   8.513  17.041  0.00  0.00    +0.000 OA
ATOM     17  C   UNL     1       8.157   8.574  18.048  0.00  0.00    +0.000 A 
ATOM     18  N   UNL     1       8.464   7.391  18.538  0.00  0.00    +0.000 NA
BRANCH  17  19
ATOM     19  C   UNL     1       8.595   9.897  18.469  0.00  0.00    +0.000 A 
ATOM     20  C   UNL     1       9.295  10.100  19.668  0.00  0.00    +0.000 A 
ATOM     21  C   UNL     1       9.748  11.374  20.025  0.00  0.00    +0.000 A 
ATOM     22  C   UNL     1       9.500  12.460  19.189  0.00  0.00    +0.000 A 
ATOM     23  C   UNL     1       8.806  12.276  17.996  0.00  0.00    +0.000 A 
ATOM     24  C   UNL     1       8.356  11.005  17.637  0.00  0.00    +0.000 A 
ENDBRANCH  17  19
ENDBRANCH  13  14
ENDBRANCH   4  13
TORSDOF 5
ENDMDL
MODEL 3
REMARK VINA RESULT:      -8.0      0.321      1.080
REMARK  Name = 
REMARK  5 active torsions:
REMARK  status: ('A' for Active; 'I' for Inactive)
REMARK    1  A    between atoms: C_2  and  C_5
REMARK    2  A    between atoms: N_3  and  O_4
REMARK    3  A    between atoms: C_8  and  C_9
REMARK    4  A    between atoms: C_9  and  C_10
REMARK    5  A    between atoms: C_13  and  C_14
REMARK                            x       y       z     vdW  Elec       q    Type
REMARK                         _______ _______ _______ _____ _____    ______ ____
ROOT
ATOM      1  C   UNL     1       6.252   4.456  15.548  0.00  0.00    +0.000 A 
ATOM      2  C   UNL     1       7.043   4.796  16.650  0.00  0.00    +0.000 A 
ATOM      3  C   UNL     1       6.551   4.609  17.943  0.00  0.00    +0.000 A 
ATOM      4  C   UNL     1       5.274   4.062  18.157  0.00  0.00    +0.000 A 
ATOM      5  C   UNL     1       4.492   3.714  17.044  0.00  0.00    +0.000 A 
ATOM      6  C   UNL     1       4.980   3.907  15.748  0.00  0.00    +0.000 A 
ENDROOT
BRANCH   1   8
ATOM      7  O   UNL     1       6.380   3.988  13.225  0.00  0.00    +0.000 OA
ATOM      8  C   UNL     1       6.791   4.643  14.174  0.00  0.00    +0.000 C 
ATOM      9  N   UNL     1       7.791   5.582  14.055  0.00  0.00    +0.000 N 
ATOM     10  H   UNL     1       8.390   5.825  14.836  0.00  0.00    +0.000 HD
BRANCH   9  11
ATOM     11  O   UNL     1       8.370   5.698  12.768  0.00  0.00    +0.000 OA
ATOM     12  H   UNL     1       8.113   4.848  12.348  0.00  0.00    +0.000 HD
ENDBRANCH   9  11
ENDBRANCH   1   8
BRANCH   4  13
ATOM     13  C   UNL     1       4.763   3.858  19.569  0.00  0.00    +0.000 C 
BRANCH  13  14
ATOM     14  C   UNL     1       3.609   4.776  19.725  0.00  0.00    +0.000 A 
ATOM     15  N   UNL     1       2.530   4.460  20.458  0.00  0.00    +0.000 NA
ATOM     16  O   UNL     1       1.760   5.623  20.403  0.00  0.00    +0.000 OA
ATOM     17  C   UNL     1       2.447   6.515  19.627  0.00  0.00    +0.000 A 
ATOM     18  N   UNL     1       3.568   6.020  19.143  0.00  0.00    +0.000 NA
BRANCH  17  19
ATOM     19  C   UNL     1       1.898   7.858  19.514  0.00  0.00    +0.000 A 
ATOM     20  C   UNL     1       1.277   8.499  20.598  0.00  0.00    +0.000 A 
ATOM     21  C   UNL     1       0.802   9.808  20.478  0.00  0.00    +0.000 A 
ATOM     22  C   UNL     1       0.936  10.490  19.272  0.00  0.00    +0.000 A 
ATOM     23  C   UNL     1       1.548   9.868  18.185  0.00  0.00    +0.000 A 
ATOM     24  C   UNL     1       2.027   8.563  18.305  0.00  0.00    +0.000 A 
ENDBRANCH  17  19
ENDBRANCH  13  14
ENDBRANCH   4  13
TORSDOF 5
ENDMDL
MODEL 4
REMARK VINA RESULT:      -8.0      0.508      1.546
REMARK  Name = 
REMARK  5 active torsions:
REMARK  status: ('A' for Active; 'I' for Inactive)
REMARK    1  A    between atoms: C_2  and  C_5
REMARK    2  A    between atoms: N_3  and  O_4
REMARK    3  A    between atoms: C_8  and  C_9
REMARK    4  A    between atoms: C_9  and  C_10
REMARK    5  A    between atoms: C_13  and  C_14
REMARK                            x       y       z     vdW  Elec       q    Type
REMARK                         _______ _______ _______ _____ _____    ______ ____
ROOT
ATOM      1  C   UNL     1       6.389   4.529  15.561  0.00  0.00    +0.000 A 
ATOM      2  C   UNL     1       7.119   4.848  16.710  0.00  0.00    +0.000 A 
ATOM      3  C   UNL     1       6.568   4.608  17.971  0.00  0.00    +0.000 A 
ATOM      4  C   UNL     1       5.295   4.030  18.105  0.00  0.00    +0.000 A 
ATOM      5  C   UNL     1       4.575   3.703  16.944  0.00  0.00    +0.000 A 
ATOM      6  C   UNL     1       5.121   3.948  15.681  0.00  0.00    +0.000 A 
ENDROOT
BRANCH   1   8
ATOM      7  O   UNL     1       6.593   4.190  13.221  0.00  0.00    +0.000 OA
ATOM      8  C   UNL     1       6.990   4.772  14.221  0.00  0.00    +0.000 C 
ATOM      9  N   UNL     1       8.030   5.674  14.196  0.00  0.00    +0.000 N 
ATOM     10  H   UNL     1       8.606   5.848  15.012  0.00  0.00    +0.000 HD
BRANCH   9  11
ATOM     11  O   UNL     1       8.665   5.840  12.942  0.00  0.00    +0.000 OA
ATOM     12  H   UNL     1       8.013   6.388  12.452  0.00  0.00    +0.000 HD
ENDBRANCH   9  11
ENDBRANCH   1   8
BRANCH   4  13
ATOM     13  C   UNL     1       4.721   3.768  19.483  0.00  0.00    +0.000 C 
BRANCH  13  14
ATOM     14  C   UNL     1       3.551   4.670  19.618  0.00  0.00    +0.000 A 
ATOM     15  N   UNL     1       2.365   4.247  20.081  0.00  0.00    +0.000 NA
ATOM     16  O   UNL     1       1.608   5.419  20.125  0.00  0.00    +0.000 OA
ATOM     17  C   UNL     1       2.413   6.426  19.667  0.00  0.00    +0.000 A 
ATOM     18  N   UNL     1       3.602   6.004  19.293  0.00  0.00    +0.000 NA
BRANCH  17  19
ATOM     19  C   UNL     1       1.882   7.780  19.729  0.00  0.00    +0.000 A 
ATOM     20  C   UNL     1       1.832   8.609  18.597  0.00  0.00    +0.000 A 
ATOM     21  C   UNL     1       1.272   9.888  18.672  0.00  0.00    +0.000 A 
ATOM     22  C   UNL     1       0.761  10.355  19.880  0.00  0.00    +0.000 A 
ATOM     23  C   UNL     1       0.804   9.546  21.013  0.00  0.00    +0.000 A 
ATOM     24  C   UNL     1       1.359   8.267  20.939  0.00  0.00    +0.000 A 
ENDBRANCH  17  19
ENDBRANCH  13  14
ENDBRANCH   4  13
TORSDOF 5
ENDMDL
MODEL 5
REMARK VINA RESULT:      -8.0      2.785      7.705
REMARK  Name = 
REMARK  5 active torsions:
REMARK  status: ('A' for Active; 'I' for Inactive)
REMARK    1  A    between atoms: C_2  and  C_5
REMARK    2  A    between atoms: N_3  and  O_4
REMARK    3  A    between atoms: C_8  and  C_9
REMARK    4  A    between atoms: C_9  and  C_10
REMARK    5  A    between atoms: C_13  and  C_14
REMARK                            x       y       z     vdW  Elec       q    Type
REMARK                         _______ _______ _______ _____ _____    ______ ____
ROOT
ATOM      1  C   UNL     1       3.178   3.979  19.468  0.00  0.00    +0.000 A 
ATOM      2  C   UNL     1       2.551   5.070  18.859  0.00  0.00    +0.000 A 
ATOM      3  C   UNL     1       3.313   6.007  18.157  0.00  0.00    +0.000 A 
ATOM      4  C   UNL     1       4.705   5.859  18.035  0.00  0.00    +0.000 A 
ATOM      5  C   UNL     1       5.324   4.754  18.641  0.00  0.00    +0.000 A 
ATOM      6  C   UNL     1       4.564   3.819  19.350  0.00  0.00    +0.000 A 
ENDROOT
BRANCH   1   8
ATOM      7  O   UNL     1       1.797   2.056  19.621  0.00  0.00    +0.000 OA
ATOM      8  C   UNL     1       2.357   2.977  20.200  0.00  0.00    +0.000 C 
ATOM      9  N   UNL     1       2.258   3.175  21.559  0.00  0.00    +0.000 N 
ATOM     10  H   UNL     1       2.364   4.094  21.974  0.00  0.00    +0.000 HD
BRANCH   9  11
ATOM     11  O   UNL     1       1.404   2.279  22.246  0.00  0.00    +0.000 OA
ATOM     12  H   UNL     1       1.857   2.185  23.112  0.00  0.00    +0.000 HD
ENDBRANCH   9  11
ENDBRANCH   1   8
BRANCH   4  13
ATOM     13  C   UNL     1       5.511   6.881  17.259  0.00  0.00    +0.000 C 
BRANCH  13  14
ATOM     14  C   UNL     1       6.127   6.145  16.128  0.00  0.00    +0.000 A 
ATOM     15  N   UNL     1       7.449   5.933  16.040  0.00  0.00    +0.000 NA
ATOM     16  O   UNL     1       7.566   5.142  14.896  0.00  0.00    +0.000 OA
ATOM     17  C   UNL     1       6.302   4.973  14.402  0.00  0.00    +0.000 A 
ATOM     18  N   UNL     1       5.387   5.617  15.097  0.00  0.00    +0.000 NA
BRANCH  17  19
ATOM     19  C   UNL     1       6.148   4.078  13.264  0.00  0.00    +0.000 A 
ATOM     20  C   UNL     1       7.254   3.536  12.591  0.00  0.00    +0.000 A 
ATOM     21  C   UNL     1       7.079   2.640  11.534  0.00  0.00    +0.000 A 
ATOM     22  C   UNL     1       5.796   2.278  11.132  0.00  0.00    +0.000 A 
ATOM     23  C   UNL     1       4.686   2.807  11.788  0.00  0.00    +0.000 A 
ATOM     24  C   UNL     1       4.860   3.700  12.847  0.00  0.00    +0.000 A 
ENDBRANCH  17  19
ENDBRANCH  13  14
ENDBRANCH   4  13
TORSDOF 5
ENDMDL
MODEL 6
REMARK VINA RESULT:      -8.0      0.509      1.143
REMARK  Name = 
REMARK  5 active torsions:
REMARK  status: ('A' for Active; 'I' for Inactive)
REMARK    1  A    between atoms: C_2  and  C_5
REMARK    2  A    between atoms: N_3  and  O_4
REMARK    3  A    between atoms: C_8  and  C_9
REMARK    4  A    between atoms: C_9  and  C_10
REMARK    5  A    between atoms: C_13  and  C_14
REMARK                            x       y       z     vdW  Elec       q    Type
REMARK                         _______ _______ _______ _____ _____    ______ ____
ROOT
ATOM      1  C   UNL     1       6.361   4.436  15.509  0.00  0.00    +0.000 A 
ATOM      2  C   UNL     1       5.033   4.046  15.711  0.00  0.00    +0.000 A 
ATOM      3  C   UNL     1       4.551   3.869  17.010  0.00  0.00    +0.000 A 
ATOM      4  C   UNL     1       5.377   4.097  18.124  0.00  0.00    +0.000 A 
ATOM      5  C   UNL     1       6.706   4.498  17.910  0.00  0.00    +0.000 A 
ATOM      6  C   UNL     1       7.193   4.669  16.610  0.00  0.00    +0.000 A 
ENDROOT
BRANCH   1   8
ATOM      7  O   UNL     1       6.463   3.959  13.187  0.00  0.00    +0.000 OA
ATOM      8  C   UNL     1       6.862   4.639  14.122  0.00  0.00    +0.000 C 
ATOM      9  N   UNL     1       7.814   5.623  13.977  0.00  0.00    +0.000 N 
ATOM     10  H   UNL     1       8.417   5.900  14.744  0.00  0.00    +0.000 HD
BRANCH   9  11
ATOM     11  O   UNL     1       8.360   5.758  12.678  0.00  0.00    +0.000 OA
ATOM     12  H   UNL     1       7.739   6.393  12.258  0.00  0.00    +0.000 HD
ENDBRANCH   9  11
ENDBRANCH   1   8
BRANCH   4  13
ATOM     13  C   UNL     1       4.831   3.909  19.524  0.00  0.00    +0.000 C 
BRANCH  13  14
ATOM     14  C   UNL     1       3.635   4.782  19.618  0.00  0.00    +0.000 A 
ATOM     15  N   UNL     1       2.449   4.336  20.060  0.00  0.00    +0.000 NA
ATOM     16  O   UNL     1       1.661   5.488  20.067  0.00  0.00    +0.000 OA
ATOM     17  C   UNL     1       2.450   6.508  19.612  0.00  0.00    +0.000 A 
ATOM     18  N   UNL     1       3.659   6.112  19.272  0.00  0.00    +0.000 NA
BRANCH  17  19
ATOM     19  C   UNL     1       1.883   7.849  19.640  0.00  0.00    +0.000 A 
ATOM     20  C   UNL     1       1.826   8.653  18.490  0.00  0.00    +0.000 A 
ATOM     21  C   UNL     1       1.231   9.917  18.532  0.00  0.00    +0.000 A 
ATOM     22  C   UNL     1       0.693  10.395  19.724  0.00  0.00    +0.000 A 
ATOM     23  C   UNL     1       0.742   9.610  20.874  0.00  0.00    +0.000 A 
ATOM     24  C   UNL     1       1.332   8.346  20.833  0.00  0.00    +0.000 A 
ENDBRANCH  17  19
ENDBRANCH  13  14
ENDBRANCH   4  13
TORSDOF 5
ENDMDL
MODEL 7
REMARK VINA RESULT:      -8.0      4.611      6.618
REMARK  Name = 
REMARK  5 active torsions:
REMARK  status: ('A' for Active; 'I' for Inactive)
REMARK    1  A    between atoms: C_2  and  C_5
REMARK    2  A    between atoms: N_3  and  O_4
REMARK    3  A    between atoms: C_8  and  C_9
REMARK    4  A    between atoms: C_9  and  C_10
REMARK    5  A    between atoms: C_13  and  C_14
REMARK                            x       y       z     vdW  Elec       q    Type
REMARK                         _______ _______ _______ _____ _____    ______ ____
ROOT
ATOM      1  C   UNL     1       3.196   4.709  17.891  0.00  0.00    +0.000 A 
ATOM      2  C   UNL     1       3.422   6.089  17.859  0.00  0.00    +0.000 A 
ATOM      3  C   UNL     1       4.613   6.586  17.325  0.00  0.00    +0.000 A 
ATOM      4  C   UNL     1       5.585   5.719  16.798  0.00  0.00    +0.000 A 
ATOM      5  C   UNL     1       5.344   4.335  16.825  0.00  0.00    +0.000 A 
ATOM      6  C   UNL     1       4.156   3.835  17.365  0.00  0.00    +0.000 A 
ENDROOT
BRANCH   1   8
ATOM      7  O   UNL     1       1.013   3.795  17.723  0.00  0.00    +0.000 OA
ATOM      8  C   UNL     1       1.918   4.189  18.446  0.00  0.00    +0.000 C 
ATOM      9  N   UNL     1       1.822   4.204  19.820  0.00  0.00    +0.000 N 
ATOM     10  H   UNL     1       2.353   4.858  20.385  0.00  0.00    +0.000 HD
BRANCH   9  11
ATOM     11  O   UNL     1       0.574   3.797  20.350  0.00  0.00    +0.000 OA
ATOM     12  H   UNL     1       0.207   3.254  19.618  0.00  0.00    +0.000 HD
ENDBRANCH   9  11
ENDBRANCH   1   8
BRANCH   4  13
ATOM     13  C   UNL     1       6.865   6.280  16.213  0.00  0.00    +0.000 C 
BRANCH  13  14
ATOM     14  C   UNL     1       7.501   7.068  17.297  0.00  0.00    +0.000 A 
ATOM     15  N   UNL     1       7.931   6.508  18.438  0.00  0.00    +0.000 NA
ATOM     16  O   UNL     1       8.527   7.578  19.108  0.00  0.00    +0.000 OA
ATOM     17  C   UNL     1       8.379   8.677  18.308  0.00  0.00    +0.000 A 
ATOM     18  N   UNL     1       7.706   8.424  17.205  0.00  0.00    +0.000 NA
BRANCH  17  19
ATOM     19  C   UNL     1       9.028   9.906  18.741  0.00  0.00    +0.000 A 
ATOM     20  C   UNL     1       9.147  10.244  20.099  0.00  0.00    +0.000 A 
ATOM     21  C   UNL     1       9.819  11.405  20.491  0.00  0.00    +0.000 A 
ATOM     22  C   UNL     1      10.375  12.245  19.530  0.00  0.00    +0.000 A 
ATOM     23  C   UNL     1      10.266  11.926  18.178  0.00  0.00    +0.000 A 
ATOM     24  C   UNL     1       9.598  10.765  17.786  0.00  0.00    +0.000 A 
ENDBRANCH  17  19
ENDBRANCH  13  14
ENDBRANCH   4  13
TORSDOF 5
ENDMDL
MODEL 8
REMARK VINA RESULT:      -7.9      0.701      1.701
REMARK  Name = 
REMARK  5 active torsions:
REMARK  status: ('A' for Active; 'I' for Inactive)
REMARK    1  A    between atoms: C_2  and  C_5
REMARK    2  A    between atoms: N_3  and  O_4
REMARK    3  A    between atoms: C_8  and  C_9
REMARK    4  A    between atoms: C_9  and  C_10
REMARK    5  A    between atoms: C_13  and  C_14
REMARK                            x       y       z     vdW  Elec       q    Type
REMARK                         _______ _______ _______ _____ _____    ______ ____
ROOT
ATOM      1  C   UNL     1       6.122   4.306  15.951  0.00  0.00    +0.000 A 
ATOM      2  C   UNL     1       6.750   4.744  17.121  0.00  0.00    +0.000 A 
ATOM      3  C   UNL     1       6.131   4.546  18.358  0.00  0.00    +0.000 A 
ATOM      4  C   UNL     1       4.891   3.892  18.447  0.00  0.00    +0.000 A 
ATOM      5  C   UNL     1       4.274   3.446  17.267  0.00  0.00    +0.000 A 
ATOM      6  C   UNL     1       4.888   3.649  16.028  0.00  0.00    +0.000 A 
ENDROOT
BRANCH   1   8
ATOM      7  O   UNL     1       7.662   5.355  14.483  0.00  0.00    +0.000 OA
ATOM      8  C   UNL     1       6.796   4.506  14.640  0.00  0.00    +0.000 C 
ATOM      9  N   UNL     1       6.361   3.687  13.622  0.00  0.00    +0.000 N 
ATOM     10  H   UNL     1       5.429   3.287  13.619  0.00  0.00    +0.000 HD
BRANCH   9  11
ATOM     11  O   UNL     1       6.933   3.935  12.351  0.00  0.00    +0.000 OA
ATOM     12  H   UNL     1       7.643   4.578  12.567  0.00  0.00    +0.000 HD
ENDBRANCH   9  11
ENDBRANCH   1   8
BRANCH   4  13
ATOM     13  C   UNL     1       4.242   3.678  19.800  0.00  0.00    +0.000 C 
BRANCH  13  14
ATOM     14  C   UNL     1       3.256   4.774  19.961  0.00  0.00    +0.000 A 
ATOM     15  N   UNL     1       2.312   4.761  20.914  0.00  0.00    +0.000 NA
ATOM     16  O   UNL     1       1.687   5.999  20.756  0.00  0.00    +0.000 OA
ATOM     17  C   UNL     1       2.308   6.623  19.710  0.00  0.00    +0.000 A 
ATOM     18  N   UNL     1       3.246   5.886  19.153  0.00  0.00    +0.000 NA
BRANCH  17  19
ATOM     19  C   UNL     1       1.907   7.993  19.422  0.00  0.00    +0.000 A 
ATOM     20  C   UNL     1       2.144   8.588  18.173  0.00  0.00    +0.000 A 
ATOM     21  C   UNL     1       1.705   9.888  17.905  0.00  0.00    +0.000 A 
ATOM     22  C   UNL     1       1.028  10.610  18.885  0.00  0.00    +0.000 A 
ATOM     23  C   UNL     1       0.786  10.035  20.130  0.00  0.00    +0.000 A 
ATOM     24  C   UNL     1       1.220   8.736  20.398  0.00  0.00    +0.000 A 
ENDBRANCH  17  19
ENDBRANCH  13  14
ENDBRANCH   4  13
TORSDOF 5
ENDMDL
MODEL 9
REMARK VINA RESULT:      -7.8      4.570      6.775
REMARK  Name = 
REMARK  5 active torsions:
REMARK  status: ('A' for Active; 'I' for Inactive)
REMARK    1  A    between atoms: C_2  and  C_5
REMARK    2  A    between atoms: N_3  and  O_4
REMARK    3  A    between atoms: C_8  and  C_9
REMARK    4  A    between atoms: C_9  and  C_10
REMARK    5  A    between atoms: C_13  and  C_14
REMARK                            x       y       z     vdW  Elec       q    Type
REMARK                         _______ _______ _______ _____ _____    ______ ____
ROOT
ATOM      1  C   UNL     1       3.083   4.993  18.930  0.00  0.00    +0.000 A 
ATOM      2  C   UNL     1       3.138   6.258  18.335  0.00  0.00    +0.000 A 
ATOM      3  C   UNL     1       4.263   6.631  17.597  0.00  0.00    +0.000 A 
ATOM      4  C   UNL     1       5.340   5.745  17.425  0.00  0.00    +0.000 A 
ATOM      5  C   UNL     1       5.271   4.473  18.017  0.00  0.00    +0.000 A 
ATOM      6  C   UNL     1       4.148   4.100  18.762  0.00  0.00    +0.000 A 
ENDROOT
BRANCH   1   8
ATOM      7  O   UNL     1       1.429   5.291  20.604  0.00  0.00    +0.000 OA
ATOM      8  C   UNL     1       1.874   4.597  19.700  0.00  0.00    +0.000 C 
ATOM      9  N   UNL     1       1.311   3.393  19.337  0.00  0.00    +0.000 N 
ATOM     10  H   UNL     1       1.858   2.658  18.902  0.00  0.00    +0.000 HD
BRANCH   9  11
ATOM     11  O   UNL     1       0.216   2.969  20.127  0.00  0.00    +0.000 OA
ATOM     12  H   UNL     1       0.447   2.033  20.314  0.00  0.00    +0.000 HD
ENDBRANCH   9  11
ENDBRANCH   1   8
BRANCH   4  13
ATOM     13  C   UNL     1       6.547   6.166  16.611  0.00  0.00    +0.000 C 
BRANCH  13  14
ATOM     14  C   UNL     1       7.317   7.098  17.472  0.00  0.00    +0.000 A 
ATOM     15  N   UNL     1       8.056   6.677  18.508  0.00  0.00    +0.000 NA
ATOM     16  O   UNL     1       8.662   7.851  18.961  0.00  0.00    +0.000 OA
ATOM     17  C   UNL     1       8.209   8.862  18.159  0.00  0.00    +0.000 A 
ATOM     18  N   UNL     1       7.338   8.456  17.260  0.00  0.00    +0.000 NA
BRANCH  17  19
ATOM     19  C   UNL     1       8.794  10.181  18.360  0.00  0.00    +0.000 A 
ATOM     20  C   UNL     1       8.416  11.285  17.580  0.00  0.00    +0.000 A 
ATOM     21  C   UNL     1       8.955  12.551  17.826  0.00  0.00    +0.000 A 
ATOM     22  C   UNL     1       9.883  12.726  18.849  0.00  0.00    +0.000 A 
ATOM     23  C   UNL     1      10.270  11.641  19.632  0.00  0.00    +0.000 A 
ATOM     24  C   UNL     1       9.729  10.377  19.390  0.00  0.00    +0.000 A 
ENDBRANCH  17  19
ENDBRANCH  13  14
ENDBRANCH   4  13
TORSDOF 5
ENDMDL
