MODEL 1
REMARK VINA RESULT:      -8.3      0.000      0.000
REMARK  Name = 
REMARK  5 active torsions:
REMARK  status: ('A' for Active; 'I' for Inactive)
REMARK    1  A    between atoms: C_1  and  O_2
REMARK    2  A    between atoms: O_2  and  C_3
REMARK    3  A    between atoms: C_6  and  C_7
REMARK    4  A    between atoms: N_8  and  N_9
REMARK    5  A    between atoms: C_10  and  C_11
REMARK                            x       y       z     vdW  Elec       q    Type
REMARK                         _______ _______ _______ _____ _____    ______ ____
ROOT
ATOM      1  N   UNL     1       0.653   9.840  20.645  0.00  0.00    +0.000 N 
ATOM      2  C   UNL     1       0.349  10.928  19.844  0.00  0.00    +0.000 A 
ATOM      3  N   UNL     1       0.690  12.106  20.299  0.00  0.00    +0.000 NA
ATOM      4  C   UNL     1       0.065  12.336  21.553  0.00  0.00    +0.000 A 
ATOM      5  C   UNL     1      -0.309  13.641  21.868  0.00  0.00    +0.000 A 
ATOM      6  C   UNL     1      -1.412  13.841  22.693  0.00  0.00    +0.000 A 
ATOM      7 CL   UNL     1      -1.987  15.439  22.968  0.00  0.00    +0.000 Cl
ATOM      8  C   UNL     1      -2.115  12.750  23.215  0.00  0.00    +0.000 A 
ATOM      9  C   UNL     1      -1.634  11.446  23.032  0.00  0.00    +0.000 A 
ATOM     10  C   UNL     1      -0.501  11.247  22.243  0.00  0.00    +0.000 A 
ATOM     11  C   UNL     1      -0.004   9.873  21.881  0.00  0.00    +0.000 A 
ATOM     12  O   UNL     1      -0.289   8.924  22.600  0.00  0.00    +0.000 OA
ENDROOT
BRANCH   2  13
ATOM     13  C   UNL     1      -0.964  10.772  19.064  0.00  0.00    +0.000 A 
ATOM     14  C   UNL     1      -0.970   9.959  17.918  0.00  0.00    +0.000 A 
ATOM     15  C   UNL     1      -1.997  10.065  16.974  0.00  0.00    +0.000 A 
ATOM     16  C   UNL     1      -3.042  10.965  17.173  0.00  0.00    +0.000 A 
ATOM     17  C   UNL     1      -3.069  11.750  18.320  0.00  0.00    +0.000 A 
ATOM     18  C   UNL     1      -2.042  11.652  19.258  0.00  0.00    +0.000 A 
ENDBRANCH   2  13
BRANCH   1  20
ATOM     19  C   UNL     1       1.720   7.752  20.638  0.00  0.00    +0.000 C 
ATOM     20  N   UNL     1       1.130   8.713  19.995  0.00  0.00    +0.000 NA
BRANCH  19  24
ATOM     21  C   UNL     1       3.001   4.225  18.524  0.00  0.00    +0.000 A 
ATOM     22  C   UNL     1       3.081   5.476  17.912  0.00  0.00    +0.000 A 
ATOM     23  C   UNL     1       2.680   6.634  18.591  0.00  0.00    +0.000 A 
ATOM     24  C   UNL     1       2.171   6.543  19.891  0.00  0.00    +0.000 A 
ATOM     25  C   UNL     1       2.064   5.288  20.500  0.00  0.00    +0.000 A 
ATOM     26  C   UNL     1       2.480   4.133  19.820  0.00  0.00    +0.000 A 
BRANCH  21  28
ATOM     27  C   UNL     1       3.241   1.874  18.300  0.00  0.00    +0.000 C 
ATOM     28  O   UNL     1       3.414   3.178  17.756  0.00  0.00    +0.000 OA
ENDBRANCH  21  28
ENDBRANCH  19  24
ENDBRANCH   1  20
TORSDOF 4
ENDMDL
MODEL 2
REMARK VINA RESULT:      -8.0      0.452      1.012
REMARK  Name = 
REMARK  5 active torsions:
REMARK  status: ('A' for Active; 'I' for Inactive)
REMARK    1  A    between atoms: C_1  and  O_2
REMARK    2  A    between atoms: O_2  and  C_3
REMARK    3  A    between atoms: C_6  and  C_7
REMARK    4  A    between atoms: N_8  and  N_9
REMARK    5  A    between atoms: C_10  and  C_11
REMARK                            x       y       z     vdW  Elec       q    Type
REMARK                         _______ _______ _______ _____ _____    ______ ____
ROOT
ATOM      1  N   UNL     1       0.573  10.110  20.826  0.00  0.00    +0.000 N 
ATOM      2  C   UNL     1       0.421  11.278  20.097  0.00  0.00    +0.000 A 
ATOM      3  N   UNL     1       0.743  12.392  20.702  0.00  0.00    +0.000 NA
ATOM      4  C   UNL     1      -0.036  12.542  21.879  0.00  0.00    +0.000 A 
ATOM      5  C   UNL     1      -0.398  13.832  22.264  0.00  0.00    +0.000 A 
ATOM      6  C   UNL     1      -1.594  14.013  22.954  0.00  0.00    +0.000 A 
ATOM      7 CL   UNL     1      -2.139  15.608  23.301  0.00  0.00    +0.000 Cl
ATOM      8  C   UNL     1      -2.401  12.917  23.276  0.00  0.00    +0.000 A 
ATOM      9  C   UNL     1      -1.950  11.611  23.036  0.00  0.00    +0.000 A 
ATOM     10  C   UNL     1      -0.730  11.426  22.386  0.00  0.00    +0.000 A 
ATOM     11  C   UNL     1      -0.241  10.066  21.964  0.00  0.00    +0.000 A 
ATOM     12  O   UNL     1      -0.655   9.074  22.547  0.00  0.00    +0.000 OA
ENDROOT
BRANCH   2  13
ATOM     13  C   UNL     1      -0.781  11.256  19.143  0.00  0.00    +0.000 A 
ATOM     14  C   UNL     1      -1.853  12.129  19.395  0.00  0.00    +0.000 A 
ATOM     15  C   UNL     1      -3.105  11.908  18.810  0.00  0.00    +0.000 A 
ATOM     16  C   UNL     1      -3.295  10.830  17.949  0.00  0.00    +0.000 A 
ATOM     17  C   UNL     1      -2.235   9.979  17.660  0.00  0.00    +0.000 A 
ATOM     18  C   UNL     1      -0.988  10.192  18.249  0.00  0.00    +0.000 A 
ENDBRANCH   2  13
BRANCH   1  20
ATOM     19  C   UNL     1       1.536   7.972  20.761  0.00  0.00    +0.000 C 
ATOM     20  N   UNL     1       1.090   9.021  20.141  0.00  0.00    +0.000 NA
BRANCH  19  24
ATOM     21  C   UNL     1       2.961   4.587  18.511  0.00  0.00    +0.000 A 
ATOM     22  C   UNL     1       3.060   5.873  17.980  0.00  0.00    +0.000 A 
ATOM     23  C   UNL     1       2.612   6.985  18.704  0.00  0.00    +0.000 A 
ATOM     24  C   UNL     1       2.038   6.813  19.968  0.00  0.00    +0.000 A 
ATOM     25  C   UNL     1       1.913   5.524  20.495  0.00  0.00    +0.000 A 
ATOM     26  C   UNL     1       2.375   4.414  19.770  0.00  0.00    +0.000 A 
BRANCH  21  28
ATOM     27  C   UNL     1       2.799   2.319  17.832  0.00  0.00    +0.000 C 
ATOM     28  O   UNL     1       3.424   3.591  17.705  0.00  0.00    +0.000 OA
ENDBRANCH  21  28
ENDBRANCH  19  24
ENDBRANCH   1  20
TORSDOF 4
ENDMDL
MODEL 3
REMARK VINA RESULT:      -7.9      0.669      1.445
REMARK  Name = 
REMARK  5 active torsions:
REMARK  status: ('A' for Active; 'I' for Inactive)
REMARK    1  A    between atoms: C_1  and  O_2
REMARK    2  A    between atoms: O_2  and  C_3
REMARK    3  A    between atoms: C_6  and  C_7
REMARK    4  A    between atoms: N_8  and  N_9
REMARK    5  A    between atoms: C_10  and  C_11
REMARK                            x       y       z     vdW  Elec       q    Type
REMARK                         _______ _______ _______ _____ _____    ______ ____
ROOT
ATOM      1  N   UNL     1       0.518  10.085  20.800  0.00  0.00    +0.000 N 
ATOM      2  C   UNL     1       0.367  11.254  20.074  0.00  0.00    +0.000 A 
ATOM      3  N   UNL     1       0.710  12.365  20.672  0.00  0.00    +0.000 NA
ATOM      4  C   UNL     1      -0.048  12.524  21.862  0.00  0.00    +0.000 A 
ATOM      5  C   UNL     1      -0.391  13.817  22.252  0.00  0.00    +0.000 A 
ATOM      6  C   UNL     1      -1.573  14.011  22.961  0.00  0.00    +0.000 A 
ATOM      7 CL   UNL     1      -2.096  15.612  23.315  0.00  0.00    +0.000 Cl
ATOM      8  C   UNL     1      -2.386  12.924  23.296  0.00  0.00    +0.000 A 
ATOM      9  C   UNL     1      -1.953  11.614  23.049  0.00  0.00    +0.000 A 
ATOM     10  C   UNL     1      -0.746  11.416  22.380  0.00  0.00    +0.000 A 
ATOM     11  C   UNL     1      -0.278  10.050  21.951  0.00  0.00    +0.000 A 
ATOM     12  O   UNL     1      -0.694   9.062  22.542  0.00  0.00    +0.000 OA
ENDROOT
BRANCH   2  13
ATOM     13  C   UNL     1      -0.851  11.244  19.139  0.00  0.00    +0.000 A 
ATOM     14  C   UNL     1      -1.907  12.133  19.403  0.00  0.00    +0.000 A 
ATOM     15  C   UNL     1      -3.171  11.927  18.840  0.00  0.00    +0.000 A 
ATOM     16  C   UNL     1      -3.389  10.848  17.986  0.00  0.00    +0.000 A 
ATOM     17  C   UNL     1      -2.345   9.981  17.685  0.00  0.00    +0.000 A 
ATOM     18  C   UNL     1      -1.087  10.180  18.253  0.00  0.00    +0.000 A 
ENDBRANCH   2  13
BRANCH   1  20
ATOM     19  C   UNL     1       1.641   8.028  20.710  0.00  0.00    +0.000 C 
ATOM     20  N   UNL     1       1.012   8.990  20.108  0.00  0.00    +0.000 NA
BRANCH  19  24
ATOM     21  C   UNL     1       3.020   4.676  18.383  0.00  0.00    +0.000 A 
ATOM     22  C   UNL     1       2.413   4.467  19.621  0.00  0.00    +0.000 A 
ATOM     23  C   UNL     1       1.949   5.545  20.384  0.00  0.00    +0.000 A 
ATOM     24  C   UNL     1       2.109   6.854  19.917  0.00  0.00    +0.000 A 
ATOM     25  C   UNL     1       2.739   7.072  18.688  0.00  0.00    +0.000 A 
ATOM     26  C   UNL     1       3.192   5.986  17.922  0.00  0.00    +0.000 A 
BRANCH  21  28
ATOM     27  C   UNL     1       4.551   3.676  16.869  0.00  0.00    +0.000 C 
ATOM     28  O   UNL     1       3.435   3.546  17.744  0.00  0.00    +0.000 OA
ENDBRANCH  21  28
ENDBRANCH  19  24
ENDBRANCH   1  20
TORSDOF 4
ENDMDL
MODEL 4
REMARK VINA RESULT:      -7.9      0.729      1.167
REMARK  Name = 
REMARK  5 active torsions:
REMARK  status: ('A' for Active; 'I' for Inactive)
REMARK    1  A    between atoms: C_1  and  O_2
REMARK    2  A    between atoms: O_2  and  C_3
REMARK    3  A    between atoms: C_6  and  C_7
REMARK    4  A    between atoms: N_8  and  N_9
REMARK    5  A    between atoms: C_10  and  C_11
REMARK                            x       y       z     vdW  Elec       q    Type
REMARK                         _______ _______ _______ _____ _____    ______ ____
ROOT
ATOM      1  N   UNL     1       0.692  10.280  21.316  0.00  0.00    +0.000 N 
ATOM      2  C   UNL     1       0.367  11.300  20.437  0.00  0.00    +0.000 A 
ATOM      3  N   UNL     1       0.484  12.522  20.889  0.00  0.00    +0.000 NA
ATOM      4  C   UNL     1      -0.339  12.692  22.033  0.00  0.00    +0.000 A 
ATOM      5  C   UNL     1      -0.919  13.942  22.241  0.00  0.00    +0.000 A 
ATOM      6  C   UNL     1      -2.146  14.009  22.897  0.00  0.00    +0.000 A 
ATOM      7 CL   UNL     1      -2.956  15.522  23.026  0.00  0.00    +0.000 Cl
ATOM      8  C   UNL     1      -2.768  12.846  23.359  0.00  0.00    +0.000 A 
ATOM      9  C   UNL     1      -2.102  11.614  23.296  0.00  0.00    +0.000 A 
ATOM     10  C   UNL     1      -0.851  11.552  22.681  0.00  0.00    +0.000 A 
ATOM     11  C   UNL     1      -0.133  10.250  22.446  0.00  0.00    +0.000 A 
ATOM     12  O   UNL     1      -0.393   9.287  23.156  0.00  0.00    +0.000 OA
ENDROOT
BRANCH   2  13
ATOM     13  C   UNL     1      -0.789  10.953  19.490  0.00  0.00    +0.000 A 
ATOM     14  C   UNL     1      -0.534  10.095  18.407  0.00  0.00    +0.000 A 
ATOM     15  C   UNL     1      -1.415  10.035  17.321  0.00  0.00    +0.000 A 
ATOM     16  C   UNL     1      -2.572  10.812  17.314  0.00  0.00    +0.000 A 
ATOM     17  C   UNL     1      -2.857  11.638  18.395  0.00  0.00    +0.000 A 
ATOM     18  C   UNL     1      -1.976  11.705  19.474  0.00  0.00    +0.000 A 
ENDBRANCH   2  13
BRANCH   1  20
ATOM     19  C   UNL     1       0.986   7.989  20.911  0.00  0.00    +0.000 C 
ATOM     20  N   UNL     1       1.398   9.212  20.784  0.00  0.00    +0.000 NA
BRANCH  19  24
ATOM     21  C   UNL     1       3.261   4.845  19.043  0.00  0.00    +0.000 A 
ATOM     22  C   UNL     1       2.551   4.593  20.216  0.00  0.00    +0.000 A 
ATOM     23  C   UNL     1       1.797   5.601  20.829  0.00  0.00    +0.000 A 
ATOM     24  C   UNL     1       1.765   6.886  20.277  0.00  0.00    +0.000 A 
ATOM     25  C   UNL     1       2.496   7.151  19.114  0.00  0.00    +0.000 A 
ATOM     26  C   UNL     1       3.240   6.133  18.497  0.00  0.00    +0.000 A 
BRANCH  21  28
ATOM     27  C   UNL     1       3.546   2.489  18.974  0.00  0.00    +0.000 C 
ATOM     28  O   UNL     1       3.961   3.784  18.551  0.00  0.00    +0.000 OA
ENDBRANCH  21  28
ENDBRANCH  19  24
ENDBRANCH   1  20
TORSDOF 4
ENDMDL
MODEL 5
REMARK VINA RESULT:      -7.8      1.016      1.358
REMARK  Name = 
REMARK  5 active torsions:
REMARK  status: ('A' for Active; 'I' for Inactive)
REMARK    1  A    between atoms: C_1  and  O_2
REMARK    2  A    between atoms: O_2  and  C_3
REMARK    3  A    between atoms: C_6  and  C_7
REMARK    4  A    between atoms: N_8  and  N_9
REMARK    5  A    between atoms: C_10  and  C_11
REMARK                            x       y       z     vdW  Elec       q    Type
REMARK                         _______ _______ _______ _____ _____    ______ ____
ROOT
ATOM      1  N   UNL     1       0.950   9.818  20.195  0.00  0.00    +0.000 N 
ATOM      2  C   UNL     1       0.545  10.777  19.281  0.00  0.00    +0.000 A 
ATOM      3  N   UNL     1       0.931  12.005  19.511  0.00  0.00    +0.000 NA
ATOM      4  C   UNL     1       0.459  12.428  20.782  0.00  0.00    +0.000 A 
ATOM      5  C   UNL     1       0.118  13.770  20.939  0.00  0.00    +0.000 A 
ATOM      6  C   UNL     1      -0.880  14.104  21.851  0.00  0.00    +0.000 A 
ATOM      7 CL   UNL     1      -1.428  15.732  21.950  0.00  0.00    +0.000 Cl
ATOM      8  C   UNL     1      -1.508  13.112  22.611  0.00  0.00    +0.000 A 
ATOM      9  C   UNL     1      -1.045  11.789  22.570  0.00  0.00    +0.000 A 
ATOM     10  C   UNL     1      -0.013  11.461  21.690  0.00  0.00    +0.000 A 
ATOM     11  C   UNL     1       0.446  10.043  21.481  0.00  0.00    +0.000 A 
ATOM     12  O   UNL     1       0.255   9.216  22.363  0.00  0.00    +0.000 OA
ENDROOT
BRANCH   2  13
ATOM     13  C   UNL     1      -0.851  10.521  18.697  0.00  0.00    +0.000 A 
ATOM     14  C   UNL     1      -0.958   9.734  17.538  0.00  0.00    +0.000 A 
ATOM     15  C   UNL     1      -2.119   9.768  16.757  0.00  0.00    +0.000 A 
ATOM     16  C   UNL     1      -3.195  10.568  17.136  0.00  0.00    +0.000 A 
ATOM     17  C   UNL     1      -3.118  11.324  18.300  0.00  0.00    +0.000 A 
ATOM     18  C   UNL     1      -1.958  11.298  19.075  0.00  0.00    +0.000 A 
ENDBRANCH   2  13
BRANCH   1  20
ATOM     19  C   UNL     1       2.251   8.522  18.737  0.00  0.00    +0.000 C 
ATOM     20  N   UNL     1       1.352   8.600  19.670  0.00  0.00    +0.000 NA
BRANCH  19  24
ATOM     21  C   UNL     1       3.533   4.670  17.298  0.00  0.00    +0.000 A 
ATOM     22  C   UNL     1       2.308   4.801  17.950  0.00  0.00    +0.000 A 
ATOM     23  C   UNL     1       1.871   6.049  18.413  0.00  0.00    +0.000 A 
ATOM     24  C   UNL     1       2.676   7.181  18.243  0.00  0.00    +0.000 A 
ATOM     25  C   UNL     1       3.918   7.050  17.612  0.00  0.00    +0.000 A 
ATOM     26  C   UNL     1       4.344   5.800  17.139  0.00  0.00    +0.000 A 
BRANCH  21  28
ATOM     27  C   UNL     1       3.437   2.344  17.761  0.00  0.00    +0.000 C 
ATOM     28  O   UNL     1       3.846   3.404  16.903  0.00  0.00    +0.000 OA
ENDBRANCH  21  28
ENDBRANCH  19  24
ENDBRANCH   1  20
TORSDOF 4
ENDMDL
MODEL 6
REMARK VINA RESULT:      -7.8      1.386      1.858
REMARK  Name = 
REMARK  5 active torsions:
REMARK  status: ('A' for Active; 'I' for Inactive)
REMARK    1  A    between atoms: C_1  and  O_2
REMARK    2  A    between atoms: O_2  and  C_3
REMARK    3  A    between atoms: C_6  and  C_7
REMARK    4  A    between atoms: N_8  and  N_9
REMARK    5  A    between atoms: C_10  and  C_11
REMARK                            x       y       z     vdW  Elec       q    Type
REMARK                         _______ _______ _______ _____ _____    ______ ____
ROOT
ATOM      1  N   UNL     1       0.923  10.323  20.123  0.00  0.00    +0.000 N 
ATOM      2  C   UNL     1       0.543  10.926  18.936  0.00  0.00    +0.000 A 
ATOM      3  N   UNL     1       1.089  12.084  18.665  0.00  0.00    +0.000 NA
ATOM      4  C   UNL     1       0.797  13.007  19.703  0.00  0.00    +0.000 A 
ATOM      5  C   UNL     1       0.630  14.347  19.359  0.00  0.00    +0.000 A 
ATOM      6  C   UNL     1      -0.227  15.133  20.124  0.00  0.00    +0.000 A 
ATOM      7 CL   UNL     1      -0.571  16.745  19.627  0.00  0.00    +0.000 Cl
ATOM      8  C   UNL     1      -0.887  14.592  21.232  0.00  0.00    +0.000 A 
ATOM      9  C   UNL     1      -0.586  13.295  21.671  0.00  0.00    +0.000 A 
ATOM     10  C   UNL     1       0.309  12.522  20.932  0.00  0.00    +0.000 A 
ATOM     11  C   UNL     1       0.578  11.075  21.252  0.00  0.00    +0.000 A 
ATOM     12  O   UNL     1       0.382  10.668  22.389  0.00  0.00    +0.000 OA
ENDROOT
BRANCH   2  13
ATOM     13  C   UNL     1      -0.924  10.677  18.560  0.00  0.00    +0.000 A 
ATOM     14  C   UNL     1      -1.206   9.786  17.511  0.00  0.00    +0.000 A 
ATOM     15  C   UNL     1      -2.456   9.796  16.882  0.00  0.00    +0.000 A 
ATOM     16  C   UNL     1      -3.447  10.677  17.309  0.00  0.00    +0.000 A 
ATOM     17  C   UNL     1      -3.197  11.539  18.370  0.00  0.00    +0.000 A 
ATOM     18  C   UNL     1      -1.948  11.537  18.992  0.00  0.00    +0.000 A 
ENDBRANCH   2  13
BRANCH   1  20
ATOM     19  C   UNL     1       1.957   8.414  19.238  0.00  0.00    +0.000 C 
ATOM     20  N   UNL     1       1.128   8.953  20.078  0.00  0.00    +0.000 NA
BRANCH  19  24
ATOM     21  C   UNL     1       2.599   4.155  19.270  0.00  0.00    +0.000 A 
ATOM     22  C   UNL     1       2.085   4.794  20.398  0.00  0.00    +0.000 A 
ATOM     23  C   UNL     1       1.859   6.176  20.399  0.00  0.00    +0.000 A 
ATOM     24  C   UNL     1       2.169   6.938  19.267  0.00  0.00    +0.000 A 
ATOM     25  C   UNL     1       2.709   6.306  18.142  0.00  0.00    +0.000 A 
ATOM     26  C   UNL     1       2.921   4.919  18.142  0.00  0.00    +0.000 A 
BRANCH  21  28
ATOM     27  C   UNL     1       2.892   2.059  18.195  0.00  0.00    +0.000 C 
ATOM     28  O   UNL     1       2.779   2.810  19.399  0.00  0.00    +0.000 OA
ENDBRANCH  21  28
ENDBRANCH  19  24
ENDBRANCH   1  20
TORSDOF 4
ENDMDL
MODEL 7
REMARK VINA RESULT:      -7.7      3.969      8.713
REMARK  Name = 
REMARK  5 active torsions:
REMARK  status: ('A' for Active; 'I' for Inactive)
REMARK    1  A    between atoms: C_1  and  O_2
REMARK    2  A    between atoms: O_2  and  C_3
REMARK    3  A    between atoms: C_6  and  C_7
REMARK    4  A    between atoms: N_8  and  N_9
REMARK    5  A    between atoms: C_10  and  C_11
REMARK                            x       y       z     vdW  Elec       q    Type
REMARK                         _______ _______ _______ _____ _____    ______ ____
ROOT
ATOM      1  N   UNL     1       2.844   7.383  19.309  0.00  0.00    +0.000 N 
ATOM      2  C   UNL     1       3.235   6.096  19.637  0.00  0.00    +0.000 A 
ATOM      3  N   UNL     1       4.516   5.840  19.581  0.00  0.00    +0.000 NA
ATOM      4  C   UNL     1       5.000   6.091  18.271  0.00  0.00    +0.000 A 
ATOM      5  C   UNL     1       6.031   5.286  17.788  0.00  0.00    +0.000 A 
ATOM      6  C   UNL     1       6.106   5.045  16.419  0.00  0.00    +0.000 A 
ATOM      7 CL   UNL     1       7.271   3.930  15.818  0.00  0.00    +0.000 Cl
ATOM      8  C   UNL     1       5.179   5.621  15.545  0.00  0.00    +0.000 A 
ATOM      9  C   UNL     1       4.251   6.560  16.015  0.00  0.00    +0.000 A 
ATOM     10  C   UNL     1       4.205   6.839  17.381  0.00  0.00    +0.000 A 
ATOM     11  C   UNL     1       3.149   7.725  17.986  0.00  0.00    +0.000 A 
ATOM     12  O   UNL     1       2.593   8.559  17.284  0.00  0.00    +0.000 OA
ENDROOT
BRANCH   2  13
ATOM     13  C   UNL     1       2.231   5.018  19.206  0.00  0.00    +0.000 A 
ATOM     14  C   UNL     1       1.354   4.494  20.171  0.00  0.00    +0.000 A 
ATOM     15  C   UNL     1       0.690   3.282  19.950  0.00  0.00    +0.000 A 
ATOM     16  C   UNL     1       0.875   2.591  18.755  0.00  0.00    +0.000 A 
ATOM     17  C   UNL     1       1.710   3.114  17.775  0.00  0.00    +0.000 A 
ATOM     18  C   UNL     1       2.379   4.318  17.997  0.00  0.00    +0.000 A 
ENDBRANCH   2  13
BRANCH   1  20
ATOM     19  C   UNL     1       1.878   9.191  20.448  0.00  0.00    +0.000 C 
ATOM     20  N   UNL     1       1.849   7.942  20.096  0.00  0.00    +0.000 NA
BRANCH  19  24
ATOM     21  C   UNL     1      -1.345  10.763  22.833  0.00  0.00    +0.000 A 
ATOM     22  C   UNL     1      -1.076  11.304  21.576  0.00  0.00    +0.000 A 
ATOM     23  C   UNL     1      -0.039  10.796  20.784  0.00  0.00    +0.000 A 
ATOM     24  C   UNL     1       0.756   9.747  21.258  0.00  0.00    +0.000 A 
ATOM     25  C   UNL     1       0.506   9.218  22.529  0.00  0.00    +0.000 A 
ATOM     26  C   UNL     1      -0.542   9.723  23.313  0.00  0.00    +0.000 A 
BRANCH  21  28
ATOM     27  C   UNL     1      -2.742  12.664  23.099  0.00  0.00    +0.000 C 
ATOM     28  O   UNL     1      -2.373  11.351  23.507  0.00  0.00    +0.000 OA
ENDBRANCH  21  28
ENDBRANCH  19  24
ENDBRANCH   1  20
TORSDOF 4
ENDMDL
MODEL 8
REMARK VINA RESULT:      -7.7      1.262      1.437
REMARK  Name = 
REMARK  5 active torsions:
REMARK  status: ('A' for Active; 'I' for Inactive)
REMARK    1  A    between atoms: C_1  and  O_2
REMARK    2  A    between atoms: O_2  and  C_3
REMARK    3  A    between atoms: C_6  and  C_7
REMARK    4  A    between atoms: N_8  and  N_9
REMARK    5  A    between atoms: C_10  and  C_11
REMARK                            x       y       z     vdW  Elec       q    Type
REMARK                         _______ _______ _______ _____ _____    ______ ____
ROOT
ATOM      1  N   UNL     1       1.003  10.219  19.847  0.00  0.00    +0.000 N 
ATOM      2  C   UNL     1       0.469  11.053  18.878  0.00  0.00    +0.000 A 
ATOM      3  N   UNL     1       0.829  12.309  18.923  0.00  0.00    +0.000 NA
ATOM      4  C   UNL     1       0.477  12.867  20.180  0.00  0.00    +0.000 A 
ATOM      5  C   UNL     1       0.104  14.208  20.219  0.00  0.00    +0.000 A 
ATOM      6  C   UNL     1      -0.805  14.622  21.190  0.00  0.00    +0.000 A 
ATOM      7 CL   UNL     1      -1.401  16.236  21.160  0.00  0.00    +0.000 Cl
ATOM      8  C   UNL     1      -1.311  13.711  22.122  0.00  0.00    +0.000 A 
ATOM      9  C   UNL     1      -0.804  12.405  22.183  0.00  0.00    +0.000 A 
ATOM     10  C   UNL     1       0.141  12.002  21.240  0.00  0.00    +0.000 A 
ATOM     11  C   UNL     1       0.630  10.581  21.146  0.00  0.00    +0.000 A 
ATOM     12  O   UNL     1       0.565   9.860  22.133  0.00  0.00    +0.000 OA
ENDROOT
BRANCH   2  13
ATOM     13  C   UNL     1      -0.970  10.693  18.483  0.00  0.00    +0.000 A 
ATOM     14  C   UNL     1      -1.169   9.772  17.441  0.00  0.00    +0.000 A 
ATOM     15  C   UNL     1      -2.406   9.684  16.793  0.00  0.00    +0.000 A 
ATOM     16  C   UNL     1      -3.466  10.495  17.193  0.00  0.00    +0.000 A 
ATOM     17  C   UNL     1      -3.296  11.386  18.247  0.00  0.00    +0.000 A 
ATOM     18  C   UNL     1      -2.061  11.481  18.888  0.00  0.00    +0.000 A 
ENDBRANCH   2  13
BRANCH   1  20
ATOM     19  C   UNL     1       2.299   8.796  18.507  0.00  0.00    +0.000 C 
ATOM     20  N   UNL     1       1.395   8.958  19.424  0.00  0.00    +0.000 NA
BRANCH  19  24
ATOM     21  C   UNL     1       3.435   4.786  17.420  0.00  0.00    +0.000 A 
ATOM     22  C   UNL     1       4.286   5.854  17.142  0.00  0.00    +0.000 A 
ATOM     23  C   UNL     1       3.937   7.163  17.500  0.00  0.00    +0.000 A 
ATOM     24  C   UNL     1       2.711   7.414  18.126  0.00  0.00    +0.000 A 
ATOM     25  C   UNL     1       1.842   6.349  18.385  0.00  0.00    +0.000 A 
ATOM     26  C   UNL     1       2.203   5.039  18.035  0.00  0.00    +0.000 A 
BRANCH  21  28
ATOM     27  C   UNL     1       3.587   2.457  17.857  0.00  0.00    +0.000 C 
ATOM     28  O   UNL     1       3.886   3.566  17.015  0.00  0.00    +0.000 OA
ENDBRANCH  21  28
ENDBRANCH  19  24
ENDBRANCH   1  20
TORSDOF 4
ENDMDL
MODEL 9
REMARK VINA RESULT:      -7.6      1.225      1.682
REMARK  Name = 
REMARK  5 active torsions:
REMARK  status: ('A' for Active; 'I' for Inactive)
REMARK    1  A    between atoms: C_1  and  O_2
REMARK    2  A    between atoms: O_2  and  C_3
REMARK    3  A    between atoms: C_6  and  C_7
REMARK    4  A    between atoms: N_8  and  N_9
REMARK    5  A    between atoms: C_10  and  C_11
REMARK                            x       y       z     vdW  Elec       q    Type
REMARK                         _______ _______ _______ _____ _____    ______ ____
ROOT
ATOM      1  N   UNL     1       0.334  10.993  20.642  0.00  0.00    +0.000 N 
ATOM      2  C   UNL     1      -0.372  11.896  19.864  0.00  0.00    +0.000 A 
ATOM      3  N   UNL     1      -0.428  13.128  20.301  0.00  0.00    +0.000 NA
ATOM      4  C   UNL     1      -1.018  13.154  21.592  0.00  0.00    +0.000 A 
ATOM      5  C   UNL     1      -1.795  14.258  21.933  0.00  0.00    +0.000 A 
ATOM      6  C   UNL     1      -2.849  14.084  22.827  0.00  0.00    +0.000 A 
ATOM      7 CL   UNL     1      -3.919  15.394  23.143  0.00  0.00    +0.000 Cl
ATOM      8  C   UNL     1      -3.102  12.829  23.389  0.00  0.00    +0.000 A 
ATOM      9  C   UNL     1      -2.216  11.764  23.173  0.00  0.00    +0.000 A 
ATOM     10  C   UNL     1      -1.133  11.950  22.314  0.00  0.00    +0.000 A 
ATOM     11  C   UNL     1      -0.218  10.822  21.916  0.00  0.00    +0.000 A 
ATOM     12  O   UNL     1      -0.117   9.847  22.649  0.00  0.00    +0.000 OA
ENDROOT
BRANCH   2  13
ATOM     13  C   UNL     1      -1.596  11.285  19.169  0.00  0.00    +0.000 A 
ATOM     14  C   UNL     1      -1.390  10.280  18.209  0.00  0.00    +0.000 A 
ATOM     15  C   UNL     1      -2.394   9.953  17.291  0.00  0.00    +0.000 A 
ATOM     16  C   UNL     1      -3.624  10.606  17.336  0.00  0.00    +0.000 A 
ATOM     17  C   UNL     1      -3.857  11.577  18.303  0.00  0.00    +0.000 A 
ATOM     18  C   UNL     1      -2.853  11.911  19.213  0.00  0.00    +0.000 A 
ENDBRANCH   2  13
BRANCH   1  20
ATOM     19  C   UNL     1       1.141   8.824  20.266  0.00  0.00    +0.000 C 
ATOM     20  N   UNL     1       1.128  10.084  19.960  0.00  0.00    +0.000 NA
BRANCH  19  24
ATOM     21  C   UNL     1       3.580   6.161  17.919  0.00  0.00    +0.000 A 
ATOM     22  C   UNL     1       3.098   5.755  19.163  0.00  0.00    +0.000 A 
ATOM     23  C   UNL     1       2.293   6.605  19.933  0.00  0.00    +0.000 A 
ATOM     24  C   UNL     1       1.981   7.886  19.467  0.00  0.00    +0.000 A 
ATOM     25  C   UNL     1       2.483   8.308  18.232  0.00  0.00    +0.000 A 
ATOM     26  C   UNL     1       3.278   7.448  17.459  0.00  0.00    +0.000 A 
BRANCH  21  28
ATOM     27  C   UNL     1       3.865   3.912  17.214  0.00  0.00    +0.000 C 
ATOM     28  O   UNL     1       4.357   5.247  17.273  0.00  0.00    +0.000 OA
ENDBRANCH  21  28
ENDBRANCH  19  24
ENDBRANCH   1  20
TORSDOF 4
ENDMDL
