MODEL 1
REMARK VINA RESULT:      -7.5      0.000      0.000
REMARK  Name = 
REMARK  8 active torsions:
REMARK  status: ('A' for Active; 'I' for Inactive)
REMARK    1  A    between atoms: C_1  and  C_2
REMARK    2  A    between atoms: C_2  and  O_3
REMARK    3  A    between atoms: O_3  and  C_4
REMARK    4  A    between atoms: C_4  and  C_6
REMARK    5  A    between atoms: C_7  and  N_8
REMARK    6  A    between atoms: N_11  and  C_12
REMARK    7  A    between atoms: C_21  and  C_22
REMARK    8  A    between atoms: C_24  and  C_25
REMARK                            x       y       z     vdW  Elec       q    Type
REMARK                         _______ _______ _______ _____ _____    ______ ____
ROOT
ATOM      1  C   UNL     1       3.148   4.556  18.847  0.00  0.00    +0.000 A 
ATOM      2  C   UNL     1       3.500   5.917  19.030  0.00  0.00    +0.000 A 
ATOM      3  C   UNL     1       4.872   6.205  19.129  0.00  0.00    +0.000 A 
ATOM      4  C   UNL     1       5.820   5.190  19.067  0.00  0.00    +0.000 A 
ATOM      5  C   UNL     1       7.285   5.493  19.135  0.00  0.00    +0.000 C 
ATOM      6  N   UNL     1       5.479   3.895  18.931  0.00  0.00    +0.000 NA
ATOM      7  C   UNL     1       4.162   3.584  18.815  0.00  0.00    +0.000 A 
ATOM      8  C   UNL     1       3.896   2.117  18.632  0.00  0.00    +0.000 C 
ENDROOT
BRANCH   2   9
ATOM      9  N   UNL     1       2.578   6.953  19.084  0.00  0.00    +0.000 N 
ATOM     10  C   UNL     1       1.692   7.167  20.246  0.00  0.00    +0.000 C 
ATOM     11  C   UNL     1       1.533   8.684  20.500  0.00  0.00    +0.000 C 
ATOM     12  N   UNL     1       1.061   9.358  19.279  0.00  0.00    +0.000 N 
ATOM     13  C   UNL     1       1.915   9.143  18.096  0.00  0.00    +0.000 C 
ATOM     14  C   UNL     1       2.097   7.622  17.853  0.00  0.00    +0.000 C 
BRANCH  12  15
ATOM     15  C   UNL     1      -0.012  10.219  19.274  0.00  0.00    +0.000 A 
ATOM     16  C   UNL     1      -0.257  11.110  20.328  0.00  0.00    +0.000 A 
ATOM     17  C   UNL     1      -1.330  12.006  20.302  0.00  0.00    +0.000 A 
ATOM     18  C   UNL     1      -2.190  12.031  19.209  0.00  0.00    +0.000 A 
ATOM     19  C   UNL     1      -1.974  11.157  18.149  0.00  0.00    +0.000 A 
ATOM     20  C   UNL     1      -0.899  10.265  18.189  0.00  0.00    +0.000 A 
ENDBRANCH  12  15
ENDBRANCH   2   9
BRANCH   1  21
ATOM     21  C   UNL     1       1.749   4.171  18.527  0.00  0.00    +0.000 C 
ATOM     22  O   UNL     1       1.308   4.026  17.397  0.00  0.00    +0.000 OA
BRANCH  21  23
ATOM     23  O   UNL     1       1.023   4.045  19.669  0.00  0.00    +0.000 OA
BRANCH  23  25
ATOM     24  C   UNL     1       1.550   2.678  21.640  0.00  0.00    +0.000 C 
ATOM     25  C   UNL     1       0.959   2.729  20.240  0.00  0.00    +0.000 C 
ENDBRANCH  23  25
ENDBRANCH  21  23
ENDBRANCH   1  21
TORSDOF 5
ENDMDL
MODEL 2
REMARK VINA RESULT:      -7.2      0.614      1.132
REMARK  Name = 
REMARK  8 active torsions:
REMARK  status: ('A' for Active; 'I' for Inactive)
REMARK    1  A    between atoms: C_1  and  C_2
REMARK    2  A    between atoms: C_2  and  O_3
REMARK    3  A    between atoms: O_3  and  C_4
REMARK    4  A    between atoms: C_4  and  C_6
REMARK    5  A    between atoms: C_7  and  N_8
REMARK    6  A    between atoms: N_11  and  C_12
REMARK    7  A    between atoms: C_21  and  C_22
REMARK    8  A    between atoms: C_24  and  C_25
REMARK                            x       y       z     vdW  Elec       q    Type
REMARK                         _______ _______ _______ _____ _____    ______ ____
ROOT
ATOM      1  C   UNL     1       3.115   4.740  18.318  0.00  0.00    +0.000 A 
ATOM      2  C   UNL     1       3.492   6.100  18.449  0.00  0.00    +0.000 A 
ATOM      3  C   UNL     1       4.855   6.394  18.280  0.00  0.00    +0.000 A 
ATOM      4  C   UNL     1       5.775   5.387  18.017  0.00  0.00    +0.000 A 
ATOM      5  C   UNL     1       7.224   5.697  17.800  0.00  0.00    +0.000 C 
ATOM      6  N   UNL     1       5.418   4.092  17.930  0.00  0.00    +0.000 NA
ATOM      7  C   UNL     1       4.105   3.774  18.071  0.00  0.00    +0.000 A 
ATOM      8  C   UNL     1       3.813   2.309  17.920  0.00  0.00    +0.000 C 
ENDROOT
BRANCH   2   9
ATOM      9  N   UNL     1       2.596   7.130  18.700  0.00  0.00    +0.000 N 
ATOM     10  C   UNL     1       1.844   7.237  19.968  0.00  0.00    +0.000 C 
ATOM     11  C   UNL     1       1.735   8.723  20.378  0.00  0.00    +0.000 C 
ATOM     12  N   UNL     1       1.142   9.511  19.283  0.00  0.00    +0.000 N 
ATOM     13  C   UNL     1       1.859   9.406  17.999  0.00  0.00    +0.000 C 
ATOM     14  C   UNL     1       1.993   7.914  17.598  0.00  0.00    +0.000 C 
BRANCH  12  15
ATOM     15  C   UNL     1       0.087  10.372  19.477  0.00  0.00    +0.000 A 
ATOM     16  C   UNL     1      -0.900  10.572  18.502  0.00  0.00    +0.000 A 
ATOM     17  C   UNL     1      -1.989  11.423  18.719  0.00  0.00    +0.000 A 
ATOM     18  C   UNL     1      -2.114  12.099  19.928  0.00  0.00    +0.000 A 
ATOM     19  C   UNL     1      -1.150  11.922  20.913  0.00  0.00    +0.000 A 
ATOM     20  C   UNL     1      -0.065  11.071  20.684  0.00  0.00    +0.000 A 
ENDBRANCH  12  15
ENDBRANCH   2   9
BRANCH   1  21
ATOM     21  C   UNL     1       1.681   4.352  18.273  0.00  0.00    +0.000 C 
ATOM     22  O   UNL     1       1.026   4.223  17.250  0.00  0.00    +0.000 OA
BRANCH  21  23
ATOM     23  O   UNL     1       1.195   4.203  19.533  0.00  0.00    +0.000 OA
BRANCH  23  25
ATOM     24  C   UNL     1       1.508   2.657  21.417  0.00  0.00    +0.000 C 
ATOM     25  C   UNL     1       1.016   2.854  19.991  0.00  0.00    +0.000 C 
ENDBRANCH  23  25
ENDBRANCH  21  23
ENDBRANCH   1  21
TORSDOF 5
ENDMDL
MODEL 3
REMARK VINA RESULT:      -7.0      3.619      7.198
REMARK  Name = 
REMARK  8 active torsions:
REMARK  status: ('A' for Active; 'I' for Inactive)
REMARK    1  A    between atoms: C_1  and  C_2
REMARK    2  A    between atoms: C_2  and  O_3
REMARK    3  A    between atoms: O_3  and  C_4
REMARK    4  A    between atoms: C_4  and  C_6
REMARK    5  A    between atoms: C_7  and  N_8
REMARK    6  A    between atoms: N_11  and  C_12
REMARK    7  A    between atoms: C_21  and  C_22
REMARK    8  A    between atoms: C_24  and  C_25
REMARK                            x       y       z     vdW  Elec       q    Type
REMARK                         _______ _______ _______ _____ _____    ______ ____
ROOT
ATOM      1  C   UNL     1       3.151   4.357  19.750  0.00  0.00    +0.000 A 
ATOM      2  C   UNL     1       3.348   5.376  18.784  0.00  0.00    +0.000 A 
ATOM      3  C   UNL     1       2.765   6.624  19.058  0.00  0.00    +0.000 A 
ATOM      4  C   UNL     1       2.022   6.826  20.215  0.00  0.00    +0.000 A 
ATOM      5  C   UNL     1       1.428   8.164  20.532  0.00  0.00    +0.000 C 
ATOM      6  N   UNL     1       1.806   5.846  21.112  0.00  0.00    +0.000 NA
ATOM      7  C   UNL     1       2.369   4.631  20.886  0.00  0.00    +0.000 A 
ATOM      8  C   UNL     1       2.096   3.622  21.965  0.00  0.00    +0.000 C 
ENDROOT
BRANCH   2   9
ATOM      9  N   UNL     1       4.094   5.208  17.627  0.00  0.00    +0.000 N 
ATOM     10  C   UNL     1       4.874   6.307  17.019  0.00  0.00    +0.000 C 
ATOM     11  C   UNL     1       6.204   5.749  16.463  0.00  0.00    +0.000 C 
ATOM     12  N   UNL     1       5.939   4.640  15.529  0.00  0.00    +0.000 N 
ATOM     13  C   UNL     1       5.143   3.539  16.102  0.00  0.00    +0.000 C 
ATOM     14  C   UNL     1       3.820   4.099  16.685  0.00  0.00    +0.000 C 
BRANCH  12  15
ATOM     15  C   UNL     1       6.496   4.579  14.273  0.00  0.00    +0.000 A 
ATOM     16  C   UNL     1       6.044   3.678  13.300  0.00  0.00    +0.000 A 
ATOM     17  C   UNL     1       6.592   3.645  12.013  0.00  0.00    +0.000 A 
ATOM     18  C   UNL     1       7.615   4.522  11.670  0.00  0.00    +0.000 A 
ATOM     19  C   UNL     1       8.086   5.427  12.615  0.00  0.00    +0.000 A 
ATOM     20  C   UNL     1       7.531   5.448  13.897  0.00  0.00    +0.000 A 
ENDBRANCH  12  15
ENDBRANCH   2   9
BRANCH   1  21
ATOM     21  C   UNL     1       3.891   3.072  19.658  0.00  0.00    +0.000 C 
ATOM     22  O   UNL     1       5.108   2.970  19.617  0.00  0.00    +0.000 OA
BRANCH  21  23
ATOM     23  O   UNL     1       3.019   2.032  19.585  0.00  0.00    +0.000 OA
BRANCH  23  25
ATOM     24  C   UNL     1       0.732   2.199  18.703  0.00  0.00    +0.000 C 
ATOM     25  C   UNL     1       2.205   1.967  18.403  0.00  0.00    +0.000 C 
ENDBRANCH  23  25
ENDBRANCH  21  23
ENDBRANCH   1  21
TORSDOF 5
ENDMDL
MODEL 4
REMARK VINA RESULT:      -7.0      1.163      1.608
REMARK  Name = 
REMARK  8 active torsions:
REMARK  status: ('A' for Active; 'I' for Inactive)
REMARK    1  A    between atoms: C_1  and  C_2
REMARK    2  A    between atoms: C_2  and  O_3
REMARK    3  A    between atoms: O_3  and  C_4
REMARK    4  A    between atoms: C_4  and  C_6
REMARK    5  A    between atoms: C_7  and  N_8
REMARK    6  A    between atoms: N_11  and  C_12
REMARK    7  A    between atoms: C_21  and  C_22
REMARK    8  A    between atoms: C_24  and  C_25
REMARK                            x       y       z     vdW  Elec       q    Type
REMARK                         _______ _______ _______ _____ _____    ______ ____
ROOT
ATOM      1  C   UNL     1       3.144   4.469  18.255  0.00  0.00    +0.000 A 
ATOM      2  C   UNL     1       3.751   5.744  18.367  0.00  0.00    +0.000 A 
ATOM      3  C   UNL     1       5.137   5.803  18.144  0.00  0.00    +0.000 A 
ATOM      4  C   UNL     1       5.861   4.655  17.847  0.00  0.00    +0.000 A 
ATOM      5  C   UNL     1       7.333   4.715  17.572  0.00  0.00    +0.000 C 
ATOM      6  N   UNL     1       5.287   3.440  17.779  0.00  0.00    +0.000 NA
ATOM      7  C   UNL     1       3.945   3.349  17.972  0.00  0.00    +0.000 A 
ATOM      8  C   UNL     1       3.402   1.956  17.838  0.00  0.00    +0.000 C 
ENDROOT
BRANCH   2   9
ATOM      9  N   UNL     1       3.054   6.910  18.650  0.00  0.00    +0.000 N 
ATOM     10  C   UNL     1       3.034   8.067  17.730  0.00  0.00    +0.000 C 
ATOM     11  C   UNL     1       1.628   8.707  17.738  0.00  0.00    +0.000 C 
ATOM     12  N   UNL     1       1.234   9.055  19.115  0.00  0.00    +0.000 N 
ATOM     13  C   UNL     1       1.266   7.924  20.061  0.00  0.00    +0.000 C 
ATOM     14  C   UNL     1       2.669   7.262  20.036  0.00  0.00    +0.000 C 
BRANCH  12  15
ATOM     15  C   UNL     1       0.754  10.297  19.458  0.00  0.00    +0.000 A 
ATOM     16  C   UNL     1      -0.253  10.468  20.417  0.00  0.00    +0.000 A 
ATOM     17  C   UNL     1      -0.713  11.737  20.786  0.00  0.00    +0.000 A 
ATOM     18  C   UNL     1      -0.168  12.873  20.197  0.00  0.00    +0.000 A 
ATOM     19  C   UNL     1       0.832  12.735  19.241  0.00  0.00    +0.000 A 
ATOM     20  C   UNL     1       1.281  11.462  18.880  0.00  0.00    +0.000 A 
ENDBRANCH  12  15
ENDBRANCH   2   9
BRANCH   1  21
ATOM     21  C   UNL     1       1.665   4.330  18.269  0.00  0.00    +0.000 C 
ATOM     22  O   UNL     1       0.961   4.267  17.272  0.00  0.00    +0.000 OA
BRANCH  21  23
ATOM     23  O   UNL     1       1.204   4.326  19.547  0.00  0.00    +0.000 OA
BRANCH  23  25
ATOM     24  C   UNL     1       1.562   2.797  21.436  0.00  0.00    +0.000 C 
ATOM     25  C   UNL     1       0.876   3.043  20.102  0.00  0.00    +0.000 C 
ENDBRANCH  23  25
ENDBRANCH  21  23
ENDBRANCH   1  21
TORSDOF 5
ENDMDL
MODEL 5
REMARK VINA RESULT:      -6.9      0.915      1.654
REMARK  Name = 
REMARK  8 active torsions:
REMARK  status: ('A' for Active; 'I' for Inactive)
REMARK    1  A    between atoms: C_1  and  C_2
REMARK    2  A    between atoms: C_2  and  O_3
REMARK    3  A    between atoms: O_3  and  C_4
REMARK    4  A    between atoms: C_4  and  C_6
REMARK    5  A    between atoms: C_7  and  N_8
REMARK    6  A    between atoms: N_11  and  C_12
REMARK    7  A    between atoms: C_21  and  C_22
REMARK    8  A    between atoms: C_24  and  C_25
REMARK                            x       y       z     vdW  Elec       q    Type
REMARK                         _______ _______ _______ _____ _____    ______ ____
ROOT
ATOM      1  C   UNL     1       3.485   4.610  19.713  0.00  0.00    +0.000 A 
ATOM      2  C   UNL     1       3.715   5.909  19.196  0.00  0.00    +0.000 A 
ATOM      3  C   UNL     1       4.997   6.163  18.680  0.00  0.00    +0.000 A 
ATOM      4  C   UNL     1       5.982   5.182  18.701  0.00  0.00    +0.000 A 
ATOM      5  C   UNL     1       7.339   5.434  18.120  0.00  0.00    +0.000 C 
ATOM      6  N   UNL     1       5.770   3.962  19.227  0.00  0.00    +0.000 NA
ATOM      7  C   UNL     1       4.536   3.677  19.719  0.00  0.00    +0.000 A 
ATOM      8  C   UNL     1       4.399   2.278  20.248  0.00  0.00    +0.000 C 
ENDROOT
BRANCH   2   9
ATOM      9  N   UNL     1       2.749   6.904  19.150  0.00  0.00    +0.000 N 
ATOM     10  C   UNL     1       1.863   7.204  20.293  0.00  0.00    +0.000 C 
ATOM     11  C   UNL     1       1.640   8.731  20.386  0.00  0.00    +0.000 C 
ATOM     12  N   UNL     1       1.130   9.250  19.105  0.00  0.00    +0.000 N 
ATOM     13  C   UNL     1       1.984   8.947  17.942  0.00  0.00    +0.000 C 
ATOM     14  C   UNL     1       2.231   7.418  17.861  0.00  0.00    +0.000 C 
BRANCH  12  15
ATOM     15  C   UNL     1       0.021  10.059  19.022  0.00  0.00    +0.000 A 
ATOM     16  C   UNL     1      -0.833  10.040  17.911  0.00  0.00    +0.000 A 
ATOM     17  C   UNL     1      -1.979  10.840  17.847  0.00  0.00    +0.000 A 
ATOM     18  C   UNL     1      -2.297  11.685  18.905  0.00  0.00    +0.000 A 
ATOM     19  C   UNL     1      -1.468  11.726  20.020  0.00  0.00    +0.000 A 
ATOM     20  C   UNL     1      -0.325  10.923  20.071  0.00  0.00    +0.000 A 
ENDBRANCH  12  15
ENDBRANCH   2   9
BRANCH   1  21
ATOM     21  C   UNL     1       2.115   4.176  20.091  0.00  0.00    +0.000 C 
ATOM     22  O   UNL     1       1.732   3.996  21.237  0.00  0.00    +0.000 OA
BRANCH  21  23
ATOM     23  O   UNL     1       1.364   3.969  18.977  0.00  0.00    +0.000 OA
BRANCH  23  25
ATOM     24  C   UNL     1       2.158   2.101  17.593  0.00  0.00    +0.000 C 
ATOM     25  C   UNL     1       1.139   2.599  18.607  0.00  0.00    +0.000 C 
ENDBRANCH  23  25
ENDBRANCH  21  23
ENDBRANCH   1  21
TORSDOF 5
ENDMDL
MODEL 6
REMARK VINA RESULT:      -6.8      2.397      4.035
REMARK  Name = 
REMARK  8 active torsions:
REMARK  status: ('A' for Active; 'I' for Inactive)
REMARK    1  A    between atoms: C_1  and  C_2
REMARK    2  A    between atoms: C_2  and  O_3
REMARK    3  A    between atoms: O_3  and  C_4
REMARK    4  A    between atoms: C_4  and  C_6
REMARK    5  A    between atoms: C_7  and  N_8
REMARK    6  A    between atoms: N_11  and  C_12
REMARK    7  A    between atoms: C_21  and  C_22
REMARK    8  A    between atoms: C_24  and  C_25
REMARK                            x       y       z     vdW  Elec       q    Type
REMARK                         _______ _______ _______ _____ _____    ______ ____
ROOT
ATOM      1  C   UNL     1       4.052   5.457  17.196  0.00  0.00    +0.000 A 
ATOM      2  C   UNL     1       2.926   5.734  18.010  0.00  0.00    +0.000 A 
ATOM      3  C   UNL     1       2.189   4.627  18.463  0.00  0.00    +0.000 A 
ATOM      4  C   UNL     1       2.551   3.334  18.106  0.00  0.00    +0.000 A 
ATOM      5  C   UNL     1       1.792   2.147  18.614  0.00  0.00    +0.000 C 
ATOM      6  N   UNL     1       3.600   3.077  17.302  0.00  0.00    +0.000 NA
ATOM      7  C   UNL     1       4.344   4.124  16.860  0.00  0.00    +0.000 A 
ATOM      8  C   UNL     1       5.510   3.723  16.001  0.00  0.00    +0.000 C 
ENDROOT
BRANCH   2   9
ATOM      9  N   UNL     1       2.546   7.012  18.395  0.00  0.00    +0.000 N 
ATOM     10  C   UNL     1       2.601   8.167  17.474  0.00  0.00    +0.000 C 
ATOM     11  C   UNL     1       1.382   9.083  17.724  0.00  0.00    +0.000 C 
ATOM     12  N   UNL     1       1.321   9.475  19.143  0.00  0.00    +0.000 N 
ATOM     13  C   UNL     1       1.287   8.342  20.086  0.00  0.00    +0.000 C 
ATOM     14  C   UNL     1       2.496   7.406  19.821  0.00  0.00    +0.000 C 
BRANCH  12  15
ATOM     15  C   UNL     1       1.177  10.782  19.546  0.00  0.00    +0.000 A 
ATOM     16  C   UNL     1       1.635  11.856  18.770  0.00  0.00    +0.000 A 
ATOM     17  C   UNL     1       1.454  13.184  19.169  0.00  0.00    +0.000 A 
ATOM     18  C   UNL     1       0.806  13.469  20.366  0.00  0.00    +0.000 A 
ATOM     19  C   UNL     1       0.343  12.425  21.158  0.00  0.00    +0.000 A 
ATOM     20  C   UNL     1       0.531  11.102  20.749  0.00  0.00    +0.000 A 
ENDBRANCH  12  15
ENDBRANCH   2   9
BRANCH   1  21
ATOM     21  C   UNL     1       5.011   6.533  16.837  0.00  0.00    +0.000 C 
ATOM     22  O   UNL     1       5.055   7.095  15.753  0.00  0.00    +0.000 OA
BRANCH  21  23
ATOM     23  O   UNL     1       5.858   6.773  17.873  0.00  0.00    +0.000 OA
BRANCH  23  25
ATOM     24  C   UNL     1       7.888   8.149  17.737  0.00  0.00    +0.000 C 
ATOM     25  C   UNL     1       7.260   6.775  17.561  0.00  0.00    +0.000 C 
ENDBRANCH  23  25
ENDBRANCH  21  23
ENDBRANCH   1  21
TORSDOF 5
ENDMDL
MODEL 7
REMARK VINA RESULT:      -6.7      2.236      3.830
REMARK  Name = 
REMARK  8 active torsions:
REMARK  status: ('A' for Active; 'I' for Inactive)
REMARK    1  A    between atoms: C_1  and  C_2
REMARK    2  A    between atoms: C_2  and  O_3
REMARK    3  A    between atoms: O_3  and  C_4
REMARK    4  A    between atoms: C_4  and  C_6
REMARK    5  A    between atoms: C_7  and  N_8
REMARK    6  A    between atoms: N_11  and  C_12
REMARK    7  A    between atoms: C_21  and  C_22
REMARK    8  A    between atoms: C_24  and  C_25
REMARK                            x       y       z     vdW  Elec       q    Type
REMARK                         _______ _______ _______ _____ _____    ______ ____
ROOT
ATOM      1  C   UNL     1       4.489   5.318  16.997  0.00  0.00    +0.000 A 
ATOM      2  C   UNL     1       3.384   5.235  17.880  0.00  0.00    +0.000 A 
ATOM      3  C   UNL     1       3.036   3.952  18.335  0.00  0.00    +0.000 A 
ATOM      4  C   UNL     1       3.741   2.831  17.915  0.00  0.00    +0.000 A 
ATOM      5  C   UNL     1       3.400   1.464  18.424  0.00  0.00    +0.000 C 
ATOM      6  N   UNL     1       4.767   2.910  17.047  0.00  0.00    +0.000 NA
ATOM      7  C   UNL     1       5.140   4.137  16.600  0.00  0.00    +0.000 A 
ATOM      8  C   UNL     1       6.316   4.115  15.666  0.00  0.00    +0.000 C 
ENDROOT
BRANCH   2   9
ATOM      9  N   UNL     1       2.668   6.336  18.328  0.00  0.00    +0.000 N 
ATOM     10  C   UNL     1       2.005   6.370  19.648  0.00  0.00    +0.000 C 
ATOM     11  C   UNL     1       2.144   7.783  20.258  0.00  0.00    +0.000 C 
ATOM     12  N   UNL     1       1.624   8.796  19.322  0.00  0.00    +0.000 N 
ATOM     13  C   UNL     1       2.252   8.771  17.989  0.00  0.00    +0.000 C 
ATOM     14  C   UNL     1       2.137   7.347  17.384  0.00  0.00    +0.000 C 
BRANCH  12  15
ATOM     15  C   UNL     1       0.723   9.763  19.702  0.00  0.00    +0.000 A 
ATOM     16  C   UNL     1      -0.253  10.258  18.826  0.00  0.00    +0.000 A 
ATOM     17  C   UNL     1      -1.188  11.217  19.229  0.00  0.00    +0.000 A 
ATOM     18  C   UNL     1      -1.167  11.706  20.530  0.00  0.00    +0.000 A 
ATOM     19  C   UNL     1      -0.209  11.235  21.422  0.00  0.00    +0.000 A 
ATOM     20  C   UNL     1       0.721  10.278  21.007  0.00  0.00    +0.000 A 
ENDBRANCH  12  15
ENDBRANCH   2   9
BRANCH   1  21
ATOM     21  C   UNL     1       5.063   6.636  16.623  0.00  0.00    +0.000 C 
ATOM     22  O   UNL     1       4.908   7.182  15.541  0.00  0.00    +0.000 OA
BRANCH  21  23
ATOM     23  O   UNL     1       5.819   7.125  17.640  0.00  0.00    +0.000 OA
BRANCH  23  25
ATOM     24  C   UNL     1       7.844   8.515  17.707  0.00  0.00    +0.000 C 
ATOM     25  C   UNL     1       7.239   7.148  17.424  0.00  0.00    +0.000 C 
ENDBRANCH  23  25
ENDBRANCH  21  23
ENDBRANCH   1  21
TORSDOF 5
ENDMDL
MODEL 8
REMARK VINA RESULT:      -6.4      4.056      9.175
REMARK  Name = 
REMARK  8 active torsions:
REMARK  status: ('A' for Active; 'I' for Inactive)
REMARK    1  A    between atoms: C_1  and  C_2
REMARK    2  A    between atoms: C_2  and  O_3
REMARK    3  A    between atoms: O_3  and  C_4
REMARK    4  A    between atoms: C_4  and  C_6
REMARK    5  A    between atoms: C_7  and  N_8
REMARK    6  A    between atoms: N_11  and  C_12
REMARK    7  A    between atoms: C_21  and  C_22
REMARK    8  A    between atoms: C_24  and  C_25
REMARK                            x       y       z     vdW  Elec       q    Type
REMARK                         _______ _______ _______ _____ _____    ______ ____
ROOT
ATOM      1  C   UNL     1      -0.534  13.262  22.386  0.00  0.00    +0.000 A 
ATOM      2  C   UNL     1      -1.013  11.930  22.460  0.00  0.00    +0.000 A 
ATOM      3  C   UNL     1      -2.219  11.732  23.152  0.00  0.00    +0.000 A 
ATOM      4  C   UNL     1      -2.885  12.798  23.744  0.00  0.00    +0.000 A 
ATOM      5  C   UNL     1      -4.190  12.601  24.453  0.00  0.00    +0.000 C 
ATOM      6  N   UNL     1      -2.408  14.056  23.704  0.00  0.00    +0.000 NA
ATOM      7  C   UNL     1      -1.253  14.286  23.028  0.00  0.00    +0.000 A 
ATOM      8  C   UNL     1      -0.829  15.727  23.015  0.00  0.00    +0.000 C 
ENDROOT
BRANCH   2   9
ATOM      9  N   UNL     1      -0.377  10.847  21.869  0.00  0.00    +0.000 N 
ATOM     10  C   UNL     1      -0.519  10.530  20.433  0.00  0.00    +0.000 C 
ATOM     11  C   UNL     1       0.834  10.028  19.880  0.00  0.00    +0.000 C 
ATOM     12  N   UNL     1       1.320   8.889  20.680  0.00  0.00    +0.000 N 
ATOM     13  C   UNL     1       1.450   9.171  22.122  0.00  0.00    +0.000 C 
ATOM     14  C   UNL     1       0.101   9.700  22.674  0.00  0.00    +0.000 C 
BRANCH  12  15
ATOM     15  C   UNL     1       1.739   7.709  20.112  0.00  0.00    +0.000 A 
ATOM     16  C   UNL     1       1.567   6.473  20.750  0.00  0.00    +0.000 A 
ATOM     17  C   UNL     1       1.965   5.273  20.152  0.00  0.00    +0.000 A 
ATOM     18  C   UNL     1       2.548   5.284  18.890  0.00  0.00    +0.000 A 
ATOM     19  C   UNL     1       2.733   6.495  18.233  0.00  0.00    +0.000 A 
ATOM     20  C   UNL     1       2.334   7.688  18.842  0.00  0.00    +0.000 A 
ENDBRANCH  12  15
ENDBRANCH   2   9
BRANCH   1  21
ATOM     21  C   UNL     1       0.614  13.607  21.509  0.00  0.00    +0.000 C 
ATOM     22  O   UNL     1       1.762  13.768  21.895  0.00  0.00    +0.000 OA
BRANCH  21  23
ATOM     23  O   UNL     1       0.196  13.759  20.225  0.00  0.00    +0.000 OA
BRANCH  23  25
ATOM     24  C   UNL     1       1.681  13.415  18.299  0.00  0.00    +0.000 C 
ATOM     25  C   UNL     1       1.121  14.388  19.325  0.00  0.00    +0.000 C 
ENDBRANCH  23  25
ENDBRANCH  21  23
ENDBRANCH   1  21
TORSDOF 5
ENDMDL
MODEL 9
REMARK VINA RESULT:      -6.4      4.116      9.297
REMARK  Name = 
REMARK  8 active torsions:
REMARK  status: ('A' for Active; 'I' for Inactive)
REMARK    1  A    between atoms: C_1  and  C_2
REMARK    2  A    between atoms: C_2  and  O_3
REMARK    3  A    between atoms: O_3  and  C_4
REMARK    4  A    between atoms: C_4  and  C_6
REMARK    5  A    between atoms: C_7  and  N_8
REMARK    6  A    between atoms: N_11  and  C_12
REMARK    7  A    between atoms: C_21  and  C_22
REMARK    8  A    between atoms: C_24  and  C_25
REMARK                            x       y       z     vdW  Elec       q    Type
REMARK                         _______ _______ _______ _____ _____    ______ ____
ROOT
ATOM      1  C   UNL     1      -0.824  13.346  22.520  0.00  0.00    +0.000 A 
ATOM      2  C   UNL     1      -1.241  11.992  22.553  0.00  0.00    +0.000 A 
ATOM      3  C   UNL     1      -2.428  11.716  23.251  0.00  0.00    +0.000 A 
ATOM      4  C   UNL     1      -3.134  12.729  23.888  0.00  0.00    +0.000 A 
ATOM      5  C   UNL     1      -4.419  12.448  24.604  0.00  0.00    +0.000 C 
ATOM      6  N   UNL     1      -2.714  14.008  23.887  0.00  0.00    +0.000 NA
ATOM      7  C   UNL     1      -1.579  14.314  23.206  0.00  0.00    +0.000 A 
ATOM      8  C   UNL     1      -1.222  15.772  23.239  0.00  0.00    +0.000 C 
ENDROOT
BRANCH   2   9
ATOM      9  N   UNL     1      -0.565  10.961  21.917  0.00  0.00    +0.000 N 
ATOM     10  C   UNL     1      -0.661  10.727  20.461  0.00  0.00    +0.000 C 
ATOM     11  C   UNL     1       0.718  10.288  19.918  0.00  0.00    +0.000 C 
ATOM     12  N   UNL     1       1.208   9.114  20.662  0.00  0.00    +0.000 N 
ATOM     13  C   UNL     1       1.293   9.311  22.121  0.00  0.00    +0.000 C 
ATOM     14  C   UNL     1      -0.083   9.777  22.665  0.00  0.00    +0.000 C 
BRANCH  12  15
ATOM     15  C   UNL     1       1.669   7.979  20.037  0.00  0.00    +0.000 A 
ATOM     16  C   UNL     1       2.210   8.008  18.744  0.00  0.00    +0.000 A 
ATOM     17  C   UNL     1       2.709   6.856  18.128  0.00  0.00    +0.000 A 
ATOM     18  C   UNL     1       2.677   5.638  18.799  0.00  0.00    +0.000 A 
ATOM     19  C   UNL     1       2.145   5.578  20.082  0.00  0.00    +0.000 A 
ATOM     20  C   UNL     1       1.648   6.736  20.686  0.00  0.00    +0.000 A 
ENDBRANCH  12  15
ENDBRANCH   2   9
BRANCH   1  21
ATOM     21  C   UNL     1       0.296  13.774  21.643  0.00  0.00    +0.000 C 
ATOM     22  O   UNL     1       1.481  13.661  21.920  0.00  0.00    +0.000 OA
BRANCH  21  23
ATOM     23  O   UNL     1      -0.187  14.346  20.509  0.00  0.00    +0.000 OA
BRANCH  23  25
ATOM     24  C   UNL     1      -0.117  13.442  18.225  0.00  0.00    +0.000 C 
ATOM     25  C   UNL     1       0.615  14.193  19.327  0.00  0.00    +0.000 C 
ENDBRANCH  23  25
ENDBRANCH  21  23
ENDBRANCH   1  21
TORSDOF 5
ENDMDL
